data_mof_unit_67052.cif
_audit_creation_date              2013-03-05T15:58:16-0500
_audit_creation_method            fapswitch 2.2
_symmetry_space_group_name_H-M    P1
_symmetry_Int_Tables_number       1
_space_group_crystal_system       triclinic
_cell_length_a                    8.328244
_cell_length_b                    12.706847
_cell_length_c                    14.516922
_cell_angle_alpha                 93.682774
_cell_angle_beta                  91.141977
_cell_angle_gamma                 98.795269
_cell_volume                      1514.3741515

loop_
_atom_site_label
_atom_site_type_symbol
_atom_site_description
_atom_site_fract_x
_atom_site_fract_y
_atom_site_fract_z
_atom_type_partial_charge
P1    P     P_3+3 0.054400 0.427280 0.286870 0.483281
O1    O     O_2   0.887370 0.460630 0.272300 -0.361453
O2    O     O_3   0.129410 0.451380 0.388510 -0.397625
O3    O     O_3   0.670210 0.653170 0.329170 -0.391035
O4    O     O_2   0.794117 0.599656 0.168581 -0.377221
O5    O     O_3   0.010085 0.288467 0.264187 -0.549344
O6    O     O_3   0.698708 0.786641 0.180941 -0.528991
H1    H     H_    0.742314 0.848253 0.316143 0.166288
C1    C     C_3   0.675126 0.968013 0.232394 -0.970893
H2    H     H_    0.701464 0.021227 0.296181 0.229304
H3    H     H_    0.773162 0.985928 0.182931 0.316644
P2    P     P_3+3 0.668300 0.742890 0.573060 0.436407
P3    P     P_3+3 0.134915 0.842607 0.378147 0.440917
O7    O     O_2   0.845380 0.761330 0.544970 -0.388159
O8    O     O_3   0.088930 0.704860 0.376040 -0.357444
O9    O     O_2   0.015856 0.887281 0.444829 -0.392378
O10   O     O_3   0.687190 0.767321 0.693082 -0.585681
O11   O     O_3   0.072779 0.880133 0.271899 -0.503737
C2    C     C_3   0.185561 0.855770 0.207446 0.276523
H4    H     H_    0.212216 0.772790 0.212247 0.035527
H5    H     H_    0.298795 0.913795 0.219203 0.068212
C3    C     C_3   0.114558 0.864241 0.111253 0.226781
H6    H     H_    0.994622 0.811804 0.103792 0.166777
C4    C     C_3   0.273053 0.783434 0.758247 1.008682
C5    C     C_3   0.408789 0.757697 0.819753 -1.050868
H7    H     H_    0.458661 0.688245 0.792239 0.270711
H8    H     H_    0.508875 0.826417 0.826539 0.263766
H9    H     H_    0.362670 0.741189 0.888557 0.241162
Ba1   Ba    Ba6+2 0.855630 0.555280 0.454520 1.566058
C6    C     C_3   0.970628 0.235156 0.344525 0.374699
H10   H     H_    0.837010 0.220567 0.349555 0.078638
H11   H     H_    0.024506 0.277194 0.409664 0.152600
C7    C     C_3   0.032388 0.128864 0.335653 -0.862710
H12   H     H_    0.976513 0.081092 0.274116 0.292103
H13   H     H_    0.003203 0.084261 0.397818 0.238587
H14   H     H_    0.165195 0.141953 0.326124 0.271402
C8    C     C_3   0.752491 0.684507 0.731916 0.421767
H15   H     H_    0.857906 0.665831 0.693073 0.147311
H16   H     H_    0.659938 0.611517 0.730049 0.079496
C9    C     C_3   0.806564 0.719198 0.832129 -0.953696
H17   H     H_    0.879630 0.800114 0.836147 0.307841
H18   H     H_    0.880898 0.663263 0.860529 0.231963
H19   H     H_    0.701472 0.720428 0.877336 0.245210
P4    P     P_3+3 0.135310 0.572810 0.713130 0.465120
O12   O     O_2   0.302330 0.539400 0.727760 -0.389488
O13   O     O_3   0.060300 0.548700 0.611500 -0.353442
O14   O     O_3   0.519500 0.346920 0.670840 -0.313216
O15   O     O_3   0.131703 0.706926 0.755575 -0.620154
P5    P     P_3+3 0.061685 0.155875 0.622759 0.516872
O16   O     O_3   0.614310 0.373510 0.452640 -0.337637
O17   O     O_3   0.100780 0.295230 0.623970 -0.306331
O18   O     O_2   0.191380 0.113824 0.561910 -0.372042
O19   O     O_3   0.112409 0.125517 0.734203 -0.448465
Ba2   Ba    Ba6+2 0.334200 0.444810 0.545490 1.586543
P6    P     P_3+3 0.653582 0.653227 0.208921 0.452920
C10   C     C_3   0.658203 0.851892 0.256374 0.474861
H20   H     H_    0.530662 0.826279 0.275768 0.002488
H21   H     H_    0.561597 0.986596 0.201420 0.245198
O20   O     O_3   0.575400 0.626570 0.547370 -0.389200
C11   C     C_3   0.473477 0.304481 0.262647 0.412708
H22   H     H_    0.357213 0.325678 0.288584 0.095220
H23   H     H_    0.572402 0.373360 0.276395 0.118981
C12   C     C_3   0.454897 0.279761 0.158664 -0.956791
H24   H     H_    0.354298 0.212587 0.142546 0.297265
H25   H     H_    0.427116 0.350722 0.124454 0.220396
H26   H     H_    0.569472 0.257570 0.130997 0.259315
P7    P     P_3+3 0.524637 0.240045 0.423796 0.451078
O21   O     O_2   0.344320 0.238700 0.455090 -0.369054
O22   O     O_3   0.511702 0.214064 0.303728 -0.582562
C13   C     C_3   0.998771 0.159153 0.795327 0.379915
H27   H     H_    0.952088 0.232332 0.775382 0.061188
H28   H     H_    0.896463 0.092887 0.798187 0.073185
C14   C     C_3   0.077498 0.184531 0.891258 -0.737125
H29   H     H_    0.170119 0.257313 0.891611 0.266278
H30   H     H_    0.984148 0.199310 0.941982 0.197109
H31   H     H_    0.136575 0.117042 0.912414 0.311347
P8    P     P_3+3 0.537937 0.349110 0.791233 0.496460
C15   C     C_3   0.549693 0.146197 0.791558 0.510074
H32   H     H_    0.662212 0.178706 0.756431 -0.021173
O23   O     O_2   0.418502 0.420027 0.830517 -0.392570
O24   O     O_3   0.455927 0.222959 0.824550 -0.480787
H33   H     H_    0.474278 0.089861 0.740448 0.136938
H34   H     H_    0.686945 0.136911 0.918342 0.246956
C16   C     C_3   0.594882 0.085186 0.872537 -1.011542
H35   H     H_    0.644301 0.012702 0.847252 0.235968
H36   H     H_    0.485986 0.060938 0.913381 0.312845
C17   C     C_R   0.987979 0.436573 0.058272 -0.129651
C18   C     C_R   0.182864 0.492777 0.194479 0.248832
C19   C     C_R   0.337172 0.544903 0.224537 -0.511718
C20   C     C_R   0.452015 0.587159 0.162743 0.254986
C21   C     C_R   0.411662 0.581640 0.068289 -0.316992
C22   C     C_R   0.255756 0.533707 0.034472 0.060695
C23   C     C_R   0.140220 0.486510 0.096725 0.001496
H37   H     H_    0.370470 0.549991 0.297319 0.169020
C24   C     C_R   0.061818 0.488948 0.900388 -0.017617
C25   C     C_R   0.947603 0.438662 0.962517 0.078217
C26   C     C_R   0.014835 0.492976 0.803346 0.280864
C27   C     C_R   0.854334 0.453368 0.777352 -0.455740
C28   C     C_R   0.744924 0.401281 0.836793 0.240386
C29   C     C_R   0.790989 0.393299 0.928861 -0.335431
C30   C     C_R   0.215094 0.534910 0.939047 -0.154578
H38   H     H_    0.501017 0.616881 0.021398 0.161347
H39   H     H_    0.702988 0.354452 0.974701 0.159630
H40   H     H_    0.809738 0.470833 0.711099 0.178740
H41   H     H_    0.897917 0.397575 0.102658 0.163800
H42   H     H_    0.305621 0.571606 0.895187 0.180330
C31   C     C_R   0.756798 0.175420 0.542471 -0.036029
C32   C     C_R   0.437240 0.810622 0.454980 -0.460670
C33   C     C_R   0.412998 0.991992 0.425276 -0.190948
C34   C     C_R   0.348998 0.884625 0.418174 0.152495
C35   C     C_R   0.581343 0.844472 0.507925 0.286241
C36   C     C_R   0.645369 0.955399 0.517530 -0.054663
C37   C     C_R   0.559726 0.029392 0.474654 -0.087779
C38   C     C_R   0.618115 0.139908 0.486379 0.185832
C39   C     C_R   0.852100 0.104144 0.576207 0.071082
C40   C     C_R   0.792600 0.995014 0.567527 -0.238714
H43   H     H_    0.341492 0.045634 0.395672 0.181874
H44   H     H_    0.863777 0.943156 0.599966 0.201027
H45   H     H_    0.385424 0.726946 0.449815 0.174917
C41   C     C_3   0.223449 0.826161 0.037217 -0.450722
C42   C     C_3   0.396051 0.889556 0.042027 -0.779703
H46   H     H_    0.397284 0.975266 0.062705 0.286054
H47   H     H_    0.470300 0.853688 0.091668 0.258147
H48   H     H_    0.455763 0.886065 0.975175 0.273122
H49   H     H_    0.230141 0.740864 0.044066 0.178713
H50   H     H_    0.162593 0.830478 0.970112 0.278799
Br1   Br    Br    0.807838 0.321865 0.580426 -0.459390
Br2   Br    Br    0.077122 0.009049 0.092293 -0.585078
C43   C     C_3   0.324051 0.805426 0.662049 -0.474653
C44   C     C_3   0.183701 0.835953 0.606423 -0.634185
H51   H     H_    0.075138 0.845089 0.647230 0.266988
H52   H     H_    0.222698 0.913995 0.577844 0.255354
H53   H     H_    0.145444 0.771038 0.552580 0.271829
H54   H     H_    0.428713 0.871438 0.665243 0.185258
H55   H     H_    0.358876 0.731746 0.629063 0.204150
Br3   Br    Br    0.216570 0.917040 0.813064 -0.629039

loop_
_geom_bond_atom_site_label_1
_geom_bond_atom_site_label_2
_geom_bond_distance
_ccdc_geom_bond_type
C12   H25   1.109027 S    
P2    Ba1   3.434502 S    
C14   H29   1.109689 S    
C24   C25   1.431411 A    
O6    P6    1.754964 S    
H1    C10   1.111985 S    
C26   C27   1.390039 A    
C33   H43   1.074943 S    
C41   C42   1.534523 S    
C5    H9    1.098512 S    
C3    C41   1.522471 S    
O16   Ba2   2.948648 S    
P3    O11   1.735598 S    
C11   C12   1.521897 S    
C2    H5    1.107641 S    
P7    C38   1.863803 S    
C16   H36   1.108354 S    
C1    H21   1.103119 S    
C8    C9    1.531117 S    
C6    H10   1.104504 S    
O2    Ba2   2.832337 S    
C41   H50   1.097518 S    
Ba2   O21   2.866861 S    
Ba1   Ba2   4.619425 S    
C39   C40   1.396169 A    
C25   C29   1.407378 A    
C7    H14   1.105866 S    
C10   H20   1.109688 S    
C11   H23   1.111367 S    
P1    O1    1.529526 D    
C19   H37   1.082346 S    
O2    Ba1   2.950479 S    
C42   H48   1.100710 S    
C43   H55   1.104962 S    
P2    O20   1.578076 S    
C4    C43   1.498719 S    
C9    H19   1.105774 S    
H34   C16   1.109704 S    
C40   H44   1.074966 S    
P5    O17   1.749679 S    
P2    O10   1.749737 S    
C13   H27   1.113688 S    
C1    H2    1.108556 S    
O3    Ba1   2.830073 S    
C6    C7    1.515950 S    
C33   C37   1.405935 A    
Ba1   O16   2.818669 S    
C4    Br3   1.955095 S    
P1    C18   1.887993 S    
C9    H18   1.104732 S    
C12   H26   1.111008 S    
C14   H30   1.109776 S    
C32   H45   1.081904 S    
O6    C10   1.408555 S    
O19   C13   1.405053 S    
C36   C37   1.429233 A    
P4    O13   1.583493 S    
O8    Ba1   2.814752 S    
Ba2   O20   2.817992 S    
P7    O21   1.575499 D    
C4    O15   1.405627 S    
Ba1   O20   2.949444 S    
C2    C3    1.522216 S    
C4    C5    1.514072 S    
C21   C22   1.411460 A    
C41   H49   1.104457 S    
O11   C2    1.392931 S    
C5    H7    1.088261 S    
C29   H39   1.083799 S    
P1    O5    1.754237 S    
C11   H22   1.110461 S    
P1    O2    1.583617 S    
C44   H52   1.104869 S    
C31   C38   1.398786 A    
C8    H15   1.100579 S    
C15   C16   1.520948 S    
P4    C26   1.913839 S    
C15   H33   1.110463 S    
C3    Br2   1.948292 S    
C28   C29   1.397399 A    
C17   H41   1.081638 S    
P8    O24   1.745821 S    
P5    O18   1.544795 D    
C17   C25   1.426499 A    
O13   Ba2   2.951257 S    
C13   C14   1.521358 S    
P1    Ba1   3.432847 S    
C7    H12   1.100210 S    
C1    C10   1.524001 S    
O10   C8    1.399964 S    
C16   H35   1.109485 S    
C1    H3    1.105246 S    
P3    C34   1.851830 S    
C31   C39   1.396930 A    
C42   H46   1.109423 S    
C22   C30   1.421081 A    
O14   Ba2   2.829473 S    
C9    H17   1.109231 S    
O5    C6    1.405607 S    
P2    O7    1.525351 D    
O12   Ba2   2.869391 S    
P3    O8    1.731741 S    
O3    P6    1.748432 S    
C14   H31   1.108463 S    
C44   H53   1.104419 S    
O14   P8    1.749480 S    
O7    Ba1   2.866669 S    
C36   C40   1.418633 A    
P4    O12   1.529891 D    
C37   C38   1.412336 A    
O16   P7    1.765847 S    
P8    O23   1.535375 D    
C30   H42   1.068184 S    
C18   C23   1.450186 A    
C35   C36   1.425656 A    
P5    C39   1.865615 S    
C15   H32   1.111994 S    
O4    P6    1.547881 D    
P6    C20   1.850426 S    
C12   H24   1.110450 S    
C24   C26   1.460722 A    
C5    H8    1.109090 S    
C24   C30   1.409578 A    
C32   C35   1.406759 A    
Ba1   O13   2.831768 S    
O17   Ba2   2.815348 S    
C2    H4    1.116392 S    
C44   H51   1.107464 S    
C43   C44   1.519907 S    
C31   Br1   1.887886 S    
C8    H16   1.110131 S    
C33   C34   1.383263 A    
C6    H11   1.107131 S    
C15   O24   1.406574 S    
C20   C21   1.400035 A    
C11   O22   1.403320 S    
P5    O19   1.745671 S    
C17   C23   1.414951 A    
C22   C23   1.424795 A    
C7    H13   1.107711 S    
C32   C34   1.403580 A    
P8    C28   1.843178 S    
C42   H47   1.104542 S    
C43   H54   1.111453 S    
P4    Ba2   3.433316 S    
O1    Ba1   2.868838 S    
C18   C19   1.400303 A    
C27   C28   1.390392 A    
P3    O9    1.543466 D    
C3    H6    1.111886 S    
C13   H28   1.105989 S    
C21   H38   1.084031 S    
P7    O22   1.751115 S    
C19   C20   1.395287 A    
C27   H40   1.072667 S    
P2    C35   1.870845 S    
P4    O15   1.779419 S    
