data_mof_unit_32024.cif
_audit_creation_date              2012-12-10T18:46:19-0500
_audit_creation_method            fapswitch 2.2
_symmetry_space_group_name_H-M    P1
_symmetry_Int_Tables_number       1
_space_group_crystal_system       triclinic
_cell_length_a                    9.908415
_cell_length_b                    10.62116
_cell_length_c                    13.159889
_cell_angle_alpha                 90.173949
_cell_angle_beta                  71.385987
_cell_angle_gamma                 91.283852
_cell_volume                      1312.14460572

loop_
_atom_site_label
_atom_site_type_symbol
_atom_type_description
_atom_site_fract_x
_atom_site_fract_y
_atom_site_fract_z
_atom_type_partial_charge
C1    C     C_R   0.502514 0.739375 0.497011 0.943468
C2    C     C_R   0.377327 0.489972 0.820148 -0.077811
C3    C     C_R   0.592562 0.941088 0.408342 -0.020691
C4    C     C_R   0.422365 0.496481 0.703527 0.906586
C5    C     C_R   0.587591 0.070581 0.415453 -0.248079
C6    C     C_R   0.496561 0.127705 0.506468 -0.082161
C7    C     C_R   0.413348 0.058089 0.596563 -0.013335
C8    C     C_R   0.416688 0.928527 0.588616 -0.236622
C9    C     C_R   0.504589 0.871739 0.496418 -0.118799
C10   C     C_R   0.909930 0.397018 0.532803 -0.096658
C11   C     C_R   0.053023 0.395186 0.531063 0.054894
C12   C     C_R   0.438472 0.459345 0.982850 0.073608
C13   C     C_R   0.087879 0.604079 0.468033 -0.102495
C14   C     C_R   0.944729 0.603758 0.467449 -0.058890
C15   C     C_R   0.497159 0.260474 0.504620 0.905053
C16   C     C_R   0.576232 0.485818 0.297710 0.954090
C17   C     C_R   0.789983 0.394298 0.014402 -0.023054
C18   C     C_R   0.614962 0.446639 0.185587 -0.092695
C19   C     C_R   0.255477 0.554785 0.878714 -0.189086
C20   C     C_R   0.223744 0.570936 0.988464 -0.077263
C21   C     C_R   0.315886 0.526639 0.039976 -0.184882
C22   C     C_2   0.329078 0.114835 0.700719 0.888153
C23   C     C_R   0.467086 0.436861 0.872881 0.121604
C24   C     C_2   0.099209 0.273333 0.557830 0.942183
C25   C     C_2   0.940241 0.367410 0.953186 0.898281
C26   C     C_3   0.370523 0.340822 0.202803 -0.404160
C27   C     C_3   0.407102 0.216227 0.243833 -0.737992
C28   C     C_2   0.686290 0.883388 0.307805 0.886032
C29   C     C_R   0.540018 0.423409 0.031097 0.032050
C30   C     C_R   0.678851 0.390778 0.967726 0.060972
C31   C     C_R   0.696796 0.349830 0.863087 -0.190429
C32   C     C_R   0.588104 0.365620 0.818700 -0.172689
C33   C     C_R   0.506062 0.415888 0.141520 0.081806
C34   C     C_R   0.757384 0.433020 0.121858 -0.268903
H1    H     H_    0.842051 0.448184 0.156489 0.190659
H2    H     H_    0.130912 0.623071 0.032901 0.146036
H3    H     H_    0.603418 0.325974 0.740199 0.185276
H4    H     H_    0.185208 0.088093 0.847755 0.371507
H5    H     H_    0.071370 0.139790 0.671229 0.351988
H6    H     H_    0.098661 0.373842 0.812090 0.392844
H7    H     H_    0.476581 0.160849 0.176271 0.248942
H8    H     H_    0.463190 0.233520 0.302906 0.243656
H9    H     H_    0.308216 0.160175 0.282520 0.283984
H10   H     H_    0.296341 0.394682 0.268475 0.237004
H11   H     H_    0.307562 0.314721 0.149253 0.224576
H12   H     H_    0.652417 0.128127 0.348974 0.181408
H13   H     H_    0.855051 0.905522 0.173336 0.350862
H14   H     H_    0.353938 0.870330 0.655406 0.182987
H15   H     H_    0.841472 0.314386 0.558232 0.140186
H16   H     H_    0.154448 0.687470 0.441890 0.159675
H17   H     H_    0.904330 0.686925 0.440886 0.149251
H18   H     H_    0.791988 0.303356 0.815680 0.219607
H19   H     H_    0.188069 0.597965 0.838684 0.177839
H20   H     H_    0.293359 0.549909 0.123769 0.141904
N1    N     N_R   0.142790 0.500030 0.500030 -0.128310
N2    N     N_R   0.857180 0.499940 0.500010 -0.090552
O1    O     O_R   0.385370 0.683250 0.500010 -0.620702
O2    O     O_R   0.236242 0.038985 0.780809 -0.810488
O3    O     O_2   0.158788 0.201014 0.485929 -0.643099
O4    O     O_R   0.052967 0.232242 0.664179 -0.804613
O5    O     O_2   0.016196 0.318316 0.998351 -0.616453
O6    O     O_R   0.996699 0.401113 0.845113 -0.792577
O7    O     O_2   0.663596 0.775826 0.283187 -0.650140
O8    O     O_R   0.799635 0.954129 0.239353 -0.795034
O9    O     O_R   0.614700 0.683220 0.500010 -0.610194
O10   O     O_R   0.328400 0.499990 0.653620 -0.593468
O11   O     O_R   0.557730 0.499960 0.653620 -0.624226
O12   O     O_R   0.385300 0.316780 0.499990 -0.587208
O13   O     O_R   0.614630 0.316750 0.499990 -0.641382
O14   O     O_R   0.442270 0.500040 0.346380 -0.625628
O15   O     O_R   0.671600 0.500010 0.346380 -0.596240
O16   O     O_2   0.341517 0.226648 0.718040 -0.666088
Zn1   Zn    Zn3+2 0.346870 0.500020 0.500000 0.991228
Zn2   Zn    Zn3+2 0.653130 0.499980 0.500000 0.972898

loop_
_geom_bond_atom_site_label_1
_geom_bond_atom_site_label_2
_ccdc_geom_bond_type
H13   O8    S    
C22   O2    S    
C4    O11   A    
C2    C4    S    
C8    H14   S    
C29   C30   A    
C3    C9    A    
C1    O1    A    
C12   C29   A    
O15   Zn2   S    
C7    C22   S    
C10   N2    A    
C5    H12   S    
C27   H7    S    
C26   C33   S    
C14   N2    A    
C19   C20   A    
C12   C23   A    
O10   Zn1   S    
C31   H18   S    
C24   O4    S    
C17   C25   S    
C23   C32   A    
C19   H19   S    
O14   Zn1   S    
O12   Zn1   S    
H6    O6    S    
C11   N1    A    
C7    C8    A    
O11   Zn2   S    
C25   O5    D    
C32   H3    S    
C4    O10   A    
C17   C30   A    
C18   C34   A    
C27   H8    S    
C26   C27   S    
C5    C6    A    
C16   O15   A    
C12   C21   A    
C24   O3    D    
H4    O2    S    
C15   O12   A    
C28   O8    S    
C22   O16   D    
C3    C28   S    
C6    C7    A    
C25   O6    S    
C14   H17   S    
C21   H20   S    
C15   O13   A    
C18   C33   A    
N2    Zn2   S    
C10   C11   A    
H5    O4    S    
C26   H10   S    
C13   H16   S    
N1    Zn1   S    
C28   O7    D    
C29   C33   A    
C11   C24   S    
O13   Zn2   S    
C16   O14   A    
C20   C21   A    
C16   C18   S    
C34   H1    S    
C17   C34   A    
O1    Zn1   S    
C2    C23   A    
C27   H9    S    
C30   C31   A    
C1    C9    S    
C26   H11   S    
C3    C5    A    
C6    C15   S    
C13   C14   A    
C10   H15   S    
C1    O9    A    
O9    Zn2   S    
C31   C32   A    
C2    C19   A    
C8    C9    A    
C13   N1    A    
C20   H2    S    
