data_mof_unit_31953.cif
_audit_creation_date              2012-12-10T19:09:01-0500
_audit_creation_method            fapswitch 2.2
_symmetry_space_group_name_H-M    P1
_symmetry_Int_Tables_number       1
_space_group_crystal_system       triclinic
_cell_length_a                    17.674951
_cell_length_b                    10.853423
_cell_length_c                    9.547612
_cell_angle_alpha                 89.340896
_cell_angle_beta                  90.406542
_cell_angle_gamma                 91.66054
_cell_volume                      1830.62174193

loop_
_atom_site_label
_atom_site_type_symbol
_atom_type_description
_atom_site_fract_x
_atom_site_fract_y
_atom_site_fract_z
_atom_type_partial_charge
C1    C     C_R   0.500035 0.262362 0.500457 0.769364
C2    C     C_R   0.884746 0.446846 0.489473 -0.106588
C3    C     C_1   0.965537 0.446663 0.480672 0.055509
C4    C     C_1   0.033419 0.451174 0.480130 -0.003403
C5    C     C_R   0.149300 0.528639 0.592734 -0.262098
C6    C     C_R   0.228880 0.538783 0.601827 0.428393
C7    C     C_R   0.272357 0.484012 0.497072 -0.236084
C8    C     C_R   0.236172 0.412785 0.391309 0.429041
C9    C     C_R   0.157264 0.403012 0.385777 -0.253943
C10   C     C_R   0.114205 0.460645 0.486014 -0.004498
C11   C     C_R   0.501086 0.062090 0.625799 0.036093
C12   C     C_R   0.355520 0.496947 0.499471 0.854500
C13   C     C_R   0.503617 0.129264 0.500334 -0.086966
C14   C     C_R   0.509827 0.066203 0.373443 -0.259998
C15   C     C_R   0.507326 0.938071 0.372776 -0.185799
C16   C     C_R   0.500833 0.871113 0.498897 -0.149705
C17   C     C_R   0.499445 0.934576 0.625266 0.097632
C18   C     C_3   0.439947 0.926514 0.736160 0.306891
C19   C     C_3   0.443073 0.066215 0.738105 -0.469213
C20   C     C_R   0.528445 0.599299 0.071359 0.158627
C21   C     C_R   0.461983 0.410647 0.075874 -0.180514
C22   C     C_R   0.459099 0.412604 0.925242 0.572071
C23   C     C_R   0.498907 0.737608 0.499405 0.804898
C24   C     C_R   0.525786 0.600907 0.925240 0.112881
C25   C     C_3   0.599211 0.668818 0.911838 -0.601490
C26   C     C_3   0.605537 0.662665 0.073469 0.881475
C27   C     C_R   0.644264 0.490340 0.500606 0.869819
C28   C     C_R   0.850996 0.482745 0.614144 0.439635
C29   C     C_R   0.771766 0.485371 0.622686 0.318776
C30   C     C_R   0.726708 0.466593 0.501153 -0.317242
C31   C     C_R   0.761292 0.418434 0.380872 0.449754
C32   C     C_R   0.840158 0.412406 0.374591 -0.368337
Cu1   Cu    Cu3+1 0.500000 0.499980 0.640670 1.017431
Cu2   Cu    Cu3+1 0.500000 0.500020 0.359330 1.009658
H1    H     H_    0.507196 0.892119 0.273285 0.213717
H2    H     H_    0.385689 0.884155 0.696618 0.097170
H3    H     H_    0.467310 0.104709 0.836616 0.239539
H4    H     H_    0.513282 0.115279 0.274142 0.164855
N1    N     N_R   0.500470 0.500930 0.147930 -0.209779
N2    N     N_R   0.500480 0.500890 0.852020 -0.210804
O1    O     O_R   0.500000 0.319640 0.618810 -0.539753
O2    O     O_R   0.500010 0.319680 0.381230 -0.599428
O3    O     O_R   0.391250 0.499990 0.618840 -0.514479
O4    O     O_R   0.391260 0.500020 0.381250 -0.556113
O5    O     O_R   0.499990 0.680320 0.618770 -0.558663
O6    O     O_R   0.500000 0.680360 0.381190 -0.569105
O7    O     O_R   0.608740 0.499980 0.618750 -0.564493
O8    O     O_R   0.608750 0.500010 0.381160 -0.485428
O9    O     O_3   0.895293 0.507007 0.731273 -0.564014
C33   C     C_3   0.905775 0.635758 0.742835 -0.311906
H5    H     H_    0.851259 0.681330 0.761760 0.180251
H6    H     H_    0.933925 0.676319 0.648334 0.145894
H7    H     H_    0.943305 0.655075 0.834044 0.177212
O10   O     O_3   0.468512 0.874039 0.860831 -0.568763
C34   C     C_3   0.409443 0.859497 0.958535 -0.335431
H8    H     H_    0.433078 0.822474 0.057774 0.187591
H9    H     H_    0.365543 0.792183 0.920775 0.179005
H10   H     H_    0.383666 0.949197 0.982201 0.153504
H11   H     H_    0.389526 0.107523 0.701379 0.170021
H12   H     H_    0.434022 0.337065 0.134566 0.170378
O11   O     O_3   0.417461 0.325549 0.849562 -0.562994
C35   C     C_3   0.346965 0.296064 0.912216 -0.369804
H13   H     H_    0.307389 0.261867 0.829778 0.183259
H14   H     H_    0.320686 0.377183 0.960568 0.182486
H15   H     H_    0.353271 0.220623 0.990613 0.156287
H16   H     H_    0.640822 0.613854 0.857415 0.251389
H17   H     H_    0.591799 0.761058 0.863918 0.225572
O12   O     O_3   0.661134 0.581226 0.123120 -0.541581
C36   C     C_3   0.734499 0.634968 0.109391 -0.235735
H18   H     H_    0.744372 0.707879 0.188720 0.169913
H19   H     H_    0.745570 0.671136 0.001894 0.140824
H20   H     H_    0.776747 0.563265 0.128758 0.204528
O13   O     O_3   0.739350 0.508432 0.750200 -0.582179
C37   C     C_3   0.731020 0.395592 0.824406 -0.257853
H21   H     H_    0.787029 0.357802 0.852632 0.182767
H22   H     H_    0.696577 0.326471 0.764230 0.140550
H23   H     H_    0.700665 0.411973 0.923404 0.216305
O14   O     O_3   0.602126 0.772670 0.152691 -0.585859
C38   C     C_3   0.635614 0.877515 0.086156 -0.437130
H24   H     H_    0.685652 0.857047 0.021808 0.153724
H25   H     H_    0.654843 0.943160 0.168125 0.194046
H26   H     H_    0.592725 0.924622 0.021043 0.218922
O15   O     O_3   0.718609 0.377845 0.267761 -0.524450
C39   C     C_3   0.699442 0.252058 0.289056 -0.280972
H27   H     H_    0.663345 0.220260 0.200270 0.176363
H28   H     H_    0.666282 0.236843 0.386776 0.141129
H29   H     H_    0.750846 0.195194 0.291236 0.141749
H30   H     H_    0.866372 0.380569 0.279841 0.183456
H31   H     H_    0.114416 0.574906 0.667409 0.157053
O16   O     O_3   0.265575 0.610465 0.703001 -0.571179
C40   C     C_3   0.234144 0.589760 0.837169 -0.310008
H32   H     H_    0.215692 0.491860 0.855436 0.154694
H33   H     H_    0.186305 0.651984 0.853592 0.157697
H34   H     H_    0.278058 0.612246 0.917106 0.178351
O17   O     O_3   0.277584 0.355258 0.289962 -0.573190
C41   C     C_3   0.292726 0.234897 0.337536 -0.333214
H35   H     H_    0.239513 0.178494 0.349364 0.157560
H36   H     H_    0.325259 0.235899 0.437865 0.147667
H37   H     H_    0.327987 0.189761 0.258531 0.173648
H38   H     H_    0.129800 0.350185 0.303187 0.158659

loop_
_geom_bond_atom_site_label_1
_geom_bond_atom_site_label_2
_ccdc_geom_bond_type
C27   O8    A    
C8    C9    A    
C34   H8    S    
C23   O5    A    
Cu1   O5    S    
O13   C37   S    
O17   C41   S    
C25   H17   S    
C39   H29   S    
C7    C8    A    
C11   C19   S    
C35   H13   S    
C37   H22   S    
O15   C39   S    
C29   O13   S    
C28   C29   A    
C39   H28   S    
C12   O3    A    
C30   C31   A    
C40   H33   S    
C15   C16   A    
C32   H30   S    
C41   H37   S    
C31   O15   S    
C2    C32   A    
C18   C19   S    
C36   H19   S    
C35   H14   S    
C19   H3    S    
C20   C24   A    
C16   C17   A    
C37   H23   S    
Cu2   O2    S    
C33   H6    S    
Cu2   O6    S    
C9    C10   A    
C23   O6    A    
C21   C22   A    
C27   C30   S    
C36   H18   S    
C8    O17   S    
C15   H1    S    
C17   C18   S    
C7    C12   S    
C33   H7    S    
C37   H21   S    
Cu2   N1    S    
Cu1   N2    S    
Cu2   O4    S    
C24   C25   S    
C21   H12   S    
C40   H32   S    
C38   H25   S    
C20   N1    A    
O14   C38   S    
O12   C36   S    
C19   H11   S    
C25   C26   S    
C6    O16   S    
C41   H36   S    
Cu1   O3    S    
C36   H20   S    
C29   C30   A    
C14   H4    S    
C28   O9    S    
C31   C32   A    
C21   N1    A    
C22   N2    A    
C41   H35   S    
C33   H5    S    
C26   O14   S    
C39   H27   S    
C1    O1    A    
C9    H38   S    
C34   H9    S    
Cu1   O7    S    
Cu2   O8    S    
C4    C10   S    
C3    C4    T    
C27   O7    A    
O10   C34   S    
C11   C17   A    
C35   H15   S    
C25   H16   S    
C38   H26   S    
C6    C7    A    
C16   C23   S    
Cu1   O1    S    
C2    C3    S    
C26   O12   S    
C5    C10   A    
C12   O4    A    
C22   O11   S    
C11   C13   A    
O16   C40   S    
C5    C6    A    
C20   C26   S    
C24   N2    A    
Cu1   Cu2   S    
O11   C35   S    
C18   O10   S    
C38   H24   S    
C1    O2    A    
C1    C13   S    
O9    C33   S    
C34   H10   S    
C14   C15   A    
C2    C28   A    
C13   C14   A    
C18   H2    S    
C5    H31   S    
C40   H34   S    
