data_mof_unit_5749.cif
_audit_creation_date              2012-12-10T17:44:36-0500
_audit_creation_method            fapswitch 2.2
_symmetry_space_group_name_H-M    P1
_symmetry_Int_Tables_number       1
_space_group_crystal_system       triclinic
_cell_length_a                    9.950969
_cell_length_b                    10.654676
_cell_length_c                    15.624492
_cell_angle_alpha                 93.922406
_cell_angle_beta                  67.88478
_cell_angle_gamma                 90.173343
_cell_volume                      1530.64221571

loop_
_atom_site_label
_atom_site_type_symbol
_atom_type_description
_atom_site_fract_x
_atom_site_fract_y
_atom_site_fract_z
_atom_type_partial_charge
C1    C     C_R   0.505435 0.738250 0.491297 0.886852
C2    C     C_R   0.726721 0.527983 0.035374 0.145954
C3    C     C_R   0.588527 0.480796 0.086919 0.101779
C4    C     C_R   0.409719 0.491023 0.674662 0.894630
C5    C     C_R   0.821919 0.565465 0.078865 -0.300487
C6    C     C_R   0.781385 0.558064 0.174096 0.207327
C7    C     C_R   0.556835 0.461335 0.179709 -0.321157
C8    C     C_R   0.394871 0.856251 0.363608 -0.249042
C9    C     C_R   0.335029 0.916364 0.309272 -0.144115
C10   C     C_R   0.334930 0.047510 0.308891 0.283698
C11   C     C_R   0.397483 0.117647 0.362857 -0.271864
C12   C     C_R   0.423535 0.457451 0.907541 0.087344
C13   C     C_R   0.453078 0.058480 0.421450 0.085735
C14   C     C_R   0.452703 0.926430 0.421353 0.094607
C15   C     C_R   0.517395 0.869247 0.476045 -0.120054
C16   C     C_R   0.504280 0.260155 0.492623 0.857378
C17   C     C_R   0.598697 0.938568 0.517314 -0.218380
C18   C     C_R   0.593733 0.066244 0.520880 -0.235500
C19   C     C_R   0.514755 0.126512 0.478127 -0.083452
C20   C     C_R   0.786719 0.661265 0.643193 0.495772
C21   C     C_R   0.831551 0.714596 0.714205 -0.328990
C22   C     C_R   0.972456 0.709899 0.706617 -0.279733
C23   C     C_R   0.276612 0.436234 0.961944 0.184200
C24   C     C_R   0.073758 0.647827 0.630886 -0.138885
C25   C     C_R   0.036258 0.574643 0.565983 0.109759
C26   C     C_R   0.889517 0.577527 0.568415 0.066754
C27   C     C_R   0.965915 0.428804 0.436390 -0.118684
C28   C     C_R   0.591067 0.500380 0.324744 0.843230
C29   C     C_R   0.108417 0.428843 0.436485 -0.099013
C30   C     C_R   0.357247 0.471958 0.773689 -0.059658
C31   C     C_R   0.647463 0.504655 0.224447 -0.083101
C32   C     C_R   0.171816 0.432789 0.921456 -0.217627
C33   C     C_R   0.211163 0.455363 0.828134 -0.209052
C34   C     C_R   0.527877 0.473637 0.948995 0.061692
C35   C     C_R   0.461483 0.464208 0.812837 -0.269944
C36   C     C_3   0.125333 0.094789 0.272357 -0.801653
C37   C     C_3   0.559452 0.771140 0.723457 0.076376
C38   C     C_3   0.413038 0.804424 0.719073 -0.849952
C39   C     C_3   0.838103 0.736684 0.256187 -0.726654
C40   C     C_R   0.485150 0.458805 0.045036 0.085332
C41   C     C_R   0.338365 0.430577 0.096851 -0.228031
C42   C     C_R   0.236365 0.420088 0.055809 -0.256280
C43   C     C_R   0.671065 0.512268 0.898559 -0.241554
C44   C     C_R   0.767282 0.540646 0.941396 -0.225895
H1    H     H_    0.124727 0.401500 0.098246 0.144440
H2    H     H_    0.460529 0.413285 0.219554 0.150160
H3    H     H_    0.004585 0.759186 0.758640 0.173061
H4    H     H_    0.181881 0.658733 0.625909 0.220943
H5    H     H_    0.192122 0.370337 0.384320 0.132015
H6    H     H_    0.873425 0.574944 0.900792 0.151246
H7    H     H_    0.059621 0.414458 0.962188 0.147074
H8    H     H_    0.128997 0.456503 0.798337 0.162192
H9    H     H_    0.573573 0.462314 0.767552 0.161189
H10   H     H_    0.296135 0.422150 0.170520 0.141601
H11   H     H_    0.711517 0.528277 0.826305 0.154531
H12   H     H_    0.924813 0.606501 0.039760 0.145134
H13   H     H_    0.311027 0.200446 0.239708 0.208306
H14   H     H_    0.092909 0.145003 0.222869 0.238989
H15   H     H_    0.062399 0.135843 0.343708 0.237381
H16   H     H_    0.098777 0.994088 0.266397 0.246998
H17   H     H_    0.608314 0.862681 0.732650 0.139191
H18   H     H_    0.537113 0.715800 0.785016 0.148239
H19   H     H_    0.376496 0.730131 0.680977 0.257238
H20   H     H_    0.329796 0.818390 0.790416 0.211195
H21   H     H_    0.418248 0.893649 0.685697 0.237669
H22   H     H_    0.982314 0.595006 0.178907 0.217846
H23   H     H_    0.658323 0.894962 0.553139 0.212515
H24   H     H_    0.860264 0.800393 0.199227 0.225026
H25   H     H_    0.905491 0.764586 0.296759 0.235269
H26   H     H_    0.722201 0.747187 0.302817 0.232684
H27   H     H_    0.399915 0.754710 0.356667 0.182084
H28   H     H_    0.292941 0.860097 0.265030 0.147902
H29   H     H_    0.405254 0.217861 0.356160 0.144387
H30   H     H_    0.647520 0.117991 0.560577 0.171631
H31   H     H_    0.943150 0.370409 0.384268 0.140377
H32   H     H_    0.760929 0.768047 0.775812 0.146428
N1    N     N_R   0.856800 0.501200 0.500850 -0.104116
N2    N     N_R   0.142390 0.501280 0.500880 -0.109711
N3    N     N_2   0.279183 0.108718 0.250492 -0.308127
N4    N     N_2   0.873252 0.607722 0.218629 -0.294662
O1    O     O_R   0.385310 0.683220 0.500000 -0.652460
O2    O     O_R   0.614640 0.683250 0.500010 -0.538298
O3    O     O_R   0.319840 0.499980 0.632240 -0.647868
O4    O     O_R   0.549160 0.500000 0.632250 -0.564245
O5    O     O_R   0.385360 0.316750 0.499990 -0.614044
O6    O     O_R   0.614690 0.316780 0.500000 -0.626390
O7    O     O_R   0.450840 0.500000 0.367750 -0.640833
O8    O     O_R   0.680160 0.500020 0.367760 -0.589789
O9    O     O_3   0.653305 0.700377 0.641818 -0.568019
Zn1   Zn    Zn3+2 0.346880 0.499980 0.499990 0.919854
Zn2   Zn    Zn3+2 0.653120 0.500020 0.500010 0.984108

loop_
_geom_bond_atom_site_label_1
_geom_bond_atom_site_label_2
_ccdc_geom_bond_type
C27   C29   A    
C41   C42   A    
H13   N3    S    
C5    H12   S    
C9    H28   S    
C36   H15   S    
C37   H18   S    
C29   H5    S    
N2    Zn1   S    
C33   H8    S    
C21   H32   S    
C23   C42   A    
C30   C35   A    
C34   C40   A    
C3    C7    A    
O6    Zn2   S    
C5    C6    A    
C35   H9    S    
C1    O1    A    
C18   C19   A    
C39   H24   S    
C29   N2    A    
C2    C44   A    
C8    C9    A    
C28   O8    A    
C38   H21   S    
C1    C15   S    
O4    Zn2   S    
C9    C10   A    
C6    C31   A    
C18   H30   S    
C13   C14   A    
C16   O6    A    
C27   H31   S    
C38   H20   S    
C17   H23   S    
C26   N1    A    
C7    C31   A    
C13   C19   A    
C25   N2    A    
C24   H4    S    
C7    H2    S    
C39   N4    S    
C24   C25   A    
C11   H29   S    
C12   C23   A    
C27   N1    A    
C1    O2    A    
O2    Zn2   S    
C42   H1    S    
C43   C44   A    
C32   H7    S    
C37   C38   S    
C6    N4    S    
C4    O4    A    
O8    Zn2   S    
C10   N3    S    
C28   O7    A    
C17   C18   A    
C39   H25   S    
C12   C35   A    
O1    Zn1   S    
C43   H11   S    
C40   C41   A    
C3    C40   A    
C16   O5    A    
C22   C24   A    
C2    C5    A    
C12   C34   A    
C38   H19   S    
C44   H6    S    
C15   C17   A    
O3    Zn1   S    
N1    Zn2   S    
C8    H27   S    
C8    C14   A    
C30   C33   A    
C28   C31   S    
C34   C43   A    
C36   H16   S    
C36   N3    S    
C37   H17   S    
O5    Zn1   S    
H22   N4    S    
C20   O9    S    
C36   H14   S    
C37   O9    S    
C32   C33   A    
C2    C3    A    
C25   C26   A    
C23   C32   A    
C11   C13   A    
C4    O3    A    
C20   C26   A    
C16   C19   S    
C39   H26   S    
C22   H3    S    
C41   H10   S    
C10   C11   A    
C20   C21   A    
O7    Zn1   S    
C14   C15   A    
C21   C22   A    
C4    C30   S    
