data_mof_unit_25390.cif
_audit_creation_date              2012-12-11T17:14:55-0500
_audit_creation_method            fapswitch 2.2
_symmetry_space_group_name_H-M    P1
_symmetry_Int_Tables_number       1
_space_group_crystal_system       triclinic
_cell_length_a                    7.232378
_cell_length_b                    12.130515
_cell_length_c                    21.298759
_cell_angle_alpha                 90.000034
_cell_angle_beta                  90.749439
_cell_angle_gamma                 90.000015
_cell_volume                      1868.43288358

loop_
_atom_site_label
_atom_site_type_symbol
_atom_type_description
_atom_site_fract_x
_atom_site_fract_y
_atom_site_fract_z
_atom_type_partial_charge
O1    O     O_R   0.354460 0.152320 0.595720 -0.533750
O2    O     O_R   0.645540 0.847680 0.404280 -0.533750
O3    O     O_R   0.145540 0.652320 0.404280 -0.533749
O4    O     O_R   0.854460 0.347680 0.595720 -0.533750
O5    O     O_R   0.683670 0.140090 0.727290 -0.537380
O6    O     O_R   0.316330 0.859910 0.272710 -0.537381
O7    O     O_R   0.816330 0.640090 0.272710 -0.537380
O8    O     O_R   0.183670 0.359910 0.727290 -0.537380
O9    O     O_R   0.854010 0.349340 0.727750 -0.535187
O10   O     O_R   0.145990 0.650660 0.272250 -0.535188
O11   O     O_R   0.645990 0.849340 0.272250 -0.535186
O12   O     O_R   0.354010 0.150660 0.727750 -0.535188
C1    C     C_R   0.516738 0.112070 0.746883 0.709491
C2    C     C_R   0.483261 0.887930 0.253117 0.709492
C3    C     C_R   0.983261 0.612070 0.253117 0.709493
C4    C     C_R   0.016739 0.387930 0.746883 0.709491
O13   O     O_R   0.684170 0.139420 0.596190 -0.536564
O14   O     O_R   0.315830 0.860580 0.403810 -0.536564
O15   O     O_R   0.815830 0.639420 0.403810 -0.536565
O16   O     O_R   0.184170 0.360580 0.596190 -0.536564
C5    C     C_R   0.514987 0.113172 0.574472 0.710465
C6    C     C_R   0.485013 0.886828 0.425528 0.710465
C7    C     C_R   0.985013 0.613172 0.425528 0.710464
C8    C     C_R   0.014987 0.386828 0.574472 0.710464
O17   O     O_3   0.520730 0.319480 0.661730 -0.376445
O18   O     O_3   0.479270 0.680520 0.338270 -0.376445
O19   O     O_3   0.979270 0.819480 0.338270 -0.376445
O20   O     O_3   0.020730 0.180520 0.661730 -0.376445
V1    V     V_3+5 0.795560 0.238090 0.661730 1.433385
V2    V     V_3+5 0.204440 0.761910 0.338270 1.433386
V3    V     V_3+5 0.704440 0.738090 0.338270 1.433385
V4    V     V_3+5 0.295560 0.261910 0.661730 1.433385
C9    C     C_R   0.013585 0.467357 0.798300 -0.065888
C10   C     C_R   0.986416 0.532643 0.201700 -0.065891
C11   C     C_R   0.486417 0.967356 0.201700 -0.065885
C12   C     C_R   0.513584 0.032642 0.798299 -0.065888
C13   C     C_R   0.039557 0.655282 0.836245 0.466313
C14   C     C_R   0.960460 0.344718 0.163754 0.466313
C15   C     C_R   0.460499 0.155283 0.163755 0.466318
C16   C     C_R   0.539548 0.844717 0.836244 0.466312
C17   C     C_R   0.038656 0.578983 0.786682 -0.281215
C18   C     C_R   0.961354 0.421017 0.213317 -0.281212
C19   C     C_R   0.461393 0.078984 0.213318 -0.281220
C20   C     C_R   0.538649 0.921016 0.786681 -0.281218
C21   C     C_R   0.994462 0.429326 0.859346 -0.199885
C22   C     C_R   0.005539 0.570676 0.140653 -0.199885
C23   C     C_R   0.505512 0.929321 0.140653 -0.199884
C24   C     C_R   0.494459 0.070673 0.859346 -0.199885
C25   C     C_R   0.004837 0.501692 0.911286 -0.010914
C26   C     C_R   0.995175 0.498309 0.088714 -0.010912
C27   C     C_R   0.495166 0.001689 0.088713 -0.010915
C28   C     C_R   0.504829 0.998306 0.911285 -0.010913
C29   C     C_R   0.020269 0.617223 0.899121 0.106554
C30   C     C_R   0.979748 0.382778 0.100878 0.106550
C31   C     C_R   0.479759 0.117221 0.100878 0.106556
C32   C     C_R   0.520262 0.882776 0.899120 0.106557
C33   C     C_R   0.999517 0.461980 0.974626 0.048513
C34   C     C_R   0.000498 0.538021 0.025373 0.048514
C35   C     C_R   0.500489 0.961977 0.025372 0.048514
C36   C     C_R   0.499508 0.038018 0.974626 0.048513
C37   C     C_R   0.003101 0.651817 0.011294 -0.301902
C38   C     C_R   0.996919 0.348185 0.988705 -0.301902
C39   C     C_R   0.496911 0.151814 0.988704 -0.301903
C40   C     C_R   0.503100 0.848181 0.011293 -0.301901
C41   C     C_R   0.014840 0.691426 0.950060 0.192920
C42   C     C_R   0.985181 0.308575 0.049940 0.192919
C43   C     C_R   0.485185 0.191424 0.049939 0.192920
C44   C     C_R   0.514836 0.808572 0.950059 0.192922
H1    H     H_    0.028184 0.657922 0.135913 0.109680
H2    H     H_    0.971809 0.342080 0.864087 0.109680
H3    H     H_    0.471809 0.157919 0.864086 0.109680
H4    H     H_    0.528117 0.842072 0.135913 0.109675
H5    H     H_    0.944151 0.393305 0.261272 0.094903
H6    H     H_    0.055860 0.606694 0.738727 0.094904
H7    H     H_    0.555852 0.893305 0.738726 0.094904
H8    H     H_    0.444216 0.106698 0.261273 0.094901
H9    H     H_    0.993232 0.714410 0.046817 0.139189
H10   H     H_    0.006794 0.285592 0.953182 0.139188
H11   H     H_    0.506778 0.214407 0.953182 0.139188
H12   H     H_    0.493245 0.785587 0.046816 0.139188
C45   C     C_1   0.995529 0.533157 0.478069 -0.178124
C46   C     C_1   0.004471 0.466843 0.521931 -0.178124
C47   C     C_1   0.504471 0.033157 0.521931 -0.178123
C48   C     C_1   0.495529 0.966843 0.478069 -0.178124
N1    N     N_3   0.017278 0.808548 0.940508 -0.581928
H13   H     H_    0.897326 0.841952 0.959572 0.229624
H14   H     H_    0.129547 0.841418 0.965505 0.233105
N2    N     N_3   0.982747 0.191452 0.059491 -0.581930
H15   H     H_    0.102696 0.158049 0.040425 0.229623
H16   H     H_    0.870474 0.158583 0.034496 0.233106
N3    N     N_3   0.482751 0.308546 0.059490 -0.581925
H17   H     H_    0.602697 0.341950 0.040422 0.229625
H18   H     H_    0.370475 0.341416 0.034497 0.233102
N4    N     N_3   0.517279 0.691450 0.940507 -0.581928
H19   H     H_    0.397331 0.658044 0.959572 0.229624
H20   H     H_    0.629552 0.658582 0.965502 0.233104
O21   O     O_3   0.062324 0.766333 0.823870 -0.615488
H21   H     H_    0.074565 0.777826 0.778011 0.280530
O22   O     O_3   0.937701 0.233666 0.176129 -0.615487
H22   H     H_    0.925457 0.222173 0.221988 0.280531
O23   O     O_3   0.437773 0.266336 0.176130 -0.615488
H23   H     H_    0.425553 0.277831 0.221990 0.280529
O24   O     O_3   0.562312 0.733666 0.823869 -0.615488
H24   H     H_    0.574552 0.722173 0.778010 0.280529

loop_
_geom_bond_atom_site_label_1
_geom_bond_atom_site_label_2
_ccdc_geom_bond_type
O1    C5    A    
O23   H23   S    
O3    V2    S    
O13   V1    S    
O3    C7    A    
C10   C18   A    
O15   V3    S    
C13   O21   S    
O21   H21   S    
C25   C33   A    
C33   C38   A    
C39   H11   S    
N1    H13   S    
C35   C40   A    
C26   C30   A    
C36   C39   A    
C40   C44   A    
O20   V1    S    
O9    C4    A    
C14   C18   A    
O10   C3    A    
C42   N2    S    
O4    C8    A    
O11   C2    A    
N3    H18   S    
C9    C21   A    
C8    C46   S    
C22   H1    S    
C28   C36   A    
C17   H6    S    
C15   C31   A    
O16   C8    A    
C37   H9    S    
C16   C32   A    
O2    C6    A    
C10   C22   A    
C11   C19   A    
C3    C10   S    
O5    C1    A    
O4    V1    S    
O9    V1    S    
C13   C29   A    
C34   C37   A    
O7    C3    A    
C11   C23   A    
C35   C36   A    
O8    C4    A    
O12   V4    S    
O19   V2    S    
C40   H12   S    
C15   O23   S    
O5    V1    S    
N1    H14   S    
C39   C43   A    
O7    V3    S    
C38   C42   A    
C26   C34   A    
C5    C47   S    
C1    C12   S    
C2    C11   S    
C23   C27   A    
C32   C44   A    
O1    V4    S    
C45   C46   T    
O2    V3    S    
C6    C48   S    
C20   H7    S    
O15   C7    A    
C4    C9    S    
O6    C2    A    
O10   V2    S    
C31   C43   A    
C47   C48   T    
C14   C30   A    
C21   C25   A    
C43   N3    S    
O12   C1    A    
N4    H20   S    
O14   V2    S    
O6    V2    S    
N2    H16   S    
C12   C20   A    
C27   C35   A    
C24   H3    S    
C16   C20   A    
N3    H17   S    
C29   C41   A    
O16   V4    S    
C19   H8    S    
C18   H5    S    
C7    C45   S    
C21   H2    S    
O14   C6    A    
O18   V3    S    
C38   H10   S    
C14   O22   S    
C15   C19   A    
C41   N1    S    
C30   C42   A    
C44   N4    S    
C22   C26   A    
O22   H22   S    
C9    C17   A    
C16   O24   S    
C33   C34   A    
O8    V4    S    
O17   V4    S    
C25   C29   A    
C12   C24   A    
C27   C31   A    
C13   C17   A    
N4    H19   S    
O13   C5    A    
C23   H4    S    
O11   V3    S    
C37   C41   A    
C24   C28   A    
N2    H15   S    
O24   H24   S    
C28   C32   A    
