data_mof_unit_67164.cif
_audit_creation_date              2013-03-05T15:58:59-0500
_audit_creation_method            fapswitch 2.2
_symmetry_space_group_name_H-M    P1
_symmetry_Int_Tables_number       1
_space_group_crystal_system       triclinic
_cell_length_a                    8.280783
_cell_length_b                    12.887637
_cell_length_c                    15.095056
_cell_angle_alpha                 97.216474
_cell_angle_beta                  96.865299
_cell_angle_gamma                 98.260536
_cell_volume                      1565.99138957

loop_
_atom_site_label
_atom_site_type_symbol
_atom_site_description
_atom_site_fract_x
_atom_site_fract_y
_atom_site_fract_z
_atom_type_partial_charge
P1    P     P_3+3 0.998730 0.403530 0.291970 0.501264
O1    O     O_2   0.827880 0.435260 0.277750 -0.363813
O2    O     O_3   0.100280 0.438960 0.391170 -0.373409
O3    O     O_3   0.625580 0.634130 0.333250 -0.316526
O4    O     O_2   0.715948 0.557805 0.182521 -0.383430
O5    O     O_3   0.931756 0.267092 0.273408 -0.548656
O6    O     O_3   0.656194 0.750915 0.199778 -0.504023
H1    H     H_    0.495817 0.795557 0.289853 0.011444
C1    C     C_3   0.618641 0.928965 0.241379 0.004789
H2    H     H_    0.729701 0.938795 0.292741 0.134692
P2    P     P_3+3 0.687380 0.751030 0.571310 0.470382
P3    P     P_3+3 0.107981 0.825862 0.374546 0.503619
O7    O     O_2   0.857130 0.766340 0.543890 -0.368146
O8    O     O_3   0.056550 0.691050 0.379010 -0.359179
O9    O     O_2   0.985500 0.880230 0.426673 -0.342070
O10   O     O_3   0.728594 0.790166 0.687184 -0.588438
O11   O     O_3   0.056323 0.846612 0.262296 -0.523031
C2    C     C_3   0.077294 0.756544 0.204226 0.340772
H3    H     H_    0.998346 0.685068 0.218366 0.159019
H4    H     H_    0.205995 0.742707 0.213749 -0.015372
C3    C     C_3   0.021277 0.765574 0.105395 -0.676629
H5    H     H_    0.891397 0.778127 0.098674 0.261450
C4    C     C_3   0.249577 0.782492 0.658330 0.213133
H6    H     H_    0.381440 0.796201 0.649452 0.084140
H7    H     H_    0.176071 0.737789 0.595285 0.139185
C5    C     C_3   0.189326 0.887556 0.675064 -0.003201
H8    H     H_    0.265588 0.938671 0.734310 0.180026
H9    H     H_    0.060802 0.874262 0.690160 0.186656
Ba1   Ba    Ba6+2 0.843750 0.550210 0.455600 1.615227
C6    C     C_3   0.029542 0.218894 0.331977 0.319361
H10   H     H_    0.985933 0.224876 0.398784 0.089072
H11   H     H_    0.158301 0.256101 0.338677 0.104120
C7    C     C_3   0.017592 0.103699 0.292567 -0.738591
H12   H     H_    0.888448 0.074049 0.265048 0.220560
H13   H     H_    0.055614 0.057402 0.346181 0.195719
C8    C     C_3   0.778597 0.708105 0.730022 0.127582
H14   H     H_    0.887995 0.682968 0.703336 0.083382
H15   H     H_    0.676236 0.639948 0.720448 0.121898
C9    C     C_3   0.826043 0.750637 0.830716 -0.014241
H16   H     H_    0.943769 0.806452 0.838808 0.185452
P4    P     P_3+3 0.190990 0.596560 0.708040 0.516531
O12   O     O_2   0.361830 0.564780 0.722310 -0.361615
O13   O     O_3   0.089430 0.561130 0.608830 -0.383567
O14   O     O_3   0.564130 0.365960 0.666760 -0.346251
O15   O     O_3   0.233735 0.733988 0.735097 -0.563870
P5    P     P_3+3 0.081384 0.170023 0.611662 0.557595
O16   O     O_3   0.601940 0.368240 0.453770 -0.392581
O17   O     O_3   0.133170 0.309040 0.621000 -0.292680
O18   O     O_2   0.197187 0.123318 0.550824 -0.377763
O19   O     O_3   0.139642 0.126334 0.714825 -0.522624
Ba2   Ba    Ba6+2 0.346090 0.449880 0.544410 1.627395
P6    P     P_3+3 0.586861 0.622077 0.216909 0.488888
C10   C     C_3   0.540394 0.813645 0.226055 0.312827
H17   H     H_    0.436257 0.801918 0.171492 0.128213
H18   H     H_    0.532319 0.978332 0.268910 0.159205
O20   O     O_3   0.587780 0.631850 0.546230 -0.385331
C11   C     C_3   0.462419 0.293808 0.263967 0.443893
H19   H     H_    0.340188 0.318400 0.262388 -0.021793
H20   H     H_    0.556793 0.360771 0.297478 0.140481
C12   C     C_3   0.494474 0.270527 0.167494 -0.920972
H21   H     H_    0.390688 0.214187 0.126597 0.259136
H22   H     H_    0.507673 0.345662 0.138528 0.232716
H23   H     H_    0.609188 0.235658 0.165689 0.286966
P7    P     P_3+3 0.506018 0.234062 0.422453 0.429464
O21   O     O_2   0.332590 0.233690 0.456160 -0.406568
O22   O     O_3   0.465681 0.201827 0.304836 -0.561276
H24   H     H_    0.028255 0.689882 0.063798 0.155738
C13   C     C_3   0.115511 0.198451 0.788645 1.261877
C14   C     C_3   0.158061 0.151285 0.877289 -0.116770
H25   H     H_    0.202908 0.217305 0.933855 0.098774
P8    P     P_3+3 0.609397 0.366996 0.781957 0.552575
C15   C     C_3   0.567936 0.165510 0.722006 0.459873
H26   H     H_    0.665597 0.198789 0.684401 0.013112
O23   O     O_2   0.489053 0.433799 0.823656 -0.333646
O24   O     O_3   0.549193 0.235299 0.798936 -0.450105
H27   H     H_    0.450376 0.149374 0.675535 0.087746
H28   H     H_    0.743000 0.056551 0.739146 0.159913
C16   C     C_3   0.612760 0.060143 0.746665 0.104541
H29   H     H_    0.540979 0.992776 0.698022 -0.020595
C17   C     C_R   0.826734 0.424983 0.830024 0.071700
C18   C     C_R   0.894937 0.431848 0.923604 -0.157377
C19   C     C_R   0.046398 0.448594 0.108786 -0.089780
C20   C     C_R   0.893697 0.387451 0.077864 -0.054913
C21   C     C_R   0.815830 0.379873 0.989529 -0.077318
C22   C     C_R   0.111896 0.462502 0.202107 0.118266
H30   H     H_    0.830313 0.344450 0.123694 0.162445
C23   C     C_R   0.268697 0.523107 0.229622 0.153502
C24   C     C_R   0.078972 0.530110 0.796058 0.178372
C25   C     C_R   0.143440 0.542239 0.889747 -0.059142
C26   C     C_R   0.056986 0.490183 0.952646 0.049802
C27   C     C_R   0.298486 0.600197 0.920988 -0.082698
C28   C     C_R   0.378079 0.599943 0.007507 -0.033437
C29   C     C_R   0.297246 0.552913 0.073779 -0.131577
C30   C     C_R   0.133307 0.497869 0.045341 0.040043
C31   C     C_R   0.367903 0.561580 0.167229 0.017975
C32   C     C_R   0.924721 0.466466 0.767888 0.223970
H31   H     H_    0.366104 0.641762 0.876093 0.186321
C33   C     C_R   0.772042 0.176454 0.520839 -0.470745
C34   C     C_R   0.420845 0.810356 0.465310 -0.478071
C35   C     C_R   0.390191 0.984227 0.427721 -0.216788
C36   C     C_R   0.324746 0.877579 0.425238 0.251379
C37   C     C_R   0.580357 0.848168 0.511338 0.276811
C38   C     C_R   0.646661 0.958618 0.515128 -0.093725
C39   C     C_R   0.549641 0.026868 0.472179 -0.107476
C40   C     C_R   0.614267 0.136747 0.476526 0.255900
C41   C     C_R   0.868935 0.111483 0.560912 0.244673
C42   C     C_R   0.806133 0.003818 0.560012 -0.202587
H32   H     H_    0.314161 0.033911 0.396176 0.200939
H33   H     H_    0.882600 0.956911 0.594941 0.213941
H34   H     H_    0.821704 0.259344 0.523109 0.191511
H35   H     H_    0.368177 0.728152 0.463444 0.195487
O25   O     O_3   0.193137 0.936662 0.598334 -0.692359
H36   H     H_    0.309960 0.966848 0.598293 0.319092
C43   C     C_2   0.119941 0.092359 0.217671 1.229269
O26   O     O_2   0.094703 0.138267 0.152582 -0.593734
O27   O     O_R   0.245092 0.030685 0.223068 -0.799893
H37   H     H_    0.311553 0.034071 0.171024 0.331332
O28   O     O_3   0.852968 0.668808 0.880143 -0.809235
H38   H     H_    0.748468 0.617847 0.869314 0.317123
C44   C     C_2   0.698157 0.809070 0.868364 1.182528
O29   O     O_2   0.554931 0.790646 0.832265 -0.671490
O30   O     O_R   0.743744 0.882841 0.946355 -0.724586
H39   H     H_    0.647379 0.915681 0.966237 0.352073
O31   O     O_3   0.656261 0.961629 0.159965 -0.686621
H40   H     H_    0.758499 0.934316 0.147290 0.386945
O32   O     O_3   0.222570 0.293616 0.792076 -0.657702
H41   H     H_    0.197668 0.344022 0.841749 0.272390
O33   O     O_3   0.951668 0.217505 0.777670 -0.875255
H42   H     H_    0.927022 0.247439 0.837138 0.248459
O34   O     O_3   0.283013 0.089727 0.868088 -0.694258
H43   H     H_    0.300961 0.057663 0.924244 0.318816
C45   C     C_2   0.010291 0.085940 0.902233 1.051972
O35   O     O_2   0.948224 0.002600 0.855112 -0.635906
O36   O     O_R   0.944384 0.122812 0.978779 -0.722511
H44   H     H_    0.845851 0.073139 0.990410 0.411375
O37   O     O_3   0.591733 0.048910 0.835788 -0.629372
H45   H     H_    0.514092 0.982408 0.834044 0.355465
C46   C     C_2   0.652334 0.314119 0.975965 1.135386
O38   O     O_2   0.528022 0.355052 0.973802 -0.599371
O39   O     O_R   0.642761 0.206565 0.982323 -0.748749
H46   H     H_    0.527664 0.171961 0.987560 0.347216
C47   C     C_2   0.552372 0.639707 0.018668 1.066434
O40   O     O_2   0.599878 0.734590 0.027053 -0.621268
O41   O     O_R   0.661292 0.567692 0.012100 -0.771766
H47   H     H_    0.779865 0.602772 0.024147 0.337094
O42   O     O_3   0.323885 0.549489 0.320084 -0.700059
H48   H     H_    0.374677 0.489036 0.338343 0.317706
O43   O     O_3   0.870414 0.440574 0.677300 -0.688346
H49   H     H_    0.818615 0.500776 0.659375 0.313304
C48   C     C_2   0.120946 0.850811 0.066805 1.185597
O44   O     O_2   0.061977 0.929009 0.050542 -0.604774
O45   O     O_R   0.273304 0.836099 0.041006 -0.808740
H50   H     H_    0.326147 0.897751 0.013150 0.325380

loop_
_geom_bond_atom_site_label_1
_geom_bond_atom_site_label_2
_geom_bond_distance
_ccdc_geom_bond_type
P8    O24   1.758295 S    
C24   C32   1.402350 A    
C29   C30   1.427545 A    
C33   H34   1.082891 S    
C23   O42   1.370634 S    
C13   O32   1.397659 S    
C2    C3    1.532327 S    
P4    O13   1.604765 S    
P4    O12   1.526860 D    
C11   O22   1.405515 S    
C15   H27   1.106770 S    
O33   H42   0.987787 S    
C43   O26   1.221291 D    
P7    C40   1.856878 S    
C10   H17   1.098320 S    
P5    O18   1.537142 D    
C7    C43   1.496984 S    
O32   H41   0.989858 S    
C33   C40   1.388962 A    
O3    P6    1.730208 S    
O1    Ba1   2.877462 S    
C4    O15   1.394821 S    
O7    Ba1   2.913817 S    
C8    H14   1.107540 S    
O6    P6    1.738644 S    
C2    H3    1.109592 S    
C6    H10   1.108544 S    
C17   C18   1.444199 A    
C11   H20   1.101544 S    
C41   C42   1.407884 A    
C9    C44   1.508997 S    
C35   C39   1.408098 A    
C1    O31   1.402989 S    
O27   H37   1.013435 S    
P6    C31   1.891978 S    
C12   H22   1.108227 S    
P1    O1    1.526619 D    
Ba2   O21   2.914154 S    
C4    C5    1.511448 S    
O2    Ba1   2.921098 S    
O28   H38   0.991355 S    
C39   C40   1.430552 A    
C15   C16   1.535932 S    
C13   C14   1.561178 S    
O17   Ba2   2.799077 S    
C45   O35   1.218898 D    
C23   C31   1.411736 A    
P3    O11   1.760396 S    
C4    H6    1.107692 S    
O4    P6    1.541829 D    
C1    H18   1.106215 S    
C17   C32   1.416769 A    
C28   C47   1.442812 S    
C1    H2    1.111002 S    
C13   O33   1.407382 S    
C2    H4    1.101229 S    
O3    Ba1   2.847832 S    
O12   Ba2   2.878014 S    
C21   C46   1.467480 S    
C29   C31   1.445337 A    
C3    H5    1.105086 S    
C3    H24   1.104608 S    
C42   H33   1.074548 S    
C14   H25   1.114373 S    
C15   O24   1.415045 S    
P8    C17   1.867895 S    
C44   O30   1.393488 S    
C26   C30   1.450129 A    
C22   C23   1.402368 A    
P1    C22   1.911568 S    
C32   O43   1.370657 S    
P5    O17   1.764909 S    
C35   H32   1.074203 S    
P1    O5    1.742632 S    
O43   H49   0.989835 S    
O16   P7    1.776180 S    
O2    Ba2   2.867760 S    
C16   H29   1.110600 S    
C14   O34   1.400655 S    
C11   C12   1.512184 S    
O16   Ba2   2.905089 S    
H28   C16   1.104749 S    
C27   H31   1.074938 S    
O14   P8    1.732443 S    
P1    O2    1.604608 S    
P7    O22   1.751954 S    
P2    O10   1.736806 S    
C20   C21   1.395333 A    
P3    O9    1.547659 D    
C34   H35   1.081736 S    
C20   H30   1.077373 S    
P1    Ba1   3.406352 S    
O11   C2    1.408750 S    
C5    H8    1.109053 S    
C3    C48   1.497477 S    
O39   H46   1.009089 S    
C46   O39   1.393009 S    
C18   C26   1.429944 A    
O14   Ba2   2.847175 S    
O5    C6    1.390868 S    
Ba1   O16   2.851526 S    
C19   C20   1.384885 A    
C12   H23   1.109425 S    
C48   O45   1.395352 S    
C1    C10   1.511026 S    
O6    C10   1.401276 S    
O8    Ba1   2.798496 S    
C19   C30   1.422903 A    
C19   C22   1.427119 A    
C5    O25   1.389322 S    
C27   C28   1.391389 A    
C18   C21   1.437120 A    
C44   O29   1.221484 D    
C38   C42   1.417086 A    
O42   H48   0.990086 S    
Ba1   Ba2   4.547193 S    
P4    C24   1.926482 S    
C6    C7    1.513126 S    
C34   C36   1.401569 A    
C48   O44   1.220345 D    
C8    C9    1.533368 S    
Ba2   O20   2.850974 S    
P3    O8    1.740166 S    
C15   H26   1.109690 S    
H1    C10   1.111161 S    
P8    O23   1.546247 D    
C43   O27   1.394700 S    
O36   H44   1.009348 S    
Ba1   O20   2.905843 S    
C9    O28   1.394268 S    
O25   H36   0.989570 S    
P5    O19   1.758847 S    
C5    H9    1.108764 S    
C33   C41   1.383852 A    
O41   H47   1.005313 S    
P7    O21   1.579455 D    
C8    H15   1.111661 S    
O34   H43   0.993445 S    
O30   H39   1.014075 S    
P3    C36   1.857803 S    
O10   C8    1.393445 S    
C6    H11   1.091847 S    
P2    O7    1.505342 D    
O13   Ba2   2.921946 S    
C11   H19   1.101736 S    
C16   O37   1.399592 S    
C14   C45   1.497335 S    
P5    C41   1.844509 S    
C28   C29   1.418460 A    
C7    H13   1.106563 S    
C7    H12   1.094860 S    
P2    C37   1.893107 S    
C47   O41   1.386905 S    
C4    H7    1.109542 S    
C37   C38   1.441655 A    
C46   O38   1.221209 D    
P2    O20   1.611816 S    
C9    H16   1.109349 S    
C34   C37   1.405534 A    
C24   C25   1.431610 A    
P2    Ba1   3.434191 S    
C45   O36   1.395029 S    
C25   C27   1.385607 A    
C38   C39   1.435701 A    
P4    O15   1.741413 S    
C47   O40   1.215340 D    
C12   H21   1.108222 S    
C35   C36   1.397267 A    
O45   H50   1.013719 S    
C25   C26   1.431292 A    
O19   C13   1.411331 S    
P4    Ba2   3.406892 S    
Ba1   O13   2.866999 S    
O37   H45   0.990227 S    
O31   H40   0.992324 S    
