data_mof_unit_48297.cif
_audit_creation_date              2012-12-10T20:27:53-0500
_audit_creation_method            fapswitch 2.2
_symmetry_space_group_name_H-M    P1
_symmetry_Int_Tables_number       1
_space_group_crystal_system       triclinic
_cell_length_a                    12.884882
_cell_length_b                    10.679821
_cell_length_c                    9.934962
_cell_angle_alpha                 90.087628
_cell_angle_beta                  96.877062
_cell_angle_gamma                 91.413034
_cell_volume                      1356.86995844

loop_
_atom_site_label
_atom_site_type_symbol
_atom_type_description
_atom_site_fract_x
_atom_site_fract_y
_atom_site_fract_z
_atom_type_partial_charge
C1    C     C_R   0.498105 0.260262 0.499798 0.885260
C2    C     C_R   0.445562 0.933279 0.382822 -0.207629
C3    C     C_R   0.487037 0.871050 0.500455 -0.085602
C4    C     C_R   0.298397 0.497117 0.473669 0.961012
C5    C     C_R   0.513071 0.936707 0.621256 0.124139
C6    C     C_3   0.610594 0.932220 0.718937 -0.455460
C7    C     C_3   0.611734 0.074070 0.717885 -0.482262
C8    C     C_R   0.423041 0.437442 0.059043 0.115875
C9    C     C_R   0.572172 0.569089 0.082275 0.437552
C10   C     C_R   0.572365 0.568736 0.940114 0.417645
C11   C     C_R   0.422850 0.437632 0.916892 0.146792
C12   C     C_R   0.025812 0.461877 0.556179 -0.001613
C13   C     C_3   0.399006 0.300322 0.907911 -0.432205
C14   C     C_3   0.399613 0.300247 0.060613 -0.495854
C15   C     C_R   0.498254 0.739612 0.499922 0.865289
C16   C     C_R   0.701264 0.500153 0.526431 0.872556
C17   C     C_R   0.812548 0.493917 0.542345 -0.080093
C18   C     C_R   0.186052 0.496274 0.458211 -0.150753
C19   C     C_R   0.025569 0.571715 0.338381 0.455271
C20   C     C_R   0.132938 0.555465 0.346075 -0.415770
C21   C     C_R   0.133307 0.446927 0.562325 0.369905
C22   C     C_R   0.972527 0.526512 0.444667 0.063849
C23   C     C_R   0.866114 0.542921 0.440276 -0.173349
C24   C     C_R   0.863927 0.429826 0.651793 -0.171006
C25   C     C_R   0.970118 0.412448 0.658116 -0.168686
C26   C     C_R   0.513623 0.064429 0.621009 0.128945
C27   C     C_R   0.487307 0.128079 0.500222 -0.091350
C28   C     C_R   0.445355 0.062893 0.382908 -0.213928
H1    H     H_    0.677177 0.891403 0.673770 0.206483
H2    H     H_    0.678626 0.116236 0.671230 0.204124
H3    H     H_    0.626332 0.658685 0.244641 0.370974
H4    H     H_    0.629331 0.651616 0.792686 0.372646
H5    H     H_    0.320664 0.278179 0.852714 0.240226
H6    H     H_    0.321620 0.278633 0.093288 0.206178
H7    H     H_    0.020866 0.657171 0.164478 0.340719
H8    H     H_    0.175696 0.593340 0.267169 0.179277
H9    H     H_    0.169546 0.417688 0.753371 0.322182
H10   H     H_    0.595636 0.892111 0.818179 0.234945
H11   H     H_    0.463648 0.246645 0.873401 0.205445
H12   H     H_    0.465261 0.246982 0.113690 0.215941
H13   H     H_    0.821379 0.389234 0.729480 0.169447
H14   H     H_    0.006836 0.358340 0.741780 0.160428
H15   H     H_    0.416998 0.111385 0.290795 0.162509
H16   H     H_    0.418033 0.882666 0.290294 0.170840
H17   H     H_    0.823896 0.592298 0.356386 0.232424
H18   H     H_    0.598769 0.115267 0.817004 0.204903
N1    N     N_R   0.499290 0.499140 0.142710 -0.201307
N2    N     N_R   0.499290 0.499180 0.857070 -0.206649
O1    O     O_R   0.500010 0.316790 0.614690 -0.612993
O2    O     O_3   0.649439 0.639569 0.889861 -0.716992
O3    O     O_3   0.971559 0.632176 0.229578 -0.742202
O4    O     O_3   0.188205 0.382773 0.667220 -0.771017
O5    O     O_R   0.500000 0.316760 0.385350 -0.619278
O6    O     O_R   0.346360 0.499990 0.595720 -0.566569
O7    O     O_R   0.346350 0.499960 0.366370 -0.631370
O8    O     O_R   0.500000 0.683240 0.614650 -0.647539
O9    O     O_R   0.499990 0.683210 0.385310 -0.653446
O10   O     O_R   0.653650 0.500040 0.633630 -0.628516
O11   O     O_R   0.653640 0.500010 0.404280 -0.620491
O12   O     O_3   0.648957 0.640732 0.156184 -0.706362
Zn1   Zn    Zn3+2 0.500010 0.500020 0.653130 0.960858
Zn2   Zn    Zn3+2 0.499990 0.499980 0.346870 0.945656

loop_
_geom_bond_atom_site_label_1
_geom_bond_atom_site_label_2
_ccdc_geom_bond_type
H3    O12   S    
C25   H14   S    
C2    C28   A    
C6    H10   S    
C14   H6    S    
C6    C7    S    
C23   H17   S    
O6    Zn1   S    
C12   C22   A    
C18   C21   A    
C15   O9    A    
C9    C10   A    
C28   H15   S    
C19   C20   A    
C12   C25   A    
C9    O12   S    
C4    C18   S    
C15   O8    A    
C19   C22   A    
O10   Zn1   S    
C2    C3    A    
N2    Zn1   S    
C8    N1    A    
O9    Zn2   S    
C7    H2    S    
C16   O10   A    
C13   C14   S    
C24   C25   A    
H7    O3    S    
C24   H13   S    
C11   C13   S    
H4    O2    S    
C26   C27   A    
C17   C23   A    
C7    C26   S    
N1    Zn2   S    
C8    C11   A    
C9    N1    A    
C18   C20   A    
C4    O7    A    
C10   N2    A    
C5    C6    S    
C13   H11   S    
C17   C24   A    
O1    Zn1   S    
C14   H12   S    
C5    C26   A    
C10   O2    S    
C7    H18   S    
C19   O3    S    
C6    H1    S    
C3    C15   S    
O7    Zn2   S    
C13   H5    S    
O5    Zn2   S    
C27   C28   A    
C1    C27   S    
H9    O4    S    
C1    O5    A    
O8    Zn1   S    
O11   Zn2   S    
C8    C14   S    
C11   N2    A    
C4    O6    A    
C22   C23   A    
C1    O1    A    
C12   C21   A    
C21   O4    S    
C2    H16   S    
C16   C17   S    
C3    C5    A    
C16   O11   A    
C20   H8    S    
