data_mof_unit_54050.cif
_audit_creation_date              2012-12-10T17:48:49-0500
_audit_creation_method            fapswitch 2.2
_symmetry_space_group_name_H-M    P1
_symmetry_Int_Tables_number       1
_space_group_crystal_system       triclinic
_cell_length_a                    10.797391
_cell_length_b                    14.765785
_cell_length_c                    14.677222
_cell_angle_alpha                 65.060076
_cell_angle_beta                  104.424849
_cell_angle_gamma                 103.846616
_cell_volume                      2030.75654052

loop_
_atom_site_label
_atom_site_type_symbol
_atom_type_description
_atom_site_fract_x
_atom_site_fract_y
_atom_site_fract_z
_atom_type_partial_charge
C1    C     C_R   0.480019 0.119600 0.311366 0.859154
C2    C     C_3   0.879570 0.999552 0.503660 -0.114947
C3    C     C_3   0.902937 0.888868 0.535234 -0.047863
C4    C     C_3   0.973342 0.043031 0.581840 0.090514
C5    C     C_R   0.478457 0.187367 0.202467 -0.114153
C6    C     C_R   0.539726 0.813851 0.796775 -0.038554
C7    C     C_R   0.485448 0.223327 0.026196 -0.217463
C8    C     C_R   0.471692 0.153270 0.124148 0.267676
C9    C     C_R   0.493886 0.291765 0.178040 -0.270542
C10   C     C_R   0.512760 0.363343 0.080316 0.105629
C11   C     C_R   0.506858 0.327029 0.003930 0.095015
C12   C     C_R   0.260317 0.997913 0.503011 0.850599
C13   C     C_R   0.535914 0.469697 0.055915 0.029165
C14   C     C_R   0.540638 0.537231 0.953049 0.059036
C15   C     C_R   0.540131 0.497432 0.880477 -0.174420
C16   C     C_R   0.523481 0.394338 0.905733 -0.167606
C17   C     C_R   0.557422 0.510780 0.130911 -0.242588
C18   C     C_R   0.575177 0.614548 0.105650 0.244030
C19   C     C_R   0.567712 0.681443 0.003116 0.086133
C20   C     C_R   0.547898 0.642646 0.926089 0.049471
C21   C     C_R   0.578060 0.786356 0.975419 -0.120533
C22   C     C_R   0.564939 0.851869 0.873254 -0.157227
C23   C     C_R   0.522521 0.880536 0.688164 0.819854
C24   C     C_R   0.530541 0.710184 0.823631 -0.196536
C25   C     C_R   0.714419 0.287186 0.670847 -0.271218
C26   C     C_R   0.681019 0.204960 0.642194 0.475680
C27   C     C_R   0.520936 0.286046 0.507414 -0.010567
C28   C     C_R   0.550893 0.372659 0.534391 -0.075713
C29   C     C_R   0.650209 0.370999 0.618471 0.005983
C30   C     C_R   0.485194 0.459377 0.482697 0.100412
C31   C     C_R   0.520202 0.542235 0.516402 0.044564
C32   C     C_R   0.618491 0.535140 0.601323 -0.339315
C33   C     C_R   0.684534 0.452189 0.650676 0.443816
C34   C     C_R   0.740703 0.999399 0.501975 0.854908
C35   C     C_R   0.384345 0.465438 0.399280 -0.159880
C36   C     C_R   0.318472 0.547659 0.351679 -0.115343
C37   C     C_R   0.351581 0.628178 0.383654 0.118525
C38   C     C_R   0.453644 0.628646 0.465129 0.016310
C39   C     C_R   0.282563 0.708843 0.333446 -0.318484
C40   C     C_R   0.314379 0.791214 0.361773 0.491511
C41   C     C_R   0.483791 0.716333 0.490355 -0.058274
C42   C     C_3   0.063721 0.080280 0.403040 0.139089
C43   C     C_3   0.914314 0.064237 0.394557 0.241258
C44   C     C_3   0.040936 0.889622 0.521038 0.332890
C45   C     C_3   0.112422 0.023810 0.593429 -0.581453
C46   C     C_3   0.122361 0.997361 0.503416 -0.086788
Cu1   Cu    Cu3+1 0.465900 0.918260 0.475680 1.028379
Cu2   Cu    Cu3+1 0.534100 0.081740 0.524320 1.001961
H1    H     H_    0.942147 0.004777 0.657545 0.234963
H2    H     H_    0.091744 0.835358 0.592046 0.079766
H3    H     H_    0.522925 0.367131 0.847537 0.163849
H4    H     H_    0.504995 0.683301 0.762712 0.146688
H5    H     H_    0.571956 0.931978 0.854242 0.185693
H6    H     H_    0.481268 0.196366 0.967093 0.172700
H7    H     H_    0.489891 0.315553 0.237002 0.164951
H8    H     H_    0.102932 0.154895 0.408838 0.124306
H9    H     H_    0.556442 0.544103 0.803735 0.150991
H10   H     H_    0.565095 0.464391 0.211061 0.173265
H11   H     H_    0.594776 0.818793 0.031934 0.196735
H12   H     H_    0.562945 0.724046 0.549184 0.160866
H13   H     H_    0.240699 0.548433 0.288346 0.149753
H14   H     H_    0.790606 0.284336 0.735564 0.213317
H15   H     H_    0.445543 0.280894 0.445428 0.138963
H16   H     H_    0.882957 0.139618 0.367244 0.075482
H17   H     H_    0.645020 0.592224 0.633077 0.161744
H18   H     H_    0.352945 0.407340 0.368854 0.129589
H19   H     H_    0.203490 0.708288 0.271267 0.176101
H20   H     H_    0.831383 0.853269 0.486290 0.220261
H21   H     H_    0.136770 0.960620 0.667397 0.201936
H22   H     H_    0.183263 0.091247 0.596625 0.250295
N1    N     N_R   0.585360 0.204570 0.560800 -0.200814
N2    N     N_R   0.414550 0.795430 0.439160 -0.212332
O1    O     O_R   0.455060 0.022100 0.338110 -0.500899
O2    O     O_R   0.512640 0.160150 0.379180 -0.603571
O3    O     O_R   0.288900 0.930980 0.479450 -0.524379
O4    O     O_R   0.346480 0.069030 0.520520 -0.604406
O5    O     O_R   0.487360 0.839850 0.620820 -0.607920
O6    O     O_R   0.544940 0.977900 0.661890 -0.556984
O7    O     O_R   0.653520 0.930970 0.479480 -0.570391
O8    O     O_R   0.711100 0.069020 0.520550 -0.529272
Br1   Br    Br    0.119766 0.100715 0.278240 -0.436630
Br2   Br    Br    0.872792 0.800853 0.674025 -0.640814
Br3   Br    Br    0.605702 0.659516 0.215965 -0.574951
Br4   Br    Br    0.449389 0.014316 0.141767 -0.480251
O9    O     O_3   0.776300 0.446232 0.737092 -0.584082
C47   C     C_3   0.889529 0.513964 0.707945 0.045603
H23   H     H_    0.872956 0.593255 0.680808 0.183273
H24   H     H_    0.921976 0.503414 0.647057 0.140280
C48   C     C_3   0.997559 0.495090 0.799830 -0.704993
H25   H     H_    0.017872 0.416602 0.828259 0.250444
H26   H     H_    0.086818 0.548728 0.777930 0.195556
H27   H     H_    0.968965 0.506202 0.861618 0.264653
Br5   Br    Br    0.211343 0.895384 0.284742 -0.339996
Br6   Br    Br    0.774544 0.094565 0.725734 -0.468873
O10   O     O_3   0.853982 0.012053 0.328879 -0.528657
C49   C     C_3   0.797617 0.077284 0.232921 0.106596
H28   H     H_    0.860027 0.151839 0.203519 0.154503
H29   H     H_    0.703731 0.089966 0.239418 0.137881
C50   C     C_3   0.776316 0.028087 0.156546 -0.602102
H30   H     H_    0.715127 0.952921 0.183424 0.268578
H31   H     H_    0.727924 0.076801 0.081277 0.197206
H32   H     H_    0.870678 0.017842 0.147756 0.275210
O11   O     O_3   0.031999 0.863407 0.436813 -0.481269
C51   C     C_3   0.004681 0.757055 0.465097 0.054970
H33   H     H_    0.960618 0.715692 0.535448 0.106311
H34   H     H_    0.095952 0.727823 0.478245 0.155851
C52   C     C_3   0.910048 0.732668 0.379585 -0.650327
H35   H     H_    0.950994 0.768747 0.307978 0.277767
H36   H     H_    0.889600 0.649579 0.400750 0.200330
H37   H     H_    0.817890 0.760712 0.366532 0.266535
Br7   Br    Br    0.976956 0.188531 0.542511 -0.521945

loop_
_geom_bond_atom_site_label_1
_geom_bond_atom_site_label_2
_ccdc_geom_bond_type
C24   H4    S    
C26   Br6   S    
C15   H9    S    
Cu2   O4    S    
O10   C49   S    
C16   H3    S    
Cu1   O7    S    
C40   Br5   S    
C51   H34   S    
C7    C8    A    
O9    C47   S    
C7    C11   A    
C30   C35   A    
C1    C5    S    
C1    O2    A    
C28   C29   A    
C19   C21   A    
C3    H20   S    
C21   H11   S    
C30   C31   A    
C47   H24   S    
C15   C16   A    
C6    C22   A    
C49   C50   S    
C29   C33   A    
C18   C19   A    
C42   C46   S    
Cu2   O6    S    
C33   O9    S    
C42   H8    S    
C50   H30   S    
C49   H29   S    
C43   O10   S    
C52   H35   S    
C9    H7    S    
C48   H26   S    
C9    C10   A    
C17   H10   S    
C34   O8    A    
C2    C34   S    
C21   C22   A    
C26   N1    A    
C52   H36   S    
C42   Br1   S    
C51   H33   S    
C44   O11   S    
C44   C46   S    
C43   H16   S    
C18   Br3   S    
C22   H5    S    
C4    C45   S    
C25   C29   A    
C3    C44   S    
C45   H21   S    
Cu2   O2    S    
Cu1   O1    S    
C38   C41   A    
C12   C46   S    
C39   C40   A    
C47   H23   S    
C35   H18   S    
C25   C26   A    
C45   C46   S    
C47   C48   S    
C35   C36   A    
C2    C4    S    
C5    C9    A    
C37   C38   A    
C14   C20   A    
C34   O7    A    
C11   C16   A    
Cu1   Cu2   S    
C2    C43   S    
C6    C24   A    
C49   H28   S    
C3    Br2   S    
C17   C18   A    
C23   O5    A    
C48   H27   S    
C27   H15   S    
C41   N2    A    
C50   H31   S    
C4    Br7   S    
C12   O4    A    
C52   H37   S    
C42   C43   S    
Cu1   O5    S    
Cu2   N1    S    
C36   H13   S    
O11   C51   S    
C27   N1    A    
C44   H2    S    
C36   C37   A    
C40   N2    A    
C45   H22   S    
C8    Br4   S    
C39   H19   S    
C31   C32   A    
C41   H12   S    
C10   C13   A    
C5    C8    A    
C31   C38   A    
C13   C17   A    
C4    H1    S    
C1    O1    A    
C32   C33   A    
Cu2   O8    S    
C19   C20   A    
C28   C30   A    
C2    C3    S    
Cu1   O3    S    
C37   C39   A    
C6    C23   S    
C25   H14   S    
C23   O6    A    
Cu1   N2    S    
C10   C11   A    
C50   H32   S    
C12   O3    A    
C27   C28   A    
C14   C15   A    
C7    H6    S    
C48   H25   S    
C13   C14   A    
C20   C24   A    
C51   C52   S    
C32   H17   S    
