data_mof_unit_61823.cif
_audit_creation_date              2012-12-10T20:08:34-0500
_audit_creation_method            fapswitch 2.2
_symmetry_space_group_name_H-M    P1
_symmetry_Int_Tables_number       1
_space_group_crystal_system       triclinic
_cell_length_a                    32.090473
_cell_length_b                    32.090493
_cell_length_c                    32.090492
_cell_angle_alpha                 90.000192
_cell_angle_beta                  89.999949
_cell_angle_gamma                 90.000611
_cell_volume                      33046.7597515

loop_
_atom_site_label
_atom_site_type_symbol
_atom_type_description
_atom_site_fract_x
_atom_site_fract_y
_atom_site_fract_z
_atom_type_partial_charge
C1    C     C_R   0.000000 0.580678 0.500000 0.882305
C2    C     C_R   1.000000 0.500000 0.419322 0.882405
C3    C     C_1   0.837813 0.499999 0.000000 0.269679
C4    C     C_1   0.499998 0.837813 0.000000 0.269432
C5    C     C_1   0.500000 0.000000 0.837813 0.269680
C6    C     C_1   0.500001 0.162187 1.000000 0.269432
C7    C     C_1   0.500000 1.000000 0.162187 0.269682
C8    C     C_1   0.837813 0.000002 0.500000 0.269552
C9    C     C_1   0.999998 0.162187 0.500001 0.269448
C10   C     C_1   0.162187 0.999998 0.500000 0.269550
C11   C     C_1   0.000001 0.837813 0.500000 0.269448
C12   C     C_1   0.500000 0.000000 0.662187 0.269586
C13   C     C_R   0.500000 0.000000 0.580678 0.883082
C14   C     C_1   0.662187 0.000001 0.500000 0.269630
C15   C     C_1   0.500000 1.000000 0.337813 0.269584
C16   C     C_1   0.337813 0.999999 0.500000 0.269632
C17   C     C_1   0.999998 0.337813 0.500000 0.269317
C18   C     C_1   1.000000 0.500000 0.337813 0.269514
C19   C     C_1   0.000001 0.662187 0.500000 0.269310
C20   C     C_1   0.000000 0.499999 0.662187 0.269513
C21   C     C_1   0.337813 0.500002 0.999999 0.269437
C22   C     C_1   0.499998 0.662187 0.000001 0.269530
C23   C     C_1   0.662187 0.499998 0.000000 0.269438
C24   C     C_R   1.000000 0.500000 0.580678 0.882380
C25   C     C_1   0.500002 0.337813 1.000000 0.269531
C26   C     C_1   1.000000 0.500000 0.375103 -0.098084
C27   C     C_1   0.375102 0.500001 1.000000 -0.098240
C28   C     C_1   0.000000 0.500000 0.624897 -0.098081
C29   C     C_1   0.624897 0.499998 0.000000 -0.098248
C30   C     C_1   0.499999 0.624897 0.000000 -0.098058
C31   C     C_1   0.500000 0.000000 0.624897 -0.098131
C32   C     C_1   0.500001 0.375102 1.000000 -0.098068
C33   C     C_1   0.500000 1.000000 0.375103 -0.098086
C34   C     C_1   0.624897 0.000001 0.500000 -0.097998
C35   C     C_R   0.500000 0.080678 1.000000 0.882934
C36   C     C_1   0.999999 0.375102 0.500000 -0.098358
C37   C     C_1   0.375102 0.999999 0.500000 -0.098036
C38   C     C_1   0.000001 0.624897 0.500000 -0.098323
C39   C     C_1   0.500000 0.000000 0.875102 -0.097955
C40   C     C_1   0.875102 0.000001 0.500000 -0.098172
C41   C     C_1   0.500000 1.000000 0.124897 -0.098001
C42   C     C_1   0.124897 0.999998 0.500000 -0.098136
C43   C     C_1   0.999998 0.124897 0.500000 -0.098199
C44   C     C_1   1.000000 0.500000 0.124897 -0.098268
C45   C     C_1   0.000001 0.875103 0.500000 -0.098238
C46   C     C_R   0.999999 0.080678 0.500000 0.882729
C47   C     C_1   0.000000 0.500000 0.875103 -0.098270
C48   C     C_1   0.124897 0.500001 0.000000 -0.097996
C49   C     C_1   0.499999 0.875103 0.000000 -0.098303
C50   C     C_1   0.875103 0.499999 0.000000 -0.097987
C51   C     C_1   0.500001 0.124897 1.000000 -0.098292
C52   C     C_R   0.500000 0.919322 1.000000 0.883011
C53   C     C_R   0.000000 0.919322 0.500000 0.883007
C54   C     C_R   0.080678 0.999999 0.500000 0.882717
C55   C     C_R   0.080678 0.500000 0.000000 0.883175
C56   C     C_R   0.919322 0.000000 0.500000 0.882999
C57   C     C_R   0.500000 0.580678 0.000000 0.882477
C58   C     C_R   0.919322 0.500000 0.000000 0.883104
C59   C     C_R   1.000000 0.500000 0.919322 0.883209
C60   C     C_R   0.500000 0.000000 0.919322 0.882737
C61   C     C_R   1.000000 0.500000 0.080678 0.883182
C62   C     C_R   0.500000 1.000000 0.080678 0.883080
C63   C     C_R   0.972261 0.525809 0.228282 0.537439
C64   C     C_R   0.228282 0.526674 0.026910 0.537621
C65   C     C_R   0.027817 0.525724 0.771718 0.537479
C66   C     C_R   0.771718 0.526890 0.973310 0.537644
C67   C     C_R   0.972184 0.474274 0.771718 0.537458
C68   C     C_R   1.000000 0.419322 0.500000 0.882585
C69   C     C_R   0.228282 0.473330 0.973089 0.537656
C70   C     C_R   0.027738 0.474191 0.228282 0.537501
C71   C     C_R   0.771718 0.473106 0.026690 0.537646
C72   C     C_R   0.525927 0.771718 0.027627 0.537525
C73   C     C_R   0.527666 0.974114 0.771718 0.537689
C74   C     C_R   0.526170 0.228282 0.972600 0.537338
C75   C     C_R   0.526634 0.026948 0.228282 0.537618
C76   C     C_R   0.473834 0.228282 0.027401 0.537543
C77   C     C_R   0.472333 0.025886 0.771718 0.537656
C78   C     C_R   0.474068 0.771717 0.972375 0.537341
C79   C     C_R   0.500000 0.419322 1.000000 0.882554
C80   C     C_R   0.473366 0.973051 0.228282 0.537673
C81   C     C_R   0.771717 0.972786 0.473639 0.537613
C82   C     C_R   0.973520 0.228282 0.472899 0.537544
C83   C     C_R   0.228283 0.026350 0.472777 0.537475
C84   C     C_R   0.027328 0.771718 0.473755 0.537354
C85   C     C_R   0.228282 0.973646 0.527224 0.537653
C86   C     C_R   0.026475 0.228283 0.527103 0.537399
C87   C     C_R   0.771718 0.027217 0.526360 0.537466
C88   C     C_R   0.972675 0.771718 0.526245 0.537534
C89   C     C_R   0.472332 0.025885 0.728282 0.537630
C90   C     C_R   0.580678 0.499999 1.000000 0.882590
C91   C     C_R   0.728283 0.027216 0.526362 0.537715
C92   C     C_R   0.526635 0.026947 0.271718 0.537493
C93   C     C_R   0.271718 0.026349 0.472776 0.537489
C94   C     C_R   0.473365 0.973052 0.271718 0.537675
C95   C     C_R   0.728282 0.972787 0.473638 0.537532
C96   C     C_R   0.527667 0.974115 0.728282 0.537484
C97   C     C_R   0.271718 0.973647 0.527225 0.537710
C98   C     C_R   0.026474 0.271718 0.527103 0.537348
C99   C     C_R   0.027737 0.474190 0.271718 0.537621
C100  C     C_R   0.027327 0.728283 0.473754 0.537388
C101  C     C_R   0.580678 0.000000 0.500000 0.882752
C102  C     C_R   0.027817 0.525726 0.728282 0.537468
C103  C     C_R   0.972676 0.728282 0.526246 0.537384
C104  C     C_R   0.972262 0.525810 0.271718 0.537477
C105  C     C_R   0.973521 0.271717 0.472898 0.537373
C106  C     C_R   0.972185 0.474273 0.728282 0.537634
C107  C     C_R   0.271717 0.473329 0.973090 0.537487
C108  C     C_R   0.474067 0.728282 0.972376 0.537528
C109  C     C_R   0.728282 0.526891 0.973311 0.537436
C110  C     C_R   0.526171 0.271718 0.972601 0.537560
C111  C     C_R   0.728282 0.473105 0.026689 0.537497
C112  C     C_R   0.419322 0.500000 0.000000 0.882519
C113  C     C_R   0.525928 0.728283 0.027626 0.537586
C114  C     C_R   0.271718 0.526675 0.026909 0.537462
C115  C     C_R   0.473833 0.271718 0.027400 0.537535
C116  C     C_R   1.000000 0.500000 0.206629 -0.374993
C117  C     C_R   0.206629 0.500002 1.000000 -0.375096
C118  C     C_R   0.000000 0.499999 0.793371 -0.374990
C119  C     C_R   0.793371 0.499998 0.000000 -0.375107
C120  C     C_R   0.499998 0.793371 0.000001 -0.374987
C121  C     C_R   0.499999 0.000000 0.793371 -0.375172
C122  C     C_R   0.500002 0.206629 0.000000 -0.375001
C123  C     C_R   0.419322 1.000000 0.500000 0.883034
C124  C     C_R   0.500000 1.000000 0.206629 -0.375116
C125  C     C_R   0.793371 0.000002 0.500000 -0.375059
C126  C     C_R   0.999997 0.206629 0.500001 -0.375033
C127  C     C_R   0.206629 0.999997 0.500000 -0.375110
C128  C     C_R   0.000002 0.793371 0.500000 -0.374986
C129  C     C_R   0.500000 0.000000 0.706629 -0.375058
C130  C     C_R   0.706629 0.000002 0.500000 -0.375134
C131  C     C_R   0.500000 0.999999 0.293371 -0.375119
C132  C     C_R   0.293371 0.999998 0.500000 -0.375083
C133  C     C_R   0.999998 0.293371 0.500000 -0.374982
C134  C     C_R   0.500000 1.000000 0.419322 0.882742
C135  C     C_R   1.000000 0.500000 0.293371 -0.375130
C136  C     C_R   0.000001 0.706629 0.500000 -0.375045
C137  C     C_R   0.000001 0.499999 0.706629 -0.375136
C138  C     C_R   0.293371 0.500002 0.999999 -0.375077
C139  C     C_R   0.499998 0.706629 0.000001 -0.375121
C140  C     C_R   0.706629 0.499998 0.000000 -0.375060
C141  C     C_R   0.500002 0.293371 0.000000 -0.375103
C142  C     C_1   1.000000 0.500000 0.162187 0.269484
C143  C     C_1   0.162187 0.500001 0.000000 0.269679
C144  C     C_1   0.000000 0.499999 0.837813 0.269484
F1    F     F_    0.945331 0.550871 0.292643 -0.556342
F2    F     F_    0.554531 0.948982 0.707357 -0.556375
F3    F     F_    0.551581 0.292643 0.945998 -0.556311
F4    F     F_    0.552496 0.053110 0.292644 -0.556351
F5    F     F_    0.448424 0.292643 0.054002 -0.556265
F6    F     F_    0.445468 0.051018 0.707357 -0.556252
F7    F     F_    0.448889 0.707356 0.945554 -0.556328
F8    F     F_    0.447504 0.946889 0.292643 -0.556155
F9    F     F_    0.707356 0.946365 0.448042 -0.556275
F10   F     F_    0.947816 0.292642 0.446581 -0.556476
F11   F     F_    0.292644 0.051933 0.446342 -0.556400
F12   F     F_    0.292644 0.552573 0.053035 -0.556374
F13   F     F_    0.053858 0.707357 0.448269 -0.556473
F14   F     F_    0.292643 0.948063 0.553659 -0.556128
F15   F     F_    0.052180 0.292644 0.553419 -0.556541
F16   F     F_    0.707358 0.053639 0.551958 -0.556157
F17   F     F_    0.946145 0.707357 0.551730 -0.556417
F18   F     F_    0.445471 0.051022 0.792643 -0.556151
F19   F     F_    0.792644 0.053642 0.551954 -0.556374
F20   F     F_    0.552493 0.053114 0.207357 -0.556269
F21   F     F_    0.207357 0.051937 0.446345 -0.556400
F22   F     F_    0.447508 0.946886 0.207356 -0.556159
F23   F     F_    0.054823 0.550705 0.707357 -0.556342
F24   F     F_    0.792642 0.946361 0.448045 -0.556288
F25   F     F_    0.554527 0.948978 0.792643 -0.556165
F26   F     F_    0.207356 0.948058 0.553655 -0.556164
F27   F     F_    0.052183 0.207358 0.553416 -0.556461
F28   F     F_    0.054672 0.449133 0.207357 -0.556374
F29   F     F_    0.053862 0.792643 0.448273 -0.556533
F30   F     F_    0.054826 0.550701 0.792643 -0.556445
F31   F     F_    0.946141 0.792642 0.551726 -0.556350
F32   F     F_    0.945328 0.550867 0.207357 -0.556477
F33   F     F_    0.947812 0.207356 0.446585 -0.556332
F34   F     F_    0.707357 0.553003 0.947398 -0.556413
F35   F     F_    0.945174 0.449297 0.792643 -0.556412
F36   F     F_    0.207356 0.447434 0.946960 -0.556210
F37   F     F_    0.448893 0.792642 0.945550 -0.556544
F38   F     F_    0.792644 0.553000 0.947395 -0.556241
F39   F     F_    0.551577 0.207357 0.945995 -0.556537
F40   F     F_    0.792643 0.446996 0.052606 -0.556206
F41   F     F_    0.551103 0.792644 0.054451 -0.556358
F42   F     F_    0.207358 0.552570 0.053039 -0.556256
F43   F     F_    0.448427 0.207356 0.054006 -0.556339
F44   F     F_    0.945178 0.449293 0.707357 -0.556192
F45   F     F_    0.292642 0.447431 0.946963 -0.556351
F46   F     F_    0.054668 0.449129 0.292643 -0.556204
F47   F     F_    0.707357 0.446992 0.052602 -0.556342
F48   F     F_    0.551106 0.707358 0.054448 -0.556218
O1    O     O_R   0.034470 0.560990 0.499990 -0.596656
O2    O     O_R   0.560990 0.034470 0.500010 -0.596717
O3    O     O_R   0.560990 0.499990 0.034470 -0.596759
O4    O     O_R   0.560990 0.965530 0.499990 -0.596662
O5    O     O_R   0.439010 0.499990 0.965530 -0.596739
O6    O     O_R   0.439010 0.965530 0.500010 -0.596854
O7    O     O_R   0.439010 0.500010 0.034470 -0.596706
O8    O     O_R   0.439010 0.034470 0.499990 -0.596886
O9    O     O_R   0.500010 0.034470 0.439010 -0.596746
O10   O     O_R   0.034470 0.499990 0.439010 -0.596579
O11   O     O_R   0.499990 0.965530 0.439010 -0.596726
O12   O     O_R   0.499990 0.560990 0.965530 -0.596607
O13   O     O_R   0.965530 0.500010 0.439010 -0.596547
O14   O     O_R   0.499990 0.034470 0.560990 -0.596980
O15   O     O_R   0.965530 0.499990 0.560990 -0.596546
O16   O     O_R   0.500010 0.965530 0.560990 -0.596931
O17   O     O_R   0.034470 0.500010 0.560990 -0.596547
O18   O     O_R   0.534470 0.060990 0.999990 -0.596917
O19   O     O_R   0.999990 0.060990 0.465530 -0.596763
O20   O     O_R   0.465530 0.060990 0.000010 -0.596925
O21   O     O_R   0.000010 0.060990 0.534470 -0.596722
O22   O     O_R   0.534470 0.939010 0.000010 -0.596990
O23   O     O_R   0.965530 0.560990 0.500010 -0.596621
O24   O     O_R   0.999990 0.939010 0.534470 -0.596914
O25   O     O_R   0.465530 0.939010 0.999990 -0.596951
O26   O     O_R   0.000010 0.939010 0.465530 -0.596927
O27   O     O_R   0.060990 0.000010 0.465530 -0.596724
O28   O     O_R   0.060990 0.534470 0.000010 -0.596876
O29   O     O_R   0.060990 0.999990 0.534470 -0.596696
O30   O     O_R   0.060990 0.465530 0.999990 -0.596839
O31   O     O_R   0.939010 0.999990 0.465530 -0.596917
O32   O     O_R   0.939010 0.465530 0.000010 -0.596796
O33   O     O_R   0.939010 0.000010 0.534470 -0.596863
O34   O     O_R   0.500010 0.560990 0.034470 -0.596569
O35   O     O_R   0.939010 0.534470 0.999990 -0.596829
O36   O     O_R   0.000010 0.534470 0.939010 -0.597055
O37   O     O_R   0.534470 0.999990 0.939010 -0.596639
O38   O     O_R   0.999990 0.465530 0.939010 -0.597008
O39   O     O_R   0.465530 0.000010 0.939010 -0.596608
O40   O     O_R   0.999990 0.534470 0.060990 -0.597036
O41   O     O_R   0.465530 0.999990 0.060990 -0.596827
O42   O     O_R   0.000010 0.465530 0.060990 -0.596996
O43   O     O_R   0.534470 0.000010 0.060990 -0.596858
O44   O     O_R   0.034470 0.439010 0.500010 -0.596830
O45   O     O_R   0.499990 0.439010 0.034470 -0.596615
O46   O     O_R   0.965530 0.439010 0.499990 -0.596804
O47   O     O_R   0.500010 0.439010 0.965530 -0.596661
O48   O     O_R   0.560990 0.500010 0.965530 -0.596777
Zn1   Zn    Zn3+2 0.046020 0.500000 0.500000 1.104642
Zn2   Zn    Zn3+2 0.000000 0.000000 0.546020 1.104003
Zn3   Zn    Zn3+2 1.000000 0.546020 0.000000 1.103449
Zn4   Zn    Zn3+2 1.000000 0.453980 0.000000 1.103590
Zn5   Zn    Zn3+2 0.500000 0.500000 0.953980 1.104518
Zn6   Zn    Zn3+2 0.953980 0.500000 0.500000 1.104725
Zn7   Zn    Zn3+2 0.500000 0.500000 0.046020 1.104642
Zn8   Zn    Zn3+2 0.500000 0.046020 0.500000 1.104039
Zn9   Zn    Zn3+2 0.500000 0.953980 0.500000 1.104179
Zn10  Zn    Zn3+2 0.546020 0.000000 0.000000 1.103847
Zn11  Zn    Zn3+2 1.000000 0.000000 0.453980 1.103878
Zn12  Zn    Zn3+2 0.453980 0.000000 0.000000 1.103930

loop_
_geom_bond_atom_site_label_1
_geom_bond_atom_site_label_2
_ccdc_geom_bond_type
C20   C137  S    
C48   C55   S    
C87   F19   S    
C115  C141  A    
C111  F47   S    
C102  F23   S    
C104  C135  A    
C87   C91   A    
C65   F30   S    
C86   C126  A    
O40   Zn3   S    
O26   Zn11  S    
C123  O6    A    
C78   C120  A    
C18   C26   T    
C79   O47   A    
C7    C124  S    
C35   O20   A    
C61   O40   A    
C69   C107  A    
C54   O27   A    
C91   C130  A    
C101  O2    A    
C83   F21   S    
C98   C133  A    
C77   C89   A    
C52   O25   A    
C88   F31   S    
C56   O33   A    
C109  C140  A    
C65   C102  A    
O21   Zn2   S    
C117  C143  S    
C35   O18   A    
C118  C144  S    
C69   F36   S    
O35   Zn3   S    
C81   C95   A    
C10   C42   T    
O34   Zn7   S    
C94   F8    S    
C46   O19   A    
C60   O39   A    
C30   C57   S    
C5    C121  S    
C53   O26   A    
C76   C115  A    
C89   C129  A    
C82   F33   S    
C78   C108  A    
C82   C105  A    
C80   F22   S    
C70   F28   S    
C82   C126  A    
C68   O44   A    
C37   C123  S    
C33   C134  S    
C90   O3    A    
C40   C56   S    
C71   C111  A    
O4    Zn9   S    
O22   Zn10  S    
C95   C130  A    
C65   C118  A    
C113  C139  A    
C17   C36   T    
C6    C51   T    
O20   Zn12  S    
C93   C132  A    
C112  O7    A    
O12   Zn5   S    
C101  O4    A    
O7    Zn7   S    
C16   C37   T    
C81   C125  A    
C49   C52   S    
C25   C32   T    
C114  C138  A    
C105  F10   S    
C66   F38   S    
C45   C53   S    
O9    Zn8   S    
O27   Zn11  S    
C61   O42   A    
C115  F5    S    
C9    C126  S    
C107  F45   S    
C41   C62   S    
C16   C132  S    
O39   Zn12  S    
C100  F13   S    
C114  F12   S    
C29   C90   S    
C67   C118  A    
C3    C50   T    
C111  C140  A    
O29   Zn2   S    
O24   Zn2   S    
O28   Zn3   S    
C103  F17   S    
C34   C101  S    
C9    C43   T    
C12   C129  S    
C60   O37   A    
C84   C100  A    
C47   C144  T    
C23   C140  S    
C93   F11   S    
C92   C131  A    
C64   C114  A    
O13   Zn6   S    
O17   Zn1   S    
C77   C121  A    
O30   Zn4   S    
O32   Zn4   S    
C106  C137  A    
C74   F39   S    
C20   C28   T    
C70   C116  A    
O33   Zn2   S    
O10   Zn1   S    
O3    Zn7   S    
C22   C139  S    
C64   C117  A    
C75   C124  A    
C48   C143  T    
C75   F20   S    
C95   F9    S    
C102  C137  A    
C50   C58   S    
O44   Zn1   S    
C110  C141  A    
C1    O1    A    
C103  C136  A    
C109  F34   S    
C1    O23   A    
C59   O36   A    
C19   C38   T    
C56   O31   A    
C108  F7    S    
C123  O8    A    
O46   Zn6   S    
C104  F1    S    
C46   O21   A    
C72   C120  A    
C52   O22   A    
C13   O16   A    
C99   C135  A    
C18   C135  S    
C2    C26   S    
C2    O13   A    
O11   Zn9   S    
O8    Zn8   S    
C91   F16   S    
C85   C97   A    
C76   F43   S    
C3    C119  S    
C75   C92   A    
C55   O30   A    
C116  C142  S    
C57   O34   A    
C1    C38   S    
O2    Zn8   S    
C89   F6    S    
O25   Zn12  S    
C27   C112  S    
C53   O24   A    
C73   C121  A    
C66   C119  A    
C5    C39   T    
C12   C31   T    
C17   C133  S    
O48   Zn5   S    
C85   F26   S    
C85   C127  A    
C63   C116  A    
O37   Zn10  S    
C73   F25   S    
C110  F3    S    
O15   Zn6   S    
C23   C29   T    
C112  O5    A    
C87   C125  A    
C88   C103  A    
C8    C40   T    
C70   C99   A    
C134  O9    A    
C105  C133  A    
C14   C130  S    
O31   Zn11  S    
C77   F18   S    
C113  F48   S    
C84   C128  A    
C58   O32   A    
C62   O43   A    
C22   C30   T    
C74   C122  A    
O1    Zn1   S    
C71   F40   S    
C13   C31   S    
C25   C141  S    
C24   C28   S    
C97   C132  A    
C83   C127  A    
C63   C104  A    
C54   O29   A    
C79   O45   A    
C14   C34   T    
C74   C110  A    
C99   F46   S    
C21   C138  S    
C24   O17   A    
C36   C68   S    
C67   C106  A    
C55   O28   A    
C80   C124  A    
C71   C119  A    
C44   C61   S    
C96   F2    S    
C24   O15   A    
C94   C131  A    
O43   Zn10  S    
C90   O48   A    
C4    C49   T    
O47   Zn5   S    
C78   F37   S    
C76   C122  A    
C97   F14   S    
C108  C139  A    
C63   F32   S    
C11   C128  S    
C19   C136  S    
C106  F44   S    
C88   C128  A    
C67   F35   S    
C84   F29   S    
C42   C54   S    
C32   C79   S    
C35   C51   S    
C92   F4    S    
C69   C117  A    
O6    Zn9   S    
O36   Zn3   S    
C107  C138  A    
C11   C45   T    
C39   C60   S    
C72   C113  A    
C57   O12   A    
O5    Zn5   S    
C2    O10   A    
C81   F24   S    
C15   C33   T    
O16   Zn9   S    
C7    C41   T    
C66   C109  A    
C21   C27   T    
C86   C98   A    
C43   C46   S    
C72   F41   S    
C134  O11   A    
O38   Zn4   S    
C47   C59   S    
C86   F27   S    
C100  C136  A    
C8    C125  S    
C15   C131  S    
C98   F15   S    
O23   Zn6   S    
C44   C142  T    
C62   O41   A    
C6    C122  S    
C13   O14   A    
C4    C120  S    
C68   O46   A    
O14   Zn8   S    
C73   C96   A    
O19   Zn11  S    
C59   O38   A    
C80   C94   A    
O18   Zn10  S    
C64   F42   S    
C58   O35   A    
C10   C127  S    
O41   Zn12  S    
O42   Zn4   S    
C96   C129  A    
O45   Zn7   S    
C83   C93   A    
