data_mof_unit_52254.cif
_audit_creation_date              2012-12-11T15:15:38-0500
_audit_creation_method            fapswitch 2.2
_symmetry_space_group_name_H-M    P1
_symmetry_Int_Tables_number       1
_space_group_crystal_system       triclinic
_cell_length_a                    14.066868
_cell_length_b                    14.037463
_cell_length_c                    28.080988
_cell_angle_alpha                 89.933516
_cell_angle_beta                  90.165004
_cell_angle_gamma                 120.299779
_cell_volume                      4787.48448882

loop_
_atom_site_label
_atom_site_type_symbol
_atom_type_description
_atom_site_fract_x
_atom_site_fract_y
_atom_site_fract_z
_atom_type_partial_charge
C1    C     C_R   0.566356 0.453483 0.566848 0.549225
C2    C     C_3   0.505942 0.997181 0.202495 0.057391
C3    C     C_3   0.908636 0.624825 0.184344 0.006497
C4    C     C_3   0.900128 0.714307 0.156851 -0.253072
C5    C     C_3   0.808188 0.665140 0.119728 -0.477816
C6    C     C_3   0.457849 0.537448 0.212641 0.045334
C7    C     C_3   0.074799 0.541548 0.211828 0.042278
C8    C     C_3   0.965607 0.403321 0.769416 -0.117389
C9    C     C_3   0.596151 0.562855 0.769676 -0.117482
C10   C     C_3   0.437935 0.034091 0.769372 -0.117467
C11   C     C_3   0.429197 0.921038 0.269819 -0.112793
C12   C     C_3   0.554801 0.614066 0.276122 -0.109572
C13   C     C_3   0.072121 0.458136 0.277278 -0.106118
C14   C     C_3   0.887615 0.431565 0.741717 -0.149456
C15   C     C_R   0.546570 0.112983 0.566860 0.549015
C16   C     C_3   0.567928 0.456163 0.742138 -0.149478
C17   C     C_3   0.544669 0.112424 0.741854 -0.149469
C18   C     C_3   0.520132 0.922380 0.238299 -0.137231
C19   C     C_3   0.448476 0.603120 0.254304 -0.139484
C20   C     C_3   0.154801 0.569677 0.253832 -0.135176
C21   C     C_1   0.030617 0.518871 0.848651 -0.056144
C22   C     C_1   0.479943 0.511537 0.848550 -0.056188
C23   C     C_1   0.488184 0.968963 0.848596 -0.055612
C24   C     C_1   0.523786 0.042641 0.346495 -0.052376
C25   C     C_1   0.504320 0.488785 0.351918 -0.052953
C26   C     C_R   0.887186 0.433882 0.566842 0.548812
C27   C     C_1   0.981562 0.495262 0.351259 -0.050762
C28   C     C_1   0.960321 0.482805 0.654121 -0.044622
C29   C     C_1   0.518013 0.477758 0.654111 -0.044698
C30   C     C_1   0.522213 0.039808 0.654107 -0.044842
C31   C     C_1   0.490708 0.972513 0.151883 -0.049372
C32   C     C_1   0.446270 0.557821 0.162835 -0.059826
C33   C     C_1   0.107922 0.553170 0.162272 -0.045510
C34   C     C_R   0.566032 0.454133 0.434746 0.553864
C35   C     C_R   0.546169 0.113010 0.434204 0.550478
C36   C     C_R   0.887581 0.433913 0.434583 0.553114
C37   C     C_R   0.428928 0.599445 0.073292 0.540586
C38   C     C_R   0.453792 0.565984 0.934511 0.564289
C39   C     C_R   0.112034 0.545798 0.934564 0.564152
C40   C     C_R   0.433766 0.887683 0.934501 0.552682
C41   C     C_3   0.021106 0.600901 0.733995 0.318532
C42   C     C_3   0.399299 0.419816 0.733622 0.318547
C43   C     C_3   0.579160 0.978841 0.733971 0.318645
C44   C     C_3   0.593269 0.099693 0.228405 0.318113
C45   C     C_3   0.389015 0.429725 0.239797 0.308246
C46   C     C_3   0.019378 0.596995 0.236934 0.302815
C47   C     C_3   0.929435 0.539154 0.771344 -0.114039
C48   C     C_R   0.169992 0.571151 0.073334 0.538104
C49   C     C_3   0.460110 0.389798 0.771402 -0.114021
C50   C     C_3   0.610067 0.070578 0.771475 -0.114021
C51   C     C_3   0.609269 0.026345 0.264648 -0.065665
C52   C     C_3   0.377668 0.493649 0.281886 -0.063610
C53   C     C_3   0.099235 0.626926 0.279361 -0.068507
C54   C     C_1   0.060856 0.528616 0.889188 -0.014224
C55   C     C_1   0.470274 0.531889 0.889086 -0.014999
C56   C     C_1   0.467766 0.938761 0.889122 -0.013034
C57   C     C_1   0.531192 0.067385 0.387726 -0.008004
C58   C     C_1   0.528607 0.474203 0.390982 -0.009892
C59   C     C_R   0.434268 0.887784 0.066564 0.537163
C60   C     C_1   0.943884 0.471137 0.390524 -0.008537
C61   C     C_1   0.933950 0.465149 0.613082 -0.021134
C62   C     C_1   0.535592 0.469047 0.613100 -0.021258
C63   C     C_1   0.530974 0.066229 0.613086 -0.021281
C64   C     C_1   0.469334 0.940483 0.111612 -0.020833
C65   C     C_1   0.438222 0.576089 0.121803 -0.023518
C66   C     C_1   0.135731 0.561325 0.121520 -0.010380
C67   C     C_3   0.100124 0.574559 0.761349 -0.065846
C68   C     C_3   0.425632 0.525626 0.760808 -0.065499
C69   C     C_3   0.473291 0.899483 0.761146 -0.065468
C70   C     C_3   0.980223 0.495385 0.705097 0.058962
C71   C     C_3   0.503938 0.100761 0.259900 -0.113073
C72   C     C_3   0.493842 0.438575 0.261574 -0.108162
C73   C     C_3   0.935739 0.486916 0.260333 -0.105267
C74   C     C_3   0.007587 0.510568 0.797905 0.017696
C75   C     C_3   0.488679 0.496995 0.797811 0.017683
C76   C     C_3   0.502825 0.992087 0.797859 0.017489
C77   C     C_3   0.517946 0.024688 0.295345 0.015730
C78   C     C_3   0.483941 0.505100 0.302817 0.021492
C79   C     C_3   0.017172 0.515522 0.301991 0.015737
C80   C     C_3   0.057499 0.466956 0.732183 -0.137199
C81   C     C_3   0.505047 0.485030 0.705070 0.058633
C82   C     C_3   0.533455 0.591195 0.732005 -0.136969
C83   C     C_3   0.408695 0.942133 0.731986 -0.137097
C84   C     C_3   0.415017 0.996040 0.233485 -0.144126
C85   C     C_3   0.563984 0.548277 0.233960 -0.148930
C86   C     C_3   0.992050 0.430273 0.234725 -0.134121
C87   C     C_3   0.984837 0.742621 0.716222 0.001243
C88   C     C_3   0.887844 0.682612 0.681420 -0.264074
C89   C     C_3   0.818276 0.737907 0.679466 -0.474055
C90   C     C_3   0.257609 0.240744 0.715638 0.001359
C91   C     C_3   0.317697 0.203862 0.681281 -0.264434
C92   C     C_3   0.514894 0.019750 0.705075 0.058665
C93   C     C_3   0.261929 0.078319 0.679296 -0.473569
C94   C     C_3   0.757190 0.015602 0.716255 0.001246
C95   C     C_3   0.794590 0.112663 0.681528 -0.264421
C96   C     C_3   0.919931 0.182355 0.679441 -0.473412
C97   C     C_3   0.671044 0.276689 0.195355 0.004033
C98   C     C_3   0.593291 0.253049 0.152918 -0.268952
C99   C     C_3   0.599838 0.358519 0.134681 -0.492976
C100  C     C_3   0.330650 0.278965 0.190164 0.007799
C101  C     C_3   0.229298 0.182243 0.167273 -0.250078
C102  C     C_3   0.261323 0.118507 0.133192 -0.478679
Cr1   Cr    Cr6+3 0.504830 0.254570 0.500510 1.032323
Cr2   Cr    Cr6+3 0.745430 0.250260 0.500510 1.031408
Cr3   Cr    Cr6+3 0.749740 0.495170 0.500510 1.032070
Cr4   Cr    Cr6+3 0.254570 0.504830 0.000510 1.024288
Cr5   Cr    Cr6+3 0.250260 0.745430 0.000510 1.020578
Cr6   Cr    Cr6+3 0.495170 0.749740 0.000510 1.018912
H1    H     H_    0.875396 0.565301 0.788618 0.089643
H2    H     H_    0.529282 0.851216 0.228116 0.107396
H3    H     H_    0.430689 0.671144 0.251256 0.093819
H4    H     H_    0.244523 0.604104 0.250375 0.107539
H5    H     H_    0.941723 0.321541 0.784984 0.111742
H6    H     H_    0.677640 0.621194 0.785483 0.111821
H7    H     H_    0.380385 0.057869 0.784918 0.111696
H8    H     H_    0.361539 0.847157 0.287466 0.113142
H9    H     H_    0.623681 0.690375 0.291842 0.121988
H10   H     H_    0.093425 0.400262 0.294663 0.129974
H11   H     H_    0.109780 0.437561 0.715744 0.140931
H12   H     H_    0.433442 0.309122 0.788758 0.089485
H13   H     H_    0.563379 0.673373 0.715492 0.142271
H14   H     H_    0.326549 0.889679 0.715426 0.142383
H15   H     H_    0.334996 0.983046 0.220115 0.119700
H16   H     H_    0.640931 0.571780 0.214268 0.101700
H17   H     H_    0.948668 0.349829 0.215853 0.149151
H18   H     H_    0.029894 0.831758 0.706978 0.149429
H19   H     H_    0.955977 0.737905 0.753442 0.114528
H20   H     H_    0.919678 0.683211 0.645174 0.188845
H21   H     H_    0.834521 0.595487 0.692694 0.152907
H22   H     H_    0.787707 0.740883 0.715510 0.143026
H23   H     H_    0.690748 0.124775 0.788870 0.089716
H24   H     H_    0.746553 0.690343 0.655538 0.170056
H25   H     H_    0.867736 0.823275 0.665463 0.142005
H26   H     H_    0.168795 0.196288 0.706036 0.149682
H27   H     H_    0.261653 0.216379 0.752954 0.114272
H28   H     H_    0.317964 0.235533 0.644957 0.189126
H29   H     H_    0.404368 0.237810 0.692989 0.152821
H30   H     H_    0.257919 0.044289 0.715412 0.143141
H31   H     H_    0.309618 0.054247 0.655766 0.170154
H32   H     H_    0.177106 0.042301 0.664804 0.142402
H33   H     H_    0.800784 0.970619 0.706973 0.149727
H34   H     H_    0.689297 0.039515 0.278130 0.117549
H35   H     H_    0.781926 0.044676 0.753493 0.114474
H36   H     H_    0.762444 0.080632 0.645291 0.189109
H37   H     H_    0.761653 0.166141 0.692948 0.152798
H38   H     H_    0.954417 0.212917 0.715482 0.143327
H39   H     H_    0.944423 0.254270 0.655658 0.170174
H40   H     H_    0.954931 0.132791 0.665194 0.142344
H41   H     H_    0.753219 0.347296 0.185886 0.146182
H42   H     H_    0.643769 0.303607 0.227148 0.105463
H43   H     H_    0.615754 0.215184 0.123534 0.188423
H44   H     H_    0.507330 0.194430 0.163831 0.143407
H45   H     H_    0.301244 0.470088 0.302088 0.107837
H46   H     H_    0.582570 0.400672 0.163915 0.133828
H47   H     H_    0.538299 0.338228 0.105873 0.154956
H48   H     H_    0.683117 0.414946 0.120144 0.151055
H49   H     H_    0.376505 0.246032 0.210019 0.124233
H50   H     H_    0.383350 0.335052 0.161343 0.140990
H51   H     H_    0.175087 0.125379 0.195522 0.178090
H52   H     H_    0.182538 0.213841 0.147291 0.181085
H53   H     H_    0.315714 0.173737 0.104605 0.153020
H54   H     H_    0.186025 0.050172 0.116561 0.155123
H55   H     H_    0.304645 0.082676 0.152731 0.143292
H56   H     H_    0.142070 0.707611 0.298051 0.112217
H57   H     H_    0.830678 0.573958 0.204291 0.116791
H58   H     H_    0.920121 0.571603 0.158355 0.134973
H59   H     H_    0.884097 0.765346 0.182197 0.172176
H60   H     H_    0.979544 0.768747 0.138579 0.179899
H61   H     H_    0.823498 0.615195 0.093528 0.153478
H62   H     H_    0.805199 0.732657 0.100427 0.163595
H63   H     H_    0.727372 0.612507 0.137076 0.148011
H64   H     H_    0.187452 0.634592 0.770095 0.108068
H65   H     H_    0.365872 0.552887 0.769130 0.108242
H66   H     H_    0.445223 0.811974 0.769745 0.108203
H67   H     H_    0.800349 0.371959 0.732699 0.097792
H68   H     H_    0.494586 0.171979 0.270077 0.088291
H69   H     H_    0.513140 0.371431 0.265509 0.082014
H70   H     H_    0.845808 0.453211 0.264089 0.094101
H71   H     H_    0.627281 0.428552 0.733545 0.098019
H72   H     H_    0.573078 0.199870 0.732985 0.097820
O1    O     O_R   0.479630 0.139450 0.552170 -0.512701
O2    O     O_R   0.360080 0.516200 0.048600 -0.506034
O3    O     O_R   0.156120 0.639920 0.048600 -0.491440
O4    O     O_R   0.483800 0.843880 0.048600 -0.515329
O5    O     O_R   0.478560 0.139320 0.448720 -0.507247
O6    O     O_R   0.860680 0.339240 0.448720 -0.507923
O7    O     O_R   0.660760 0.521440 0.448720 -0.508465
O8    O     O_R   0.139320 0.478560 0.948720 -0.504118
O9    O     O_R   0.339240 0.860680 0.948720 -0.507642
O10   O     O_R   0.521440 0.660760 0.948720 -0.503292
O11   O     O_R   0.515210 0.359960 0.452710 -0.496752
O12   O     O_R   0.860550 0.340180 0.552170 -0.512491
O13   O     O_R   0.640040 0.155250 0.452710 -0.496554
O14   O     O_R   0.844750 0.484790 0.452710 -0.497151
O15   O     O_R   0.359960 0.515210 0.952710 -0.491536
O16   O     O_R   0.155250 0.640040 0.952710 -0.489595
O17   O     O_R   0.484790 0.844750 0.952710 -0.494536
O18   O     O_3   0.666667 0.333333 0.499990 -0.250378
O19   O     O_3   0.333333 0.666667 0.999990 -0.292429
O20   O     O_3   0.060608 0.705042 0.712129 -0.577820
O21   O     O_3   0.295592 0.354696 0.711416 -0.577210
O22   O     O_3   0.643249 0.939415 0.712119 -0.577632
O23   O     O_R   0.659820 0.520370 0.552170 -0.513352
O24   O     O_3   0.685801 0.186335 0.205255 -0.573685
O25   O     O_3   0.296370 0.334257 0.221472 -0.567066
O26   O     O_3   0.998186 0.676219 0.216325 -0.566467
O27   O     O_R   0.139450 0.479630 0.052170 -0.505376
O28   O     O_R   0.340180 0.860550 0.052170 -0.517513
O29   O     O_R   0.520370 0.659820 0.052170 -0.502272
O30   O     O_R   0.516200 0.360080 0.548600 -0.499799
O31   O     O_R   0.639920 0.156120 0.548600 -0.499516
O32   O     O_R   0.843880 0.483800 0.548600 -0.500304

loop_
_geom_bond_atom_site_label_1
_geom_bond_atom_site_label_2
_ccdc_geom_bond_type
C59   O28   A    
C6    C32   S    
C87   C88   S    
C13   C79   S    
C11   C18   S    
C101  C102  S    
C6    C45   S    
C72   C78   S    
C2    C18   S    
C7    C33   S    
C2    C84   S    
C95   C96   S    
Cr1   O5    S    
C23   C76   S    
C1    C62   S    
C87   H19   S    
C72   C85   S    
C23   C56   T    
C41   C67   S    
C98   H44   S    
C71   H68   S    
C68   C75   S    
C6    C19   S    
C17   C92   S    
C59   C64   S    
C6    C85   S    
C12   C85   S    
C44   C71   S    
C69   C83   S    
C94   H35   S    
C22   C75   S    
C16   C81   S    
C34   O11   A    
C53   C79   S    
C26   C61   S    
C27   C79   S    
C27   C60   T    
C5    H61   S    
C21   C54   T    
C90   H26   S    
Cr3   O23   S    
C49   H12   S    
C40   O17   A    
C10   C17   S    
Cr2   O12   S    
C99   H46   S    
C97   C98   S    
C10   C83   S    
C38   O15   A    
C12   C19   S    
C85   H16   S    
Cr6   O17   S    
Cr4   O2    S    
C15   O31   A    
C93   H30   S    
C11   C77   S    
C91   H29   S    
C10   C76   S    
C100  H49   S    
C91   H28   S    
C101  H52   S    
C2    C44   S    
C102  H55   S    
C38   O10   A    
C37   C65   S    
C13   C86   S    
C18   C51   S    
Cr2   O13   S    
C8    C14   S    
C97   H42   S    
C49   C75   S    
C94   O22   S    
C82   H13   S    
C16   H71   S    
C35   O5    A    
C9    C82   S    
C90   O21   S    
C28   C61   T    
C80   H11   S    
C95   H36   S    
C43   C69   S    
C20   H4    S    
C30   C63   T    
C86   H17   S    
C42   C68   S    
C14   C70   S    
Cr6   O10   S    
C59   O4    A    
C42   C81   S    
C87   O20   S    
C41   O20   S    
C52   C78   S    
C19   C52   S    
Cr1   O30   S    
Cr5   O16   S    
C48   O27   A    
C33   C66   T    
Cr6   O29   S    
C98   H43   S    
C41   C47   S    
Cr3   O14   S    
C96   H40   S    
C89   H25   S    
C73   H70   S    
C38   C55   S    
C5    H62   S    
C70   C80   S    
C25   C78   S    
C7    C46   S    
C13   H10   S    
C16   C49   S    
C30   C92   S    
C15   O1    A    
Cr4   O27   S    
Cr6   O4    S    
C24   C57   T    
C45   C52   S    
C40   C56   S    
C52   H45   S    
C47   H1    S    
C21   C74   S    
C81   C82   S    
C89   H22   S    
C4    H60   S    
C12   C78   S    
C2    C31   S    
C84   H15   S    
Cr1   O18   S    
C26   O12   A    
C51   C77   S    
C29   C81   S    
C14   H67   S    
C93   H31   S    
C50   C76   S    
C91   C93   S    
C72   H69   S    
C102  H54   S    
C99   H48   S    
Cr5   O9    S    
C43   O22   S    
C8    C74   S    
C5    H63   S    
C43   C50   S    
C67   C74   S    
C34   C58   S    
C11   H8    S    
Cr3   O32   S    
C37   O29   A    
Cr5   O28   S    
C14   C47   S    
C8    H5    S    
C39   O8    A    
C44   C51   S    
Cr3   O18   S    
C39   C54   S    
C98   C99   S    
C67   H64   S    
C88   H21   S    
C99   H47   S    
Cr1   O11   S    
C69   H66   S    
C9    H6    S    
C97   O24   S    
C3    C4    S    
C1    O23   A    
C71   C77   S    
Cr2   O6    S    
C95   H37   S    
C3    H57   S    
C8    C80   S    
C71   C84   S    
C51   H34   S    
C46   O26   S    
C96   H39   S    
C29   C62   T    
C45   O25   S    
C13   C20   S    
C1    O30   A    
Cr1   O1    S    
C3    O26   S    
Cr2   O18   S    
C31   C64   T    
C9    C16   S    
C28   C70   S    
C67   C80   S    
C18   H2    S    
C47   C74   S    
C20   C53   S    
C36   C60   S    
C17   C50   S    
C48   O3    A    
C100  O25   S    
C34   O7    A    
C53   H56   S    
C22   C55   T    
C19   H3    S    
C11   C84   S    
C73   C79   S    
C96   H38   S    
C39   O16   A    
C89   H24   S    
C43   C92   S    
C4    H59   S    
C15   C63   S    
C35   C57   S    
C68   H65   S    
C68   C82   S    
Cr3   O7    S    
Cr6   O19   S    
Cr4   O15   S    
Cr4   O8    S    
C88   H20   S    
C93   H32   S    
C17   H72   S    
Cr5   O19   S    
C90   H27   S    
C90   C91   S    
C94   H33   S    
C102  H53   S    
C37   O2    A    
C40   O9    A    
C46   C53   S    
C100  C101  S    
C36   O6    A    
C87   H18   S    
C83   H14   S    
C94   C95   S    
C36   O14   A    
C73   C86   S    
Cr4   O19   S    
C50   H23   S    
C35   O13   A    
C42   C49   S    
C12   H9    S    
C7    C86   S    
C100  H50   S    
C24   C77   S    
C4    C5    S    
C88   C89   S    
C101  H51   S    
C83   C92   S    
C7    C20   S    
C25   C58   T    
Cr5   O3    S    
C44   O24   S    
C97   H41   S    
C41   C70   S    
C42   O21   S    
C26   O32   A    
C9    C75   S    
Cr2   O31   S    
C48   C66   S    
C69   C76   S    
C46   C73   S    
C10   H7    S    
C3    H58   S    
C32   C65   T    
C45   C72   S    
