data_mof_unit_64785.cif
_audit_creation_date              2012-10-26T21:17:29-0400
_audit_creation_method            fapswitch 2.2
_symmetry_space_group_name_H-M    P1
_symmetry_Int_Tables_number       1
_space_group_crystal_system       triclinic
_cell_length_a                    17.74923
_cell_length_b                    16.445126
_cell_length_c                    11.724191
_cell_angle_alpha                 90.000101
_cell_angle_beta                  90.200348
_cell_angle_gamma                 90.0
_cell_volume                      3422.13353679

loop_
_atom_site_label
_atom_site_type_symbol
_atom_type_description
_atom_site_fract_x
_atom_site_fract_y
_atom_site_fract_z
_atom_type_partial_charge
C1    C     C_R   0.355266 0.500000 0.499862 0.556533
C2    C     C_R   0.114487 0.500000 0.499648 0.042063
C3    C     C_1   0.966221 0.500000 0.500112 0.157055
C4    C     C_1   0.033779 0.500000 0.499887 0.157055
C5    C     C_R   0.499962 0.500000 0.283550 0.558343
C6    C     C_R   0.500038 0.500000 0.716450 0.558343
C7    C     C_R   0.549177 0.828900 0.570743 -0.121051
C8    C     C_R   0.450823 0.171100 0.429257 -0.121051
C9    C     C_R   0.450823 0.828900 0.429257 -0.121052
C10   C     C_R   0.549177 0.171100 0.570743 -0.121052
C11   C     C_R   0.548310 0.743071 0.569491 0.058897
C12   C     C_R   0.644734 0.500000 0.500138 0.556534
C13   C     C_R   0.451690 0.256928 0.430509 0.058897
C14   C     C_R   0.451690 0.743071 0.430509 0.058898
C15   C     C_R   0.548310 0.256929 0.569491 0.058898
C16   C     C_1   0.500000 0.962706 0.500000 0.002562
C17   C     C_1   0.500000 0.037294 0.500000 0.002562
C18   C     C_1   0.499969 0.500000 0.162075 -0.004623
C19   C     C_1   0.500031 0.500000 0.837925 -0.004623
C20   C     C_1   0.499986 0.500000 0.059784 -0.019188
C21   C     C_1   0.500014 0.500000 0.940216 -0.019188
C22   C     C_R   0.500000 0.873071 0.500000 0.025710
C23   C     C_R   0.767427 0.573726 0.500430 -0.103538
C24   C     C_R   0.500000 0.126928 0.500000 0.025710
C25   C     C_R   0.845997 0.574018 0.500421 0.215004
C26   C     C_R   0.154003 0.425982 0.499579 0.215004
C27   C     C_R   0.154003 0.574018 0.499578 0.215004
C28   C     C_R   0.845997 0.425982 0.500421 0.215004
C29   C     C_R   0.232573 0.426274 0.499570 -0.103538
C30   C     C_R   0.232573 0.573726 0.499570 -0.103538
C31   C     C_R   0.767427 0.426274 0.500430 -0.103538
C32   C     C_R   0.727573 0.500000 0.500338 -0.070055
C33   C     C_R   0.272427 0.500000 0.499662 -0.070055
C34   C     C_R   0.885513 0.500000 0.500351 0.042063
Cl1   Cl    Cl    0.893223 0.668248 0.500442 -0.474250
Cl2   Cl    Cl    0.106777 0.331752 0.499558 -0.474250
Cl3   Cl    Cl    0.106777 0.668248 0.499557 -0.474250
Cl4   Cl    Cl    0.893223 0.331752 0.500443 -0.474250
Cu1   Cu    Cu3+1 0.500000 0.580420 0.500000 0.967997
Cu2   Cu    Cu3+1 0.500000 0.419580 0.500000 0.967997
H1    H     H_    0.588049 0.860465 0.626680 0.121470
H2    H     H_    0.262314 0.368748 0.499531 0.172099
H3    H     H_    0.262314 0.631252 0.499532 0.172099
H4    H     H_    0.737686 0.368748 0.500468 0.172099
H5    H     H_    0.411951 0.139535 0.373320 0.121470
H6    H     H_    0.411951 0.860465 0.373320 0.121470
H7    H     H_    0.588049 0.139535 0.626680 0.121470
H8    H     H_    0.586531 0.709964 0.624502 0.132032
H9    H     H_    0.413469 0.290036 0.375498 0.132032
H10   H     H_    0.413469 0.709964 0.375498 0.132032
H11   H     H_    0.586531 0.290036 0.624502 0.132032
H12   H     H_    0.737686 0.631252 0.500469 0.172099
N1    N     N_R   0.500000 0.701220 0.500000 -0.222595
N2    N     N_R   0.500000 0.298780 0.500000 -0.222595
O1    O     O_R   0.391260 0.567930 0.500000 -0.503217
O2    O     O_R   0.608740 0.432070 0.500000 -0.503217
O3    O     O_R   0.608740 0.567930 0.500000 -0.503217
O4    O     O_R   0.391260 0.432070 0.500000 -0.503217
O5    O     O_R   0.500010 0.567910 0.337200 -0.494347
O6    O     O_R   0.499990 0.432090 0.662800 -0.494347
O7    O     O_R   0.499990 0.567910 0.662800 -0.494348
O8    O     O_R   0.500010 0.432090 0.337200 -0.494347

loop_
_geom_bond_atom_site_label_1
_geom_bond_atom_site_label_2
_ccdc_geom_bond_type
C2    C4    S    
C9    C14   A    
C8    C13   A    
Cu2   O6    S    
C15   H11   S    
C29   H2    S    
C7    C22   A    
C18   C20   T    
C31   C32   A    
C3    C34   S    
C28   Cl4   S    
C25   C34   A    
C2    C27   A    
Cu1   O5    S    
C23   C32   A    
C7    H1    S    
C11   H8    S    
C28   C34   A    
C9    H6    S    
C2    C26   A    
C12   O2    A    
C1    O4    A    
C12   C32   S    
C27   C30   A    
C7    C11   A    
C6    C19   S    
C8    C24   A    
C23   H12   S    
Cu1   N1    S    
C25   Cl1   S    
C13   H9    S    
C12   O3    A    
C6    O7    A    
C26   Cl2   S    
C19   C21   T    
C27   Cl3   S    
C5    O8    A    
C13   N2    A    
Cu2   N2    S    
C10   C15   A    
C23   C25   A    
C1    O1    A    
Cu1   O7    S    
C30   H3    S    
C17   C24   S    
Cu2   O4    S    
C31   H4    S    
C14   H10   S    
C1    C33   S    
C3    C4    T    
Cu1   O3    S    
C15   N2    A    
C6    O6    A    
C10   H7    S    
C14   N1    A    
Cu2   O8    S    
C20   C21   S    
C26   C29   A    
C9    C22   A    
Cu1   Cu2   S    
C5    O5    A    
C8    H5    S    
C16   C22   S    
C5    C18   S    
C30   C33   A    
C10   C24   A    
C28   C31   A    
Cu1   O1    S    
C29   C33   A    
C16   C17   T    
Cu2   O2    S    
C11   N1    A    
