data_mof_unit_65581.cif
_audit_creation_date              2013-03-05T16:39:12-0500
_audit_creation_method            fapswitch 2.2
_symmetry_space_group_name_H-M    P1
_symmetry_Int_Tables_number       1
_space_group_crystal_system       triclinic
_cell_length_a                    16.000871
_cell_length_b                    14.78905
_cell_length_c                    27.735605
_cell_angle_alpha                 89.755046
_cell_angle_beta                  89.875531
_cell_angle_gamma                 89.893213
_cell_volume                      6563.20250135

loop_
_atom_site_label
_atom_site_type_symbol
_atom_site_description
_atom_site_fract_x
_atom_site_fract_y
_atom_site_fract_z
_atom_type_partial_charge
O1    O     O_R   0.380310 0.575320 0.500010 -0.576435
O2    O     O_R   0.619690 0.424680 0.499990 -0.576438
O3    O     O_R   0.619690 0.575320 0.499990 -0.551595
O4    O     O_R   0.380310 0.424680 0.500010 -0.551597
C1    C     C_R   0.340937 0.500071 0.500008 0.836991
C2    C     C_R   0.659063 0.499929 0.499992 0.837007
O5    O     O_R   0.500010 0.575330 0.430260 -0.538695
O6    O     O_R   0.499990 0.424670 0.569740 -0.538659
O7    O     O_R   0.499990 0.575330 0.569740 -0.569361
O8    O     O_R   0.500010 0.424670 0.430260 -0.569351
C3    C     C_R   0.498970 0.500180 0.407278 0.905225
C4    C     C_R   0.501031 0.499820 0.592722 0.905172
Cu1   Cu    Cu3+1 0.500000 0.589220 0.500000 1.058754
Cu2   Cu    Cu3+1 0.500000 0.410780 0.500000 1.058769
C5    C     C_R   0.448133 0.559921 0.177711 0.682575
C6    C     C_R   0.551903 0.440086 0.822291 0.682534
O9    O     O_2   0.389352 0.604225 0.203402 -0.419182
O10   O     O_2   0.610687 0.395787 0.796600 -0.419182
N1    N     N_R   0.507375 0.510560 0.201563 -0.464213
N2    N     N_R   0.492658 0.489443 0.798439 -0.464213
C7    C     C_R   0.570336 0.467252 0.177617 0.638118
C8    C     C_R   0.429698 0.532753 0.822384 0.638147
C9    C     C_R   0.559733 0.559022 0.279899 -0.275115
C10   C     C_R   0.440331 0.440923 0.720106 -0.275133
C11   C     C_R   0.558381 0.556693 0.330364 0.376751
C12   C     C_R   0.441670 0.443255 0.669641 0.376777
C13   C     C_R   0.443299 0.447691 0.327572 -0.053585
C14   C     C_R   0.556670 0.552360 0.672427 -0.053506
C15   C     C_R   0.446926 0.449343 0.276487 0.451942
C16   C     C_R   0.553046 0.550712 0.723512 0.451874
C17   C     C_R   0.504624 0.506157 0.253265 0.228954
C18   C     C_R   0.495403 0.493839 0.746737 0.228968
C19   C     C_R   0.509622 0.514589 0.101412 -0.201670
C20   C     C_R   0.490416 0.485424 0.898590 -0.201669
C21   C     C_R   0.448358 0.564227 0.126883 -0.089164
C22   C     C_R   0.551678 0.435782 0.873119 -0.089162
C23   C     C_R   0.391330 0.618837 0.101004 0.348442
C24   C     C_R   0.608701 0.381167 0.898998 0.348457
C25   C     C_R   0.574174 0.469896 0.126814 -0.071197
C26   C     C_R   0.425864 0.530116 0.873187 -0.071199
C27   C     C_R   0.500071 0.501001 0.354282 -0.161093
C28   C     C_R   0.499935 0.498998 0.645719 -0.161147
C29   C     C_R   0.431235 0.538519 0.974965 0.024452
C30   C     C_R   0.568804 0.461496 0.025037 0.024453
C31   C     C_R   0.559062 0.446579 0.974781 0.032742
C32   C     C_R   0.440976 0.553436 0.025221 0.032742
C33   C     C_R   0.494269 0.491333 0.949484 -0.035731
C34   C     C_R   0.505770 0.508682 0.050517 -0.035731
C35   C     C_R   0.357169 0.561811 0.949755 0.129362
C36   C     C_R   0.642870 0.438203 0.050246 0.129363
C37   C     C_R   0.357796 0.566948 0.899025 0.394733
C38   C     C_R   0.642243 0.433065 0.100976 0.394734
O11   O     O_2   0.371843 0.578904 0.796858 -0.432347
O12   O     O_2   0.628189 0.421097 0.203143 -0.432343
C39   C     C_R   0.394649 0.620217 0.050006 0.309878
C40   C     C_R   0.605384 0.379792 0.949996 0.309861
H1    H     H_    0.396210 0.398005 0.739022 0.172413
H2    H     H_    0.603890 0.601901 0.260986 0.172432
C41   C     C_R   0.955786 0.575757 0.517541 0.128285
C42   C     C_R   0.044214 0.424243 0.482459 0.128287
C43   C     C_R   0.043650 0.575941 0.517441 0.121580
C44   C     C_R   0.956350 0.424059 0.482559 0.121581
C45   C     C_R   0.912708 0.499826 0.500086 -0.061742
C46   C     C_R   0.087292 0.500174 0.499913 -0.061741
C47   C     C_1   0.823042 0.499745 0.500085 0.082231
C48   C     C_1   0.176958 0.500255 0.499915 0.082236
C49   C     C_1   0.251961 0.500218 0.499948 -0.085512
C50   C     C_1   0.748039 0.499782 0.500051 -0.085512
C51   C     C_R   0.564519 0.951792 0.523524 0.413392
C52   C     C_R   0.435480 0.048208 0.476476 0.413393
C53   C     C_R   0.435393 0.952460 0.476556 0.413023
C54   C     C_R   0.564607 0.047540 0.523444 0.413022
C55   C     C_R   0.499940 0.902667 0.500053 -0.356809
C56   C     C_R   0.500059 0.097332 0.499947 -0.356810
C57   C     C_1   0.499975 0.802453 0.500023 0.210312
C58   C     C_1   0.500025 0.197546 0.499977 0.210320
N3    N     N_1   0.500000 0.276710 0.500000 -0.140106
N4    N     N_1   0.500000 0.723290 0.500000 -0.140110
I1    I     I_    0.346605 0.374078 0.364338 -0.235428
I2    I     I_    0.653333 0.626028 0.635668 -0.235328
O13   O     O_3   0.630070 0.089125 0.547187 -0.619615
H3    H     H_    0.625016 0.155615 0.545011 0.335350
O14   O     O_3   0.369929 0.910875 0.452813 -0.619615
H4    H     H_    0.374983 0.844385 0.454990 0.335349
O15   O     O_3   0.370125 0.090465 0.452635 -0.614583
H5    H     H_    0.375723 0.156907 0.454306 0.342492
O16   O     O_3   0.629874 0.909535 0.547366 -0.614583
H6    H     H_    0.624276 0.843093 0.545695 0.342494
O17   O     O_3   0.395179 0.397984 0.247741 -0.674686
H7    H     H_    0.367978 0.350516 0.267304 0.364958
O18   O     O_3   0.604751 0.602132 0.752251 -0.674671
H8    H     H_    0.631793 0.649712 0.732695 0.364935
O19   O     O_3   0.334313 0.671580 0.125718 -0.644958
H9    H     H_    0.285383 0.683002 0.104681 0.352460
O20   O     O_3   0.665708 0.328411 0.874284 -0.644958
H10   H     H_    0.714630 0.316961 0.895323 0.352472
O21   O     O_3   0.386068 0.392572 0.642949 -0.694029
H11   H     H_    0.349575 0.357691 0.665167 0.344147
O22   O     O_3   0.614014 0.607330 0.357060 -0.694059
H12   H     H_    0.650538 0.642179 0.334845 0.344153
O23   O     O_3   0.289996 0.601404 0.874209 -0.630561
H13   H     H_    0.258484 0.642592 0.895685 0.360074
O24   O     O_3   0.710043 0.398610 0.125792 -0.630565
H14   H     H_    0.741555 0.357422 0.104317 0.360073
I3    I     I_    0.236809 0.551395 0.984152 -0.193405
I4    I     I_    0.763230 0.448609 0.015848 -0.193377
O25   O     O_3   0.360060 0.690769 0.023847 -0.704435
H15   H     H_    0.353545 0.744165 0.044975 0.353572
O26   O     O_3   0.639967 0.309238 0.976157 -0.704441
H16   H     H_    0.646449 0.255832 0.955032 0.353559
I5    I     I_    0.111807 0.690088 0.543589 -0.173161
I6    I     I_    0.888193 0.309912 0.456410 -0.173154
I7    I     I_    0.886746 0.689539 0.543936 -0.144850
I8    I     I_    0.113254 0.310460 0.456065 -0.144857

loop_
_geom_bond_atom_site_label_1
_geom_bond_atom_site_label_2
_geom_bond_distance
_ccdc_geom_bond_type
C9    H2    1.083391 S    
O16   H6    0.988156 S    
C45   C47   1.434738 S    
C38   O24   1.381485 S    
O19   H9    0.991268 S    
C13   C15   1.418057 A    
C42   I8    2.141957 S    
O20   H10   0.991266 S    
C1    C49   1.423705 S    
O3    C2    1.279618 A    
N1    C17   1.435758 S    
C15   O17   1.381503 S    
O21   H11   0.991783 S    
O15   H5    0.988156 S    
O5    C3    1.283721 A    
C29   C32   1.421121 A    
C19   C25   1.413073 A    
C56   C58   1.482074 S    
O1    C1    1.279831 A    
C21   C23   1.412530 A    
C10   C12   1.400087 A    
C13   I1    2.146790 S    
C7    O12   1.349243 S    
C42   C44   1.405905 A    
Cu2   N3    1.982769 S    
O7    Cu1   1.944282 S    
C4    C28   1.469980 S    
C11   O22   1.382580 S    
O22   H12   0.991783 S    
C31   C40   1.413625 A    
C10   H1    1.083395 S    
C35   C37   1.408773 A    
C32   C39   1.413625 A    
C52   C56   1.424463 A    
C36   C38   1.408779 A    
O25   H15   0.990592 S    
C51   C55   1.424463 A    
C52   C53   1.416023 A    
C16   O18   1.381502 S    
C54   O13   1.384906 S    
C51   O16   1.385064 S    
C6    N2    1.365701 A    
C44   I6    2.141469 S    
C2    C50   1.423705 S    
C48   C49   1.200110 T    
Cu1   Cu2   2.638957 S    
C55   C57   1.482074 S    
O2    C2    1.279831 A    
C14   I2    2.146766 S    
C5    C21   1.410896 A    
C57   N4    1.170754 T    
O13   H3    0.988085 S    
C8    O11   1.349243 S    
C53   O14   1.384905 S    
C31   C33   1.414849 A    
C32   C34   1.414852 A    
C41   C43   1.405903 A    
O23   H13   0.990318 S    
C58   N3    1.170754 T    
C54   C56   1.424663 A    
O8    Cu2   1.944287 S    
C11   C27   1.408700 A    
O18   H8    0.986620 S    
C53   C55   1.424665 A    
C29   C35   1.418475 A    
C35   I3    2.152830 S    
C39   O25   1.383669 S    
C46   C48   1.434738 S    
C24   O20   1.381971 S    
C43   C46   1.407052 A    
C5    N1    1.365702 A    
C10   C18   1.394571 A    
C44   C45   1.407050 A    
C13   C27   1.416396 A    
O14   H4    0.988085 S    
C7    C25   1.410621 A    
O6    C4    1.283728 A    
C47   C50   1.200110 T    
C8    C26   1.410616 A    
C23   O19   1.381967 S    
N2    C8    1.365495 A    
C20   C26   1.413074 A    
O1    Cu1   1.926525 S    
C22   C24   1.412532 A    
C43   I5    2.141469 S    
C40   O26   1.383667 S    
C51   C54   1.416023 A    
C30   C31   1.421119 A    
C12   C28   1.408719 A    
N2    C18   1.435745 S    
C30   C36   1.418476 A    
C5    O9    1.349236 S    
Cu1   N4    1.982769 S    
O6    Cu2   1.946028 S    
N1    C7    1.365499 A    
C41   I7    2.141958 S    
O3    Cu1   1.925762 S    
C37   O23   1.381487 S    
C26   C37   1.412181 A    
C41   C45   1.406936 A    
C42   C46   1.406935 A    
C14   C16   1.418033 A    
C15   C17   1.403152 A    
O26   H16   0.990581 S    
C6    C22   1.410896 A    
C16   C18   1.403130 A    
O4    C1    1.279618 A    
C14   C28   1.416405 A    
C19   C21   1.413396 A    
C25   C38   1.412182 A    
C20   C22   1.413396 A    
C9    C11   1.400080 A    
O4    Cu2   1.925764 S    
O2    Cu2   1.926524 S    
O7    C4    1.283563 A    
O8    C3    1.283556 A    
C12   O21   1.382576 S    
C23   C39   1.415387 A    
O5    Cu1   1.946034 S    
C24   C40   1.415393 A    
C6    O10   1.349239 S    
C3    C27   1.469961 S    
O24   H14   0.990319 S    
C36   I4    2.152827 S    
C19   C34   1.416148 A    
C20   C33   1.416149 A    
O17   H7    0.986663 S    
C52   O15   1.385064 S    
C29   C33   1.414990 A    
C30   C34   1.414989 A    
C9    C17   1.394574 A    
