data_mof_unit_44579.cif
_audit_creation_date              2012-12-10T17:55:04-0500
_audit_creation_method            fapswitch 2.2
_symmetry_space_group_name_H-M    P1
_symmetry_Int_Tables_number       1
_space_group_crystal_system       triclinic
_cell_length_a                    8.718951
_cell_length_b                    10.823143
_cell_length_c                    9.531261
_cell_angle_alpha                 90.600862
_cell_angle_beta                  97.87403
_cell_angle_gamma                 89.933067
_cell_volume                      890.902128998

loop_
_atom_site_label
_atom_site_type_symbol
_atom_type_description
_atom_site_fract_x
_atom_site_fract_y
_atom_site_fract_z
_atom_type_partial_charge
C1    C     C_R   0.497978 0.262393 0.499106 0.821788
C2    C     C_R   0.497042 0.738015 0.500893 0.837686
C3    C     C_R   0.203789 0.499611 0.463752 0.856571
C4    C     C_R   0.796217 0.499678 0.536222 0.886555
C5    C     C_2   0.037942 0.498786 0.443731 -0.378806
C6    C     C_2   0.962082 0.499294 0.556165 -0.370548
C7    C     C_R   0.418960 0.062056 0.379275 0.489631
C8    C     C_R   0.534491 0.940313 0.629687 0.471857
C9    C     C_R   0.430901 0.934006 0.379121 -0.331569
C10   C     C_R   0.547770 0.067316 0.622319 -0.333541
C11   C     C_R   0.489428 0.872223 0.503478 -0.214037
C12   C     C_R   0.490152 0.128916 0.498310 -0.203016
C13   C     C_R   0.395140 0.430970 0.060339 0.000077
C14   C     C_R   0.605561 0.568369 0.939714 -0.039127
C15   C     C_R   0.395106 0.431027 0.911637 -0.032048
C16   C     C_R   0.605203 0.568669 0.088384 -0.036569
Cu1   Cu    Cu3+1 0.500000 0.500020 0.640660 0.938155
Cu2   Cu    Cu3+1 0.500000 0.499980 0.359340 0.944567
H1    H     H_    0.385482 0.882754 0.284324 0.183801
H2    H     H_    0.596380 0.118095 0.716620 0.188773
N1    N     N_R   0.500040 0.500030 0.852080 -0.164956
N2    N     N_R   0.499960 0.499970 0.147920 -0.161763
O1    O     O_R   0.499990 0.319660 0.618740 -0.596450
O2    O     O_R   0.500010 0.680340 0.381260 -0.590660
O3    O     O_R   0.499990 0.319630 0.381170 -0.548080
O4    O     O_R   0.500010 0.680370 0.618830 -0.561792
O5    O     O_R   0.274840 0.500010 0.591370 -0.586499
O6    O     O_R   0.725160 0.499990 0.408630 -0.581654
O7    O     O_R   0.274830 0.499980 0.353800 -0.600569
O8    O     O_R   0.725170 0.500020 0.646200 -0.588642
H3    H     H_    0.978063 0.498043 0.335863 0.172257
H4    H     H_    0.021993 0.499824 0.664019 0.171077
O9    O     O_3   0.338104 0.119004 0.262223 -0.610998
C17   C     C_3   0.193616 0.163500 0.295060 0.067988
H5    H     H_    0.145788 0.226418 0.208652 0.155495
H6    H     H_    0.205714 0.219842 0.394251 0.121319
C18   C     C_3   0.076208 0.058857 0.303881 -0.409137
H7    H     H_    0.065186 0.001587 0.205758 0.230237
H8    H     H_    0.116475 0.998624 0.395247 0.213378
C19   C     C_3   0.917182 0.110401 0.323261 -0.865646
H9    H     H_    0.924952 0.167075 0.421875 0.252142
H10   H     H_    0.835279 0.033044 0.331066 0.259812
H11   H     H_    0.871182 0.168338 0.231481 0.257769
O10   O     O_3   0.568061 0.885071 0.760690 -0.607030
C20   C     C_3   0.428319 0.868655 0.819468 0.091886
H12   H     H_    0.447768 0.793870 0.898650 0.168445
H13   H     H_    0.330417 0.837220 0.739107 0.134778
C21   C     C_3   0.381831 0.985756 0.895607 -0.381738
H14   H     H_    0.475345 0.011686 0.982170 0.245831
H15   H     H_    0.362977 0.063619 0.820523 0.214752
C22   C     C_3   0.231309 0.965675 0.956876 -0.881670
H16   H     H_    0.137468 0.936571 0.872209 0.247523
H17   H     H_    0.195900 0.053674 0.003675 0.278122
H18   H     H_    0.247050 0.893917 0.039987 0.251822
H19   H     H_    0.311264 0.375539 0.104986 0.126053
H20   H     H_    0.689637 0.623741 0.895011 0.147222
H21   H     H_    0.311192 0.375491 0.844547 0.120986
H22   H     H_    0.689157 0.624150 0.155474 0.128194

loop_
_geom_bond_atom_site_label_1
_geom_bond_atom_site_label_2
_ccdc_geom_bond_type
Cu1   Cu2   S    
C15   H21   S    
C14   H20   S    
C18   H7    S    
C17   C18   S    
C9    C11   A    
C6    H4    S    
C22   H18   S    
C3    O5    A    
O9    C17   S    
C2    O4    A    
Cu2   O7    S    
C16   H22   S    
C20   H12   S    
C1    O3    A    
Cu1   O8    S    
C7    O9    S    
C3    O7    A    
Cu1   O1    S    
C1    C12   S    
C10   C12   A    
C21   C22   S    
C8    C11   A    
Cu2   O2    S    
C2    C11   S    
C14   N1    A    
C21   H15   S    
C19   H9    S    
C4    O6    A    
C13   N2    A    
C1    O1    A    
C18   C19   S    
C17   H6    S    
C13   C15   A    
C2    O2    A    
C5    C6    D    
C18   H8    S    
Cu2   O3    S    
C14   C16   A    
C7    C12   A    
C20   C21   S    
C4    C6    S    
Cu1   O4    S    
C22   H17   S    
C22   H16   S    
Cu1   O5    S    
C3    C5    S    
C15   N1    A    
Cu2   O6    S    
O10   C20   S    
C8    C10   A    
C17   H5    S    
C20   H13   S    
C7    C9    A    
C21   H14   S    
C16   N2    A    
C5    H3    S    
Cu2   N2    S    
C9    H1    S    
C19   H11   S    
C4    O8    A    
C8    O10   S    
C10   H2    S    
C19   H10   S    
C13   H19   S    
Cu1   N1    S    
