data_mof_unit_42545.cif
_audit_creation_date              2012-12-11T14:13:05-0500
_audit_creation_method            fapswitch 2.2
_symmetry_space_group_name_H-M    P1
_symmetry_Int_Tables_number       1
_space_group_crystal_system       triclinic
_cell_length_a                    11.613291
_cell_length_b                    18.70636
_cell_length_c                    9.947457
_cell_angle_alpha                 90.000783
_cell_angle_beta                  110.614894
_cell_angle_gamma                 90.000055
_cell_volume                      2022.63579029

loop_
_atom_site_label
_atom_site_type_symbol
_atom_type_description
_atom_site_fract_x
_atom_site_fract_y
_atom_site_fract_z
_atom_type_partial_charge
C1    C     C_R   0.074501 0.646039 0.140509 0.577370
C2    C     C_R   0.925489 0.353967 0.859493 0.576996
C3    C     C_R   0.925482 0.146031 0.859487 0.577021
C4    C     C_R   0.074508 0.853963 0.140515 0.577357
C5    C     C_R   0.394589 0.456082 0.468541 -0.041647
C6    C     C_R   0.605639 0.544086 0.532124 -0.041772
C7    C     C_R   0.605632 0.955930 0.532053 -0.041751
C8    C     C_R   0.394575 0.043917 0.468550 -0.041644
C9    C     C_2   0.405798 0.923365 0.917786 0.374141
C10   C     C_2   0.595946 0.075327 0.078334 0.382881
C11   C     C_2   0.595948 0.424694 0.078241 0.383328
C12   C     C_2   0.405880 0.576679 0.917677 0.374022
C13   C     C_2   0.497102 0.961090 0.008926 -0.078605
C14   C     C_2   0.511409 0.035888 0.981603 -0.071027
C15   C     C_2   0.511712 0.464210 0.981305 -0.070666
C16   C     C_2   0.497289 0.538978 0.008726 -0.078724
C17   C     C_2   0.009015 0.920942 0.110838 0.378659
C18   C     C_2   0.990992 0.079054 0.889188 0.379909
C19   C     C_2   0.991002 0.420945 0.889208 0.379924
C20   C     C_2   0.009004 0.579059 0.110815 0.378617
C21   C     C_2   0.032814 0.966410 0.019544 0.377552
C22   C     C_2   0.967334 0.033627 0.980646 0.375880
C23   C     C_2   0.967315 0.466376 0.980625 0.375857
C24   C     C_2   0.032795 0.533595 0.019514 0.377655
C25   C     C_R   0.467956 0.646482 0.441467 0.525101
C26   C     C_R   0.532107 0.353568 0.558667 0.523315
C27   C     C_R   0.532098 0.146435 0.558651 0.523398
C28   C     C_R   0.467958 0.853518 0.441470 0.525042
C29   C     C_R   0.376409 0.645590 0.962734 0.568514
C30   C     C_R   0.623906 0.354711 0.036595 0.567890
C31   C     C_R   0.623900 0.145296 0.036614 0.567867
C32   C     C_R   0.376398 0.854418 0.962749 0.568419
C33   C     C_R   0.510811 0.425467 0.493931 -0.004086
C34   C     C_R   0.489406 0.574681 0.506633 -0.005852
C35   C     C_R   0.489414 0.925325 0.506627 -0.005864
C36   C     C_R   0.510782 0.074541 0.493884 -0.004237
C37   C     C_R   0.286969 0.413461 0.425564 -0.055611
C38   C     C_R   0.713194 0.586756 0.575013 -0.057288
C39   C     C_R   0.713201 0.913274 0.574926 -0.057251
C40   C     C_R   0.286950 0.086530 0.425605 -0.055654
C41   C     C_R   0.174588 0.441892 0.419836 0.415020
C42   C     C_R   0.825619 0.558354 0.580851 0.414392
C43   C     C_R   0.825609 0.941688 0.580724 0.414421
C44   C     C_R   0.174583 0.058091 0.419905 0.415024
C45   C     C_R   0.168475 0.512406 0.460121 0.013622
C46   C     C_R   0.831834 0.487819 0.540768 0.011917
C47   C     C_R   0.831784 0.012218 0.540592 0.012137
C48   C     C_R   0.168497 0.987578 0.460207 0.013674
C49   C     C_R   0.272506 0.555861 0.496012 -0.064104
C50   C     C_R   0.727869 0.444314 0.504982 -0.062390
C51   C     C_R   0.727801 0.055709 0.504806 -0.062525
C52   C     C_R   0.272537 0.944133 0.496086 -0.064132
C53   C     C_R   0.385650 0.529871 0.490528 -0.000569
C54   C     C_R   0.614639 0.470282 0.510277 0.002100
C55   C     C_R   0.614602 0.029733 0.510170 0.001897
C56   C     C_R   0.385660 0.970128 0.490557 -0.000568
Cr1   Cr    Cr6+3 0.187610 0.750000 0.979860 1.198211
Cr2   Cr    Cr6+3 0.812390 0.250000 0.020140 1.197398
Cr3   Cr    Cr6+3 0.245810 0.750000 0.341640 1.058396
Cr4   Cr    Cr6+3 0.754190 0.250000 0.658360 1.058891
Cr5   Cr    Cr6+3 0.485760 0.750000 0.219910 1.070511
Cr6   Cr    Cr6+3 0.514240 0.250000 0.780090 1.071979
O1    O     O_R   0.267710 0.668200 0.902110 -0.407630
O2    O     O_R   0.732290 0.331800 0.097890 -0.408994
O3    O     O_R   0.732290 0.168200 0.097890 -0.408905
O4    O     O_R   0.267710 0.831800 0.902110 -0.407678
O5    O     O_R   0.099480 0.674460 0.038850 -0.465380
O6    O     O_R   0.900520 0.325540 0.961150 -0.465473
O7    O     O_R   0.900520 0.174460 0.961150 -0.465475
O8    O     O_R   0.099480 0.825540 0.038850 -0.465408
O9    O     O_R   0.116720 0.669210 0.267660 -0.508037
O10   O     O_R   0.883280 0.330790 0.732340 -0.508306
O11   O     O_R   0.883280 0.169210 0.732340 -0.508224
O12   O     O_R   0.116720 0.830790 0.267660 -0.508019
O13   O     O_R   0.366710 0.675440 0.427590 -0.527768
O14   O     O_R   0.633290 0.324560 0.572410 -0.527037
O15   O     O_R   0.633290 0.175440 0.572410 -0.527023
O16   O     O_R   0.366710 0.824560 0.427590 -0.527755
O17   O     O_R   0.534870 0.669390 0.371760 -0.493845
O18   O     O_R   0.465130 0.330610 0.628240 -0.495688
O19   O     O_R   0.465130 0.169390 0.628240 -0.495615
O20   O     O_R   0.534870 0.830610 0.371760 -0.493900
O21   O     O_R   0.453080 0.674480 0.075160 -0.553185
O22   O     O_R   0.546920 0.325520 0.924840 -0.552028
O23   O     O_R   0.546920 0.174480 0.924840 -0.552033
O24   O     O_R   0.453080 0.825520 0.075160 -0.553189
O25   O     O_3   0.306390 0.750000 0.180470 -0.287414
O26   O     O_3   0.693610 0.250000 0.819530 -0.289206
F1    F     F_    0.072610 0.400157 0.380733 -0.572412
F2    F     F_    0.927536 0.600137 0.619833 -0.572657
F3    F     F_    0.927547 0.899922 0.619719 -0.572662
F4    F     F_    0.072598 0.099817 0.380816 -0.572408
H1    H     H_    0.082971 0.533729 0.463732 0.221914
H2    H     H_    0.917364 0.466519 0.537192 0.222022
H3    H     H_    0.917297 0.033525 0.536984 0.222087
H4    H     H_    0.083008 0.966250 0.463844 0.221966
H5    H     H_    0.289909 0.357801 0.396867 0.149013
H6    H     H_    0.710156 0.642437 0.603521 0.147813
H7    H     H_    0.710190 0.857598 0.603467 0.147834
H8    H     H_    0.289872 0.142188 0.396899 0.149002
H9    H     H_    0.263732 0.608476 0.535793 0.199631
H10   H     H_    0.736765 0.391703 0.465279 0.201147
H11   H     H_    0.736661 0.108318 0.465077 0.200995
H12   H     H_    0.263787 0.891518 0.535883 0.199586
H13   H     H_    0.455183 0.058349 0.878429 0.182885
H14   H     H_    0.557255 0.937777 0.109277 0.188197
H15   H     H_    0.557422 0.562277 0.109090 0.188249
H16   H     H_    0.455785 0.441824 0.877942 0.182578
F5    F     F_    0.672449 0.045946 0.202688 -0.604190
F6    F     F_    0.324798 0.954175 0.797930 -0.599159
F7    F     F_    0.324881 0.545864 0.797843 -0.599217
F8    F     F_    0.672126 0.453978 0.202867 -0.604650
F9    F     F_    0.877683 0.048883 0.035483 -0.567963
F10   F     F_    0.122627 0.951199 0.964916 -0.563896
F11   F     F_    0.122576 0.548813 0.964857 -0.563818
F12   F     F_    0.877652 0.451119 0.035446 -0.568199
F13   F     F_    0.069720 0.062972 0.819509 -0.568844
F14   F     F_    0.930133 0.936972 0.180363 -0.571462
F15   F     F_    0.930137 0.563019 0.180334 -0.571655
F16   F     F_    0.069769 0.437028 0.819592 -0.568848

loop_
_geom_bond_atom_site_label_1
_geom_bond_atom_site_label_2
_ccdc_geom_bond_type
C41   F1    S    
C29   O1    A    
C31   O23   A    
C5    C37   A    
C12   C29   S    
C7    C55   A    
Cr1   O4    S    
C38   H6    S    
C45   H1    S    
C8    C56   A    
C4    O8    A    
Cr4   O26   S    
C50   C54   A    
C10   F5    S    
C7    C39   A    
C5    C53   A    
C3    O7    A    
Cr1   O5    S    
C29   O21   A    
C30   O2    A    
Cr5   O20   S    
C49   H9    S    
Cr4   O10   S    
C51   H11   S    
C15   C16   S    
Cr4   O11   S    
C33   C54   A    
C3    C18   S    
C42   C46   A    
C9    C13   D    
Cr2   O3    S    
C9    C32   S    
C23   F12   S    
C11   C15   D    
C10   C31   S    
C22   F9    S    
C20   C24   D    
C11   C30   S    
C5    C33   A    
C26   O14   A    
C23   C24   S    
C6    C38   A    
Cr1   O8    S    
C28   O16   A    
C40   C44   A    
C4    O12   A    
C44   F4    S    
C25   C34   S    
C11   F8    S    
C18   C22   D    
C21   C22   S    
C37   C41   A    
C6    C54   A    
C2    O10   A    
Cr3   O16   S    
C37   H5    S    
Cr1   O1    S    
Cr3   O25   S    
C14   H13   S    
Cr2   O2    S    
Cr6   O23   S    
Cr4   O15   S    
C28   O20   A    
C12   C16   D    
C27   O19   A    
C44   C48   A    
C28   C35   S    
Cr5   O21   S    
C21   F10   S    
C39   C43   A    
Cr6   O26   S    
Cr4   O14   S    
C26   O18   A    
Cr1   O25   S    
C25   O13   A    
C15   H16   S    
C19   C23   D    
C40   H8    S    
C20   F15   S    
C26   C33   S    
C39   H7    S    
C18   F13   S    
C45   C49   A    
C32   O24   A    
C1    O9    A    
Cr3   O12   S    
C17   F14   S    
C24   F11   S    
C4    C17   S    
Cr2   O6    S    
Cr6   O19   S    
C19   F16   S    
C50   H10   S    
C10   C14   D    
Cr3   O13   S    
Cr5   O25   S    
Cr6   O18   S    
C9    F6    S    
C31   O3    A    
Cr6   O22   S    
C52   H12   S    
C1    C20   S    
C41   C45   A    
C48   H4    S    
C2    C19   S    
C25   O17   A    
C7    C35   A    
C13   H14   S    
C27   O15   A    
Cr2   O26   S    
C35   C56   A    
C47   C51   A    
Cr2   O7    S    
C8    C36   A    
C27   C36   S    
C46   C50   A    
C2    O6    A    
C36   C55   A    
Cr5   O17   S    
C49   C53   A    
C1    O5    A    
C51   C55   A    
C46   H2    S    
C30   O22   A    
C3    O11   A    
C43   F3    S    
C16   H15   S    
Cr5   O24   S    
C38   C42   A    
C6    C34   A    
C48   C52   A    
C34   C53   A    
C47   H3    S    
C8    C40   A    
C42   F2    S    
C13   C14   S    
C43   C47   A    
C12   F7    S    
C52   C56   A    
C32   O4    A    
Cr3   O9    S    
C17   C21   D    
