data_mof_unit_6784.cif
_audit_creation_date              2012-10-26T20:33:41-0400
_audit_creation_method            fapswitch 2.2
_symmetry_space_group_name_H-M    P1
_symmetry_Int_Tables_number       1
_space_group_crystal_system       triclinic
_cell_length_a                    10.833651
_cell_length_b                    9.064165
_cell_length_c                    7.995449
_cell_angle_alpha                 90.000024
_cell_angle_beta                  89.222121
_cell_angle_gamma                 89.999836
_cell_volume                      785.064744444

loop_
_atom_site_label
_atom_site_type_symbol
_atom_type_description
_atom_site_fract_x
_atom_site_fract_y
_atom_site_fract_z
_atom_type_partial_charge
Br1   Br    Br    0.095578 0.569048 0.837681 -0.313306
Br2   Br    Br    0.159469 0.376410 0.140748 -0.180894
Br3   Br    Br    0.840532 0.376414 0.859254 -0.180896
Br4   Br    Br    0.904425 0.569050 0.162321 -0.313308
C1    C     C_R   0.500000 0.220910 0.500000 0.581627
C2    C     C_1   0.500000 0.934397 0.500000 0.034389
C3    C     C_3   0.070078 0.631311 0.477003 -0.296149
C4    C     C_3   0.929921 0.631312 0.522999 -0.296149
C5    C     C_3   0.122942 0.471386 0.499130 -0.072686
C6    C     C_3   0.877057 0.471386 0.500870 -0.072685
C7    C     C_R   0.260974 0.485144 0.500162 0.577190
C8    C     C_R   0.739026 0.485144 0.499838 0.577192
C9    C     C_R   0.500000 0.779091 0.500000 0.539571
C10   C     C_1   0.500000 0.065645 0.500000 0.062517
C11   C     C_3   0.069998 0.409540 0.671456 0.363557
C12   C     C_3   0.072141 0.371127 0.350763 0.346815
C13   C     C_3   0.927859 0.371128 0.649238 0.346815
C14   C     C_3   0.930002 0.409541 0.328545 0.363556
Cl1   Cl    Cl    0.154806 0.253276 0.750023 -0.338373
Cl2   Cl    Cl    0.106650 0.178736 0.382482 -0.372671
Cl3   Cl    Cl    0.893349 0.178737 0.617520 -0.372671
Cl4   Cl    Cl    0.845195 0.253278 0.249976 -0.338373
Cu1   Cu    Cu3+1 0.500000 0.500010 0.669080 1.193668
Cu2   Cu    Cu3+1 0.500000 0.500010 0.330920 1.193668
H1    H     H_    0.118515 0.715329 0.553159 0.207337
H2    H     H_    0.087548 0.670279 0.347430 0.215828
H3    H     H_    0.912451 0.670277 0.652572 0.215828
H4    H     H_    0.881484 0.715330 0.446844 0.207337
N1    N     N_1   0.500000 0.499970 0.076820 -0.024617
N2    N     N_1   0.500000 0.499970 0.923180 -0.024617
O1    O     O_R   0.500000 0.288400 0.642760 -0.478749
O2    O     O_R   0.500000 0.288400 0.357240 -0.478749
O3    O     O_R   0.317700 0.499990 0.642790 -0.453682
O4    O     O_R   0.317700 0.499990 0.357210 -0.482896
O5    O     O_R   0.682300 0.499990 0.642790 -0.482896
O6    O     O_R   0.682300 0.499990 0.357210 -0.453682
O7    O     O_R   0.500000 0.711620 0.642810 -0.499425
O8    O     O_R   0.500000 0.711620 0.357190 -0.499425

loop_
_geom_bond_atom_site_label_1
_geom_bond_atom_site_label_2
_ccdc_geom_bond_type
Cu2   O8    S    
Cu1   Cu2   S    
Cu2   O2    S    
N1    N2    T    
Br1   C11   S    
C8    O6    A    
Br2   C12   S    
C9    O7    A    
C3    H1    S    
C12   Cl2   S    
C1    O2    A    
Br4   C14   S    
C9    O8    A    
C3    C4    S    
C14   Cl4   S    
C8    O5    A    
C11   Cl1   S    
C5    C7    S    
C1    C10   S    
Cu2   O6    S    
C3    H2    S    
C6    C8    S    
C6    C14   S    
C4    C6    S    
C5    C12   S    
Br3   C13   S    
Cu1   O5    S    
C5    C11   S    
C4    H4    S    
C13   Cl3   S    
C2    C10   T    
C6    C13   S    
Cu1   N2    S    
C3    C5    S    
C7    O3    A    
Cu1   O3    S    
C12   C14   S    
C11   C13   S    
C4    H3    S    
Cu2   N1    S    
C1    O1    A    
Cu1   O7    S    
C7    O4    A    
Cu2   O4    S    
C2    C9    S    
Cu1   O1    S    
