data_mof_unit_52186.cif
_audit_creation_date              2012-12-11T16:32:32-0500
_audit_creation_method            fapswitch 2.2
_symmetry_space_group_name_H-M    P1
_symmetry_Int_Tables_number       1
_space_group_crystal_system       triclinic
_cell_length_a                    6.951242
_cell_length_b                    14.119367
_cell_length_c                    16.306125
_cell_angle_alpha                 90.187575
_cell_angle_beta                  90.073722
_cell_angle_gamma                 90.186682
_cell_volume                      1600.38106469

loop_
_atom_site_label
_atom_site_type_symbol
_atom_type_description
_atom_site_fract_x
_atom_site_fract_y
_atom_site_fract_z
_atom_type_partial_charge
O1    O     O_R   0.361630 0.167340 0.164570 -0.535386
O2    O     O_R   0.638370 0.832660 0.835430 -0.535257
O3    O     O_R   0.690860 0.157560 0.338690 -0.538207
O4    O     O_R   0.309140 0.842440 0.661310 -0.538359
O5    O     O_R   0.861260 0.336420 0.339380 -0.535831
O6    O     O_R   0.138740 0.663580 0.660620 -0.545781
C1    C     C_R   0.521818 0.134542 0.367961 0.666223
C2    C     C_R   0.478196 0.865591 0.632130 0.664379
O7    O     O_R   0.691330 0.156310 0.165190 -0.537058
O8    O     O_R   0.308670 0.843690 0.834810 -0.538212
O9    O     O_R   0.861730 0.335160 0.164640 -0.535366
O10   O     O_R   0.138270 0.664840 0.835360 -0.538715
C3    C     C_R   0.521970 0.132874 0.137399 0.702732
C4    C     C_R   0.477209 0.863997 0.864866 0.702705
O11   O     O_R   0.361150 0.168600 0.339320 -0.536270
O12   O     O_R   0.638850 0.831400 0.660680 -0.537032
O13   O     O_3   0.527950 0.310560 0.252000 -0.370695
O14   O     O_3   0.472050 0.689440 0.748000 -0.370774
V1    V     V_3+5 0.802770 0.240990 0.251980 1.411234
V2    V     V_3+5 0.197230 0.759010 0.748020 1.404125
O15   O     O_R   0.191450 0.346190 0.165260 -0.542244
O16   O     O_R   0.808550 0.653810 0.834740 -0.538944
C5    C     C_R   0.021796 0.370895 0.138564 0.684978
C6    C     C_R   0.976770 0.628288 0.860524 0.691646
O17   O     O_R   0.190980 0.347440 0.338770 -0.545069
O18   O     O_R   0.809020 0.652560 0.661230 -0.540580
C7    C     C_R   0.023259 0.372296 0.365443 0.692582
C8    C     C_R   0.978442 0.629767 0.633161 0.711512
V3    V     V_3+5 0.302780 0.262760 0.251980 1.399812
V4    V     V_3+5 0.697220 0.737240 0.748020 1.410431
O19   O     O_3   0.027730 0.193200 0.251960 -0.365129
O20   O     O_3   0.972270 0.806800 0.748040 -0.366772
C9    C     C_3   0.850601 0.447762 0.495670 -0.228616
C10   C     C_3   0.164640 0.559567 0.502681 -0.230598
C11   C     C_3   0.999526 0.453617 0.566088 0.497133
C12   C     C_3   0.024129 0.553869 0.430089 0.500827
H1    H     H_    0.721703 0.401397 0.492495 0.125274
H2    H     H_    0.291708 0.606575 0.510216 0.121979
C13   C     C_3   0.993261 0.561897 0.562303 -0.130187
C14   C     C_3   0.019170 0.444890 0.433459 -0.143073
C15   C     C_3   0.850813 0.558509 0.489791 -0.233732
C16   C     C_3   0.166803 0.449549 0.504219 -0.268712
H3    H     H_    0.721733 0.603866 0.482963 0.126091
H4    H     H_    0.302256 0.408428 0.505212 0.132191
H5    H     H_    0.886453 0.295877 0.771226 0.158246
H6    H     H_    0.883181 0.698501 0.230066 0.158225
C17   C     C_R   0.964836 0.697513 0.025935 -0.139622
C18   C     C_R   0.008255 0.301747 0.972221 -0.137451
C19   C     C_R   0.933516 0.732676 0.104447 -0.105105
C20   C     C_R   0.972695 0.265064 0.894332 -0.109149
C21   C     C_R   0.913394 0.670585 0.169614 -0.145775
C22   C     C_R   0.921715 0.325283 0.830739 -0.139707
C23   C     C_R   0.935356 0.573094 0.157612 -0.173480
C24   C     C_R   0.919623 0.423258 0.843038 -0.178954
C25   C     C_R   0.977183 0.535824 0.079681 0.062958
C26   C     C_R   0.968734 0.462620 0.919717 0.055427
C27   C     C_R   0.979216 0.598808 0.011732 0.068655
C28   C     C_R   0.998947 0.400415 0.987043 0.070176
C29   C     C_R   0.007750 0.437230 0.067727 -0.184408
C30   C     C_R   0.981212 0.562086 0.931198 -0.183837
H7    H     H_    0.971379 0.748305 0.976454 0.114090
H8    H     H_    0.038341 0.251905 0.020827 0.113705
H9    H     H_    0.919174 0.808185 0.114366 0.133079
H10   H     H_    0.977555 0.189321 0.884010 0.132039
H11   H     H_    0.914791 0.526643 0.209255 0.110707
H12   H     H_    0.880895 0.467895 0.791809 0.131347
C31   C     C_3   0.322803 0.030523 0.481309 -0.105464
C32   C     C_3   0.677202 0.969782 0.518883 -0.104416
C33   C     C_3   0.390927 0.926023 0.477202 -0.139758
C34   C     C_3   0.609109 0.074269 0.522967 -0.138175
H13   H     H_    0.300479 0.864939 0.457858 0.109226
H14   H     H_    0.700302 0.135150 0.542046 0.102787
H15   H     H_    0.175452 0.055204 0.466266 0.109753
H16   H     H_    0.824575 0.945152 0.533951 0.110859
C35   C     C_3   0.489555 0.937595 0.561610 -0.015272
C36   C     C_3   0.510455 0.062690 0.438577 -0.014914
C37   C     C_3   0.421570 0.041547 0.566260 -0.145061
C38   C     C_3   0.578467 0.958776 0.433942 -0.142994
H17   H     H_    0.356774 0.076369 0.620723 0.100135
H18   H     H_    0.643361 0.924080 0.379447 0.103465
H19   H     H_    0.444051 0.808492 0.241961 0.117935
H20   H     H_    0.519259 0.185603 0.761134 0.130659
C39   C     C_R   0.510956 0.194513 0.968597 -0.138837
C40   C     C_R   0.451565 0.802421 0.033947 -0.136334
C41   C     C_R   0.509592 0.226439 0.887894 -0.092315
C42   C     C_R   0.438107 0.770400 0.114401 -0.101050
C43   C     C_R   0.512333 0.161751 0.823495 -0.163337
C44   C     C_R   0.453863 0.833876 0.179526 -0.144951
C45   C     C_R   0.506866 0.065170 0.838697 -0.144710
C46   C     C_R   0.480861 0.930217 0.164608 -0.142643
C47   C     C_R   0.501267 0.030618 0.919702 0.075098
C48   C     C_R   0.490767 0.965180 0.083539 0.068733
C49   C     C_R   0.508294 0.096460 0.986173 0.055348
C50   C     C_R   0.477165 0.899705 0.016820 0.052518
C51   C     C_R   0.486805 0.932277 0.934791 -0.186730
C52   C     C_R   0.509838 0.063688 0.068215 -0.186199
H21   H     H_    0.513152 0.247406 0.016779 0.110479
H22   H     H_    0.439206 0.750257 0.985419 0.107721
H23   H     H_    0.510614 0.301675 0.875335 0.129220
H24   H     H_    0.414822 0.695844 0.125942 0.122239
H25   H     H_    0.506124 0.018135 0.786145 0.093461
H26   H     H_    0.491256 0.977022 0.217151 0.089644
O21   O     O_3   0.001815 0.402430 0.640535 -0.588766
C53   C     C_3   0.191192 0.405101 0.674132 0.064540
H27   H     H_    0.185836 0.411725 0.741220 0.134530
H28   H     H_    0.275013 0.469320 0.656115 0.122343
C54   C     C_3   0.300163 0.313705 0.654144 -0.338090
H29   H     H_    0.258127 0.258108 0.698712 0.182681
H30   H     H_    0.260970 0.286510 0.592397 0.200229
C55   C     C_3   0.517188 0.330744 0.657605 -0.818213
H31   H     H_    0.558404 0.388754 0.615504 0.237263
H32   H     H_    0.595027 0.265748 0.638794 0.224444
H33   H     H_    0.561115 0.351124 0.720728 0.232563
O22   O     O_3   0.052104 0.615164 0.362754 -0.593563
C56   C     C_3   0.207601 0.585790 0.312142 0.048677
H34   H     H_    0.214059 0.635967 0.260215 0.162385
H35   H     H_    0.181693 0.514787 0.285569 0.113341
C57   C     C_3   0.407415 0.589070 0.352185 -0.361404
H36   H     H_    0.429136 0.657989 0.384059 0.194326
H37   H     H_    0.424907 0.529684 0.395696 0.199584
C58   C     C_3   0.563349 0.576341 0.288075 -0.813148
H38   H     H_    0.541816 0.509165 0.253585 0.243669
H39   H     H_    0.705018 0.573994 0.318874 0.251737
H40   H     H_    0.561485 0.636522 0.244878 0.224330

loop_
_geom_bond_atom_site_label_1
_geom_bond_atom_site_label_2
_ccdc_geom_bond_type
C19   H9    S    
C25   C29   A    
C20   H10   S    
C31   C37   S    
O4    C2    A    
V1    O19   S    
C53   H28   S    
O22   C56   S    
C33   C38   S    
C17   C19   A    
C32   C35   S    
C5    C29   S    
O9    V1    S    
C24   H12   S    
C36   C38   S    
O3    C1    A    
C38   H18   S    
C17   C27   A    
C32   H16   S    
H20   C43   S    
C39   C49   A    
C48   C52   A    
O13   V3    S    
C33   H13   S    
C11   C16   S    
O7    C3    A    
C55   H31   S    
C46   H26   S    
C58   H40   S    
C9    C11   S    
C57   H36   S    
C18   H8    S    
O7    V1    S    
O6    C8    A    
O8    V2    S    
C19   C21   A    
C10   C16   S    
C20   C22   A    
C54   H29   S    
O3    V1    S    
C31   H15   S    
C45   C47   A    
C42   H24   S    
O14   V2    S    
C18   C20   A    
C12   O22   S    
C2    O12   A    
O5    C7    A    
C34   C37   S    
O17   V3    S    
C15   H3    S    
C12   C15   S    
C16   H4    S    
O1    V3    S    
C53   H27   S    
C22   C24   A    
O11   V3    S    
C55   H32   S    
C23   C25   A    
C32   C38   S    
C24   C26   A    
C9    C14   S    
C41   C43   A    
C10   C13   S    
C12   C14   S    
C13   C15   S    
O8    C4    A    
C27   C30   A    
C1    O11   A    
C3    C52   S    
H5    C22   S    
C56   H35   S    
C28   C29   A    
O15   V3    S    
H6    C21   S    
C2    C35   S    
C9    H1    S    
C26   C30   A    
C21   C23   A    
C57   C58   S    
C11   C13   S    
C41   H23   S    
C47   C49   A    
C46   C48   A    
C7    C14   S    
C6    C30   S    
C56   C57   S    
O10   V2    S    
C48   C50   A    
C37   H17   S    
C40   C50   A    
C35   C37   S    
C55   H33   S    
C58   H38   S    
O14   V4    S    
C39   C41   A    
C44   C46   A    
O18   V4    S    
C49   C52   A    
C25   C27   A    
C34   C36   S    
C54   C55   S    
O16   C6    A    
O1    C3    A    
C4    C51   S    
C23   H11   S    
V2    O20   S    
O16   V4    S    
C45   H25   S    
C10   H2    S    
O18   C8    A    
C40   C42   A    
C14   C16   S    
C17   H7    S    
C18   C28   A    
C1    C36   S    
O5    V1    S    
O17   C7    A    
O6    V2    S    
O10   C6    A    
C11   O21   S    
C8    C13   S    
O2    V4    S    
C40   H22   S    
O15   C5    A    
C9    C15   S    
V3    O19   S    
V4    O20   S    
C54   H30   S    
O9    C5    A    
O13   V1    S    
C10   C12   S    
C26   C28   A    
C33   C35   S    
C42   C44   A    
C50   C51   A    
O2    C4    A    
C57   H37   S    
C58   H39   S    
H19   C44   S    
C47   C51   A    
O4    V2    S    
C32   C34   S    
C39   H21   S    
O21   C53   S    
C43   C45   A    
C34   H14   S    
C31   C36   S    
C31   C33   S    
O12   V4    S    
C53   C54   S    
C56   H34   S    
