data_mof_unit_55542.cif
_audit_creation_date              2012-12-10T22:16:26-0500
_audit_creation_method            fapswitch 2.2
_symmetry_space_group_name_H-M    P1
_symmetry_Int_Tables_number       1
_space_group_crystal_system       cubic
_cell_length_a                    26.5942
_cell_length_b                    26.5942
_cell_length_c                    26.5942
_cell_angle_alpha                 90.0
_cell_angle_beta                  90.0
_cell_angle_gamma                 90.0
_cell_volume                      18808.7871403

loop_
_atom_site_label
_atom_site_type_symbol
_atom_type_description
_atom_site_fract_x
_atom_site_fract_y
_atom_site_fract_z
_atom_type_partial_charge
C1    C     C_R   0.571114 0.297415 0.297415 0.889377
C2    C     C_R   0.428886 0.297415 0.297415 0.889377
C3    C     C_R   0.177469 0.886975 0.322531 -0.064840
C4    C     C_R   0.322531 0.113025 0.822531 -0.064840
C5    C     C_R   0.677469 0.886975 0.177469 -0.064840
C6    C     C_R   0.177469 0.113025 0.322531 -0.064840
C7    C     C_R   0.822531 0.886975 0.677469 -0.064840
C8    C     C_R   0.677469 0.886975 0.822531 -0.064840
C9    C     C_R   0.322531 0.113025 0.177469 -0.064840
C10   C     C_R   0.822531 0.886975 0.322531 -0.064840
C11   C     C_R   0.177469 0.113025 0.677469 -0.064840
C12   C     C_R   0.322531 0.886975 0.177469 -0.064840
C13   C     C_R   0.702585 0.702585 0.428886 0.889377
C14   C     C_R   0.677469 0.113025 0.822531 -0.064840
C15   C     C_R   0.177469 0.886975 0.677469 -0.064840
C16   C     C_R   0.822531 0.113025 0.322531 -0.064840
C17   C     C_R   0.886975 0.822531 0.677469 -0.064840
C18   C     C_R   0.113025 0.177469 0.322531 -0.064840
C19   C     C_R   0.886975 0.322531 0.822531 -0.064840
C20   C     C_R   0.113025 0.677469 0.177469 -0.064840
C21   C     C_R   0.886975 0.177469 0.322531 -0.064840
C22   C     C_R   0.113025 0.822531 0.677469 -0.064840
C23   C     C_R   0.886975 0.677469 0.177469 -0.064840
C24   C     C_R   0.297415 0.297415 0.571114 0.889377
C25   C     C_R   0.113025 0.322531 0.822531 -0.064840
C26   C     C_R   0.113025 0.177469 0.677469 -0.064840
C27   C     C_R   0.886975 0.822531 0.322531 -0.064840
C28   C     C_R   0.113025 0.677469 0.822531 -0.064840
C29   C     C_R   0.886975 0.322531 0.177469 -0.064840
C30   C     C_R   0.113025 0.822531 0.322531 -0.064840
C31   C     C_R   0.886975 0.177469 0.677469 -0.064840
C32   C     C_R   0.113025 0.322531 0.177469 -0.064840
C33   C     C_R   0.886975 0.677469 0.822531 -0.064840
C34   C     C_R   0.177469 0.322531 0.886975 -0.064840
C35   C     C_R   0.428886 0.702585 0.297415 0.889377
C36   C     C_R   0.822531 0.677469 0.113025 -0.064840
C37   C     C_R   0.677469 0.177469 0.886975 -0.064840
C38   C     C_R   0.322531 0.822531 0.113025 -0.064840
C39   C     C_R   0.822531 0.677469 0.886975 -0.064840
C40   C     C_R   0.177469 0.322531 0.113025 -0.064840
C41   C     C_R   0.322531 0.822531 0.886975 -0.064840
C42   C     C_R   0.677469 0.177469 0.113025 -0.064840
C43   C     C_R   0.822531 0.322531 0.113025 -0.064840
C44   C     C_R   0.177469 0.677469 0.886975 -0.064840
C45   C     C_R   0.322531 0.177469 0.113025 -0.064840
C46   C     C_R   0.571114 0.297415 0.702585 0.889377
C47   C     C_R   0.677469 0.822531 0.886975 -0.064840
C48   C     C_R   0.177469 0.677469 0.113025 -0.064840
C49   C     C_R   0.822531 0.322531 0.886975 -0.064840
C50   C     C_R   0.677469 0.822531 0.113025 -0.064840
C51   C     C_R   0.322531 0.177469 0.886975 -0.064840
C52   C     C_R   0.177469 0.613025 0.177469 -0.064840
C53   C     C_R   0.822531 0.386975 0.822531 -0.064840
C54   C     C_R   0.822531 0.613025 0.177469 -0.064840
C55   C     C_R   0.177469 0.386975 0.822531 -0.064840
C56   C     C_R   0.822531 0.613025 0.822531 -0.064840
C57   C     C_R   0.297415 0.702585 0.571114 0.889377
C58   C     C_R   0.177469 0.386975 0.177469 -0.064840
C59   C     C_R   0.177469 0.613025 0.822531 -0.064840
C60   C     C_R   0.822531 0.386975 0.177469 -0.064840
C61   C     C_R   0.386975 0.822531 0.177469 -0.064840
C62   C     C_R   0.613025 0.177469 0.822531 -0.064840
C63   C     C_R   0.386975 0.822531 0.822531 -0.064840
C64   C     C_R   0.613025 0.177469 0.177469 -0.064840
C65   C     C_R   0.386975 0.177469 0.822531 -0.064840
C66   C     C_R   0.613025 0.822531 0.177469 -0.064840
C67   C     C_R   0.386975 0.177469 0.177469 -0.064840
C68   C     C_R   0.702585 0.297415 0.428886 0.889377
C69   C     C_R   0.613025 0.822531 0.822531 -0.064840
C70   C     C_R   0.177469 0.822531 0.386975 -0.064840
C71   C     C_R   0.822531 0.177469 0.613025 -0.064840
C72   C     C_R   0.177469 0.177469 0.386975 -0.064840
C73   C     C_R   0.822531 0.822531 0.613025 -0.064840
C74   C     C_R   0.822531 0.177469 0.386975 -0.064840
C75   C     C_R   0.177469 0.822531 0.613025 -0.064840
C76   C     C_R   0.822531 0.822531 0.386975 -0.064840
C77   C     C_R   0.177469 0.177469 0.613025 -0.064840
C78   C     C_R   0.677469 0.613025 0.677469 -0.064840
C79   C     C_R   0.702585 0.428886 0.702585 0.889377
C80   C     C_R   0.322531 0.386975 0.322531 -0.064840
C81   C     C_R   0.322531 0.613025 0.677469 -0.064840
C82   C     C_R   0.677469 0.386975 0.322531 -0.064840
C83   C     C_R   0.322531 0.613025 0.322531 -0.064840
C84   C     C_R   0.677469 0.386975 0.677469 -0.064840
C85   C     C_R   0.677469 0.613025 0.322531 -0.064840
C86   C     C_R   0.322531 0.386975 0.677469 -0.064840
C87   C     C_R   0.386975 0.322531 0.677469 -0.064840
C88   C     C_R   0.613025 0.677469 0.322531 -0.064840
C89   C     C_R   0.386975 0.322531 0.322531 -0.064840
C90   C     C_R   0.297415 0.571114 0.297415 0.889377
C91   C     C_R   0.613025 0.677469 0.677469 -0.064840
C92   C     C_R   0.386975 0.677469 0.322531 -0.064840
C93   C     C_R   0.613025 0.322531 0.677469 -0.064840
C94   C     C_R   0.386975 0.677469 0.677469 -0.064840
C95   C     C_R   0.613025 0.322531 0.322531 -0.064840
C96   C     C_R   0.677469 0.322531 0.386975 -0.064840
C97   C     C_R   0.322531 0.677469 0.613025 -0.064840
C98   C     C_R   0.677469 0.677469 0.386975 -0.064840
C99   C     C_R   0.322531 0.322531 0.613025 -0.064840
C100  C     C_R   0.322531 0.677469 0.386975 -0.064840
C101  C     C_R   0.702585 0.571114 0.297415 0.889377
C102  C     C_R   0.677469 0.322531 0.613025 -0.064840
C103  C     C_R   0.322531 0.322531 0.386975 -0.064840
C104  C     C_R   0.677469 0.677469 0.613025 -0.064840
C105  C     C_R   0.698587 0.134322 0.134322 -0.221379
C106  C     C_R   0.301413 0.865678 0.865678 -0.221379
C107  C     C_R   0.865678 0.134322 0.698587 -0.221379
C108  C     C_R   0.134322 0.865678 0.301413 -0.221379
C109  C     C_R   0.301413 0.134322 0.865678 -0.221379
C110  C     C_R   0.698587 0.865678 0.134322 -0.221379
C111  C     C_R   0.134322 0.134322 0.301413 -0.221379
C112  C     C_R   0.428886 0.702585 0.702585 0.889377
C113  C     C_R   0.297415 0.428886 0.702585 0.889377
C114  C     C_R   0.865678 0.865678 0.698587 -0.221379
C115  C     C_R   0.698587 0.865678 0.865678 -0.221379
C116  C     C_R   0.301413 0.134322 0.134322 -0.221379
C117  C     C_R   0.865678 0.865678 0.301413 -0.221379
C118  C     C_R   0.134322 0.134322 0.698587 -0.221379
C119  C     C_R   0.301413 0.865678 0.134322 -0.221379
C120  C     C_R   0.698587 0.134322 0.865678 -0.221379
C121  C     C_R   0.134322 0.865678 0.698587 -0.221379
C122  C     C_R   0.865678 0.134322 0.301413 -0.221379
C123  C     C_R   0.865678 0.301413 0.865678 -0.221379
C124  C     C_R   0.297415 0.571114 0.702585 0.889377
C125  C     C_R   0.134322 0.698587 0.134322 -0.221379
C126  C     C_R   0.865678 0.698587 0.134322 -0.221379
C127  C     C_R   0.134322 0.301413 0.865678 -0.221379
C128  C     C_R   0.134322 0.698587 0.865678 -0.221379
C129  C     C_R   0.865678 0.301413 0.134322 -0.221379
C130  C     C_R   0.134322 0.301413 0.134322 -0.221379
C131  C     C_R   0.865678 0.698587 0.865678 -0.221379
C132  C     C_R   0.198587 0.634322 0.134322 -0.221379
C133  C     C_R   0.801413 0.365678 0.865678 -0.221379
C134  C     C_R   0.865678 0.634322 0.198587 -0.221379
C135  C     C_R   0.702585 0.428886 0.297415 0.889377
C136  C     C_R   0.134322 0.365678 0.801413 -0.221379
C137  C     C_R   0.801413 0.634322 0.865678 -0.221379
C138  C     C_R   0.198587 0.365678 0.134322 -0.221379
C139  C     C_R   0.134322 0.634322 0.801413 -0.221379
C140  C     C_R   0.865678 0.365678 0.198587 -0.221379
C141  C     C_R   0.198587 0.365678 0.865678 -0.221379
C142  C     C_R   0.801413 0.634322 0.134322 -0.221379
C143  C     C_R   0.865678 0.365678 0.801413 -0.221379
C144  C     C_R   0.134322 0.634322 0.198587 -0.221379
C145  C     C_R   0.801413 0.365678 0.134322 -0.221379
C146  C     C_R   0.297415 0.428886 0.297415 0.889377
C147  C     C_R   0.198587 0.634322 0.865678 -0.221379
C148  C     C_R   0.134322 0.365678 0.198587 -0.221379
C149  C     C_R   0.865678 0.634322 0.801413 -0.221379
C150  C     C_R   0.365678 0.865678 0.198587 -0.221379
C151  C     C_R   0.634322 0.134322 0.801413 -0.221379
C152  C     C_R   0.365678 0.801413 0.865678 -0.221379
C153  C     C_R   0.634322 0.198587 0.134322 -0.221379
C154  C     C_R   0.365678 0.134322 0.801413 -0.221379
C155  C     C_R   0.634322 0.865678 0.198587 -0.221379
C156  C     C_R   0.365678 0.198587 0.134322 -0.221379
C157  C     C_R   0.702585 0.571114 0.702585 0.889377
C158  C     C_R   0.634322 0.801413 0.865678 -0.221379
C159  C     C_R   0.634322 0.134322 0.198587 -0.221379
C160  C     C_R   0.365678 0.865678 0.801413 -0.221379
C161  C     C_R   0.634322 0.198587 0.865678 -0.221379
C162  C     C_R   0.365678 0.801413 0.134322 -0.221379
C163  C     C_R   0.634322 0.865678 0.801413 -0.221379
C164  C     C_R   0.365678 0.134322 0.198587 -0.221379
C165  C     C_R   0.634322 0.801413 0.134322 -0.221379
C166  C     C_R   0.365678 0.198587 0.865678 -0.221379
C167  C     C_R   0.134322 0.801413 0.365678 -0.221379
C168  C     C_R   0.071114 0.797415 0.297415 0.889377
C169  C     C_R   0.865678 0.198587 0.634322 -0.221379
C170  C     C_R   0.198587 0.134322 0.365678 -0.221379
C171  C     C_R   0.801413 0.865678 0.634322 -0.221379
C172  C     C_R   0.865678 0.198587 0.365678 -0.221379
C173  C     C_R   0.134322 0.801413 0.634322 -0.221379
C174  C     C_R   0.801413 0.865678 0.365678 -0.221379
C175  C     C_R   0.198587 0.134322 0.634322 -0.221379
C176  C     C_R   0.865678 0.801413 0.634322 -0.221379
C177  C     C_R   0.134322 0.198587 0.365678 -0.221379
C178  C     C_R   0.801413 0.134322 0.634322 -0.221379
C179  C     C_R   0.928886 0.202585 0.702585 0.889377
C180  C     C_R   0.198587 0.865678 0.365678 -0.221379
C181  C     C_R   0.134322 0.198587 0.634322 -0.221379
C182  C     C_R   0.865678 0.801413 0.365678 -0.221379
C183  C     C_R   0.198587 0.865678 0.634322 -0.221379
C184  C     C_R   0.801413 0.134322 0.365678 -0.221379
C185  C     C_R   0.698587 0.634322 0.634322 -0.221379
C186  C     C_R   0.301413 0.365678 0.365678 -0.221379
C187  C     C_R   0.365678 0.634322 0.698587 -0.221379
C188  C     C_R   0.634322 0.365678 0.301413 -0.221379
C189  C     C_R   0.301413 0.634322 0.365678 -0.221379
C190  C     C_R   0.702585 0.797415 0.071114 0.889377
C191  C     C_R   0.698587 0.365678 0.634322 -0.221379
C192  C     C_R   0.634322 0.634322 0.301413 -0.221379
C193  C     C_R   0.365678 0.365678 0.698587 -0.221379
C194  C     C_R   0.698587 0.365678 0.365678 -0.221379
C195  C     C_R   0.301413 0.634322 0.634322 -0.221379
C196  C     C_R   0.365678 0.365678 0.301413 -0.221379
C197  C     C_R   0.634322 0.634322 0.698587 -0.221379
C198  C     C_R   0.301413 0.365678 0.634322 -0.221379
C199  C     C_R   0.698587 0.634322 0.365678 -0.221379
C200  C     C_R   0.634322 0.365678 0.698587 -0.221379
C201  C     C_R   0.297415 0.202585 0.928886 0.889377
C202  C     C_R   0.365678 0.634322 0.301413 -0.221379
C203  C     C_R   0.365678 0.301413 0.365678 -0.221379
C204  C     C_R   0.634322 0.698587 0.634322 -0.221379
C205  C     C_R   0.365678 0.698587 0.634322 -0.221379
C206  C     C_R   0.634322 0.301413 0.365678 -0.221379
C207  C     C_R   0.634322 0.698587 0.365678 -0.221379
C208  C     C_R   0.365678 0.301413 0.634322 -0.221379
C209  C     C_R   0.634322 0.301413 0.634322 -0.221379
C210  C     C_R   0.365678 0.698587 0.365678 -0.221379
C211  C     C_R   0.928886 0.797415 0.702585 0.889377
C212  C     C_R   0.702585 0.297415 0.571114 0.889377
C213  C     C_R   0.071114 0.202585 0.297415 0.889377
C214  C     C_R   0.297415 0.797415 0.928886 0.889377
C215  C     C_R   0.702585 0.202585 0.071114 0.889377
C216  C     C_R   0.071114 0.202585 0.702585 0.889377
C217  C     C_R   0.928886 0.797415 0.297415 0.889377
C218  C     C_R   0.702585 0.202585 0.928886 0.889377
C219  C     C_R   0.297415 0.797415 0.071114 0.889377
C220  C     C_R   0.928886 0.202585 0.297415 0.889377
C221  C     C_R   0.071114 0.797415 0.702585 0.889377
C222  C     C_R   0.297415 0.202585 0.071114 0.889377
C223  C     C_R   0.297415 0.702585 0.428886 0.889377
C224  C     C_R   0.702585 0.797415 0.928886 0.889377
C225  C     C_R   0.202585 0.702585 0.071114 0.889377
C226  C     C_R   0.797415 0.297415 0.928886 0.889377
C227  C     C_R   0.202585 0.928886 0.702585 0.889377
C228  C     C_R   0.797415 0.071114 0.297415 0.889377
C229  C     C_R   0.202585 0.297415 0.928886 0.889377
C230  C     C_R   0.797415 0.702585 0.071114 0.889377
C231  C     C_R   0.202585 0.071114 0.297415 0.889377
C232  C     C_R   0.797415 0.928886 0.702585 0.889377
C233  C     C_R   0.797415 0.297415 0.071114 0.889377
C234  C     C_R   0.428886 0.297415 0.702585 0.889377
C235  C     C_R   0.202585 0.702585 0.928886 0.889377
C236  C     C_R   0.797415 0.071114 0.702585 0.889377
C237  C     C_R   0.202585 0.928886 0.297415 0.889377
C238  C     C_R   0.797415 0.702585 0.928886 0.889377
C239  C     C_R   0.202585 0.297415 0.071114 0.889377
C240  C     C_R   0.797415 0.928886 0.297415 0.889377
C241  C     C_R   0.202585 0.071114 0.702585 0.889377
C242  C     C_R   0.297415 0.928886 0.202585 0.889377
C243  C     C_R   0.702585 0.071114 0.797415 0.889377
C244  C     C_R   0.071114 0.297415 0.202585 0.889377
C245  C     C_R   0.571114 0.702585 0.297415 0.889377
C246  C     C_R   0.928886 0.702585 0.797415 0.889377
C247  C     C_R   0.702585 0.071114 0.202585 0.889377
C248  C     C_R   0.297415 0.928886 0.797415 0.889377
C249  C     C_R   0.928886 0.702585 0.202585 0.889377
C250  C     C_R   0.071114 0.297415 0.797415 0.889377
C251  C     C_R   0.702585 0.928886 0.797415 0.889377
C252  C     C_R   0.297415 0.071114 0.202585 0.889377
C253  C     C_R   0.928886 0.297415 0.797415 0.889377
C254  C     C_R   0.071114 0.702585 0.202585 0.889377
C255  C     C_R   0.297415 0.071114 0.797415 0.889377
C256  C     C_R   0.297415 0.297415 0.428886 0.889377
C257  C     C_R   0.702585 0.928886 0.202585 0.889377
C258  C     C_R   0.071114 0.702585 0.797415 0.889377
C259  C     C_R   0.928886 0.297415 0.202585 0.889377
C260  C     C_R   0.571114 0.797415 0.797415 0.889377
C261  C     C_R   0.428886 0.202585 0.202585 0.889377
C262  C     C_R   0.202585 0.797415 0.571114 0.889377
C263  C     C_R   0.797415 0.202585 0.428886 0.889377
C264  C     C_R   0.428886 0.797415 0.202585 0.889377
C265  C     C_R   0.571114 0.202585 0.797415 0.889377
C266  C     C_R   0.797415 0.797415 0.428886 0.889377
C267  C     C_R   0.702585 0.702585 0.571114 0.889377
C268  C     C_R   0.202585 0.202585 0.571114 0.889377
C269  C     C_R   0.571114 0.202585 0.202585 0.889377
C270  C     C_R   0.428886 0.797415 0.797415 0.889377
C271  C     C_R   0.202585 0.202585 0.428886 0.889377
C272  C     C_R   0.797415 0.797415 0.571114 0.889377
C273  C     C_R   0.428886 0.202585 0.797415 0.889377
C274  C     C_R   0.571114 0.797415 0.202585 0.889377
C275  C     C_R   0.797415 0.202585 0.571114 0.889377
C276  C     C_R   0.202585 0.797415 0.428886 0.889377
C277  C     C_R   0.202585 0.428886 0.202585 0.889377
C278  C     C_R   0.571114 0.702585 0.702585 0.889377
C279  C     C_R   0.797415 0.571114 0.797415 0.889377
C280  C     C_R   0.202585 0.571114 0.797415 0.889377
C281  C     C_R   0.797415 0.428886 0.202585 0.889377
C282  C     C_R   0.797415 0.571114 0.202585 0.889377
C283  C     C_R   0.202585 0.428886 0.797415 0.889377
C284  C     C_R   0.797415 0.428886 0.797415 0.889377
C285  C     C_R   0.202585 0.571114 0.202585 0.889377
C286  C     C_R   0.677469 0.113025 0.177469 -0.064840
C287  C     C_R   0.322531 0.886975 0.822531 -0.064840
C288  C     C_R   0.822531 0.113025 0.677469 -0.064840
H1    H     H_    0.732487 0.118341 0.118341 0.171545
H2    H     H_    0.267513 0.118341 0.118341 0.171545
H3    H     H_    0.881659 0.881659 0.267513 0.171545
H4    H     H_    0.118341 0.118341 0.732487 0.171545
H5    H     H_    0.267513 0.881659 0.118341 0.171545
H6    H     H_    0.732487 0.118341 0.881659 0.171545
H7    H     H_    0.118341 0.881659 0.732487 0.171545
H8    H     H_    0.881659 0.118341 0.267513 0.171545
H9    H     H_    0.881659 0.267513 0.881659 0.171545
H10   H     H_    0.118341 0.732487 0.118341 0.171545
H11   H     H_    0.881659 0.732487 0.118341 0.171545
H12   H     H_    0.267513 0.881659 0.881659 0.171545
H13   H     H_    0.118341 0.267513 0.881659 0.171545
H14   H     H_    0.118341 0.732487 0.881659 0.171545
H15   H     H_    0.881659 0.267513 0.118341 0.171545
H16   H     H_    0.118341 0.267513 0.118341 0.171545
H17   H     H_    0.881659 0.732487 0.881659 0.171545
H18   H     H_    0.232487 0.618341 0.118341 0.171545
H19   H     H_    0.767513 0.381659 0.881659 0.171545
H20   H     H_    0.881659 0.618341 0.232487 0.171545
H21   H     H_    0.118341 0.381659 0.767513 0.171545
H22   H     H_    0.767513 0.618341 0.881659 0.171545
H23   H     H_    0.881659 0.118341 0.732487 0.171545
H24   H     H_    0.232487 0.381659 0.118341 0.171545
H25   H     H_    0.118341 0.618341 0.767513 0.171545
H26   H     H_    0.881659 0.381659 0.232487 0.171545
H27   H     H_    0.232487 0.381659 0.881659 0.171545
H28   H     H_    0.767513 0.618341 0.118341 0.171545
H29   H     H_    0.881659 0.381659 0.767513 0.171545
H30   H     H_    0.118341 0.618341 0.232487 0.171545
H31   H     H_    0.767513 0.381659 0.118341 0.171545
H32   H     H_    0.232487 0.618341 0.881659 0.171545
H33   H     H_    0.118341 0.381659 0.232487 0.171545
H34   H     H_    0.118341 0.881659 0.267513 0.171545
H35   H     H_    0.881659 0.618341 0.767513 0.171545
H36   H     H_    0.381659 0.881659 0.232487 0.171545
H37   H     H_    0.618341 0.118341 0.767513 0.171545
H38   H     H_    0.381659 0.767513 0.881659 0.171545
H39   H     H_    0.618341 0.232487 0.118341 0.171545
H40   H     H_    0.381659 0.118341 0.767513 0.171545
H41   H     H_    0.618341 0.881659 0.232487 0.171545
H42   H     H_    0.381659 0.232487 0.118341 0.171545
H43   H     H_    0.618341 0.767513 0.881659 0.171545
H44   H     H_    0.618341 0.118341 0.232487 0.171545
H45   H     H_    0.267513 0.118341 0.881659 0.171545
H46   H     H_    0.381659 0.881659 0.767513 0.171545
H47   H     H_    0.618341 0.232487 0.881659 0.171545
H48   H     H_    0.381659 0.767513 0.118341 0.171545
H49   H     H_    0.618341 0.881659 0.767513 0.171545
H50   H     H_    0.381659 0.118341 0.232487 0.171545
H51   H     H_    0.618341 0.767513 0.118341 0.171545
H52   H     H_    0.381659 0.232487 0.881659 0.171545
H53   H     H_    0.118341 0.767513 0.381659 0.171545
H54   H     H_    0.881659 0.232487 0.618341 0.171545
H55   H     H_    0.232487 0.118341 0.381659 0.171545
H56   H     H_    0.732487 0.881659 0.118341 0.171545
H57   H     H_    0.767513 0.881659 0.618341 0.171545
H58   H     H_    0.881659 0.232487 0.381659 0.171545
H59   H     H_    0.118341 0.767513 0.618341 0.171545
H60   H     H_    0.767513 0.881659 0.381659 0.171545
H61   H     H_    0.232487 0.118341 0.618341 0.171545
H62   H     H_    0.881659 0.767513 0.618341 0.171545
H63   H     H_    0.118341 0.232487 0.381659 0.171545
H64   H     H_    0.767513 0.118341 0.618341 0.171545
H65   H     H_    0.232487 0.881659 0.381659 0.171545
H66   H     H_    0.118341 0.232487 0.618341 0.171545
H67   H     H_    0.118341 0.118341 0.267513 0.171545
H68   H     H_    0.881659 0.767513 0.381659 0.171545
H69   H     H_    0.232487 0.881659 0.618341 0.171545
H70   H     H_    0.767513 0.118341 0.381659 0.171545
H71   H     H_    0.732487 0.618341 0.618341 0.171545
H72   H     H_    0.267513 0.381659 0.381659 0.171545
H73   H     H_    0.381659 0.618341 0.732487 0.171545
H74   H     H_    0.618341 0.381659 0.267513 0.171545
H75   H     H_    0.267513 0.618341 0.381659 0.171545
H76   H     H_    0.732487 0.381659 0.618341 0.171545
H77   H     H_    0.618341 0.618341 0.267513 0.171545
H78   H     H_    0.881659 0.881659 0.732487 0.171545
H79   H     H_    0.381659 0.381659 0.732487 0.171545
H80   H     H_    0.732487 0.381659 0.381659 0.171545
H81   H     H_    0.267513 0.618341 0.618341 0.171545
H82   H     H_    0.381659 0.381659 0.267513 0.171545
H83   H     H_    0.618341 0.618341 0.732487 0.171545
H84   H     H_    0.267513 0.381659 0.618341 0.171545
H85   H     H_    0.732487 0.618341 0.381659 0.171545
H86   H     H_    0.618341 0.381659 0.732487 0.171545
H87   H     H_    0.381659 0.618341 0.267513 0.171545
H88   H     H_    0.381659 0.267513 0.381659 0.171545
H89   H     H_    0.732487 0.881659 0.881659 0.171545
H90   H     H_    0.618341 0.732487 0.618341 0.171545
H91   H     H_    0.381659 0.732487 0.618341 0.171545
H92   H     H_    0.618341 0.267513 0.381659 0.171545
H93   H     H_    0.618341 0.732487 0.381659 0.171545
H94   H     H_    0.381659 0.267513 0.618341 0.171545
H95   H     H_    0.618341 0.267513 0.618341 0.171545
H96   H     H_    0.381659 0.732487 0.381659 0.171545
O1    O     O_R   0.553790 0.256330 0.314650 -0.622369
O2    O     O_R   0.446210 0.256330 0.314650 -0.622369
O3    O     O_R   0.814650 0.743670 0.946210 -0.622369
O4    O     O_R   0.946210 0.256330 0.185350 -0.622369
O5    O     O_R   0.053790 0.743670 0.814650 -0.622369
O6    O     O_R   0.814650 0.256330 0.946210 -0.622369
O7    O     O_R   0.185350 0.743670 0.053790 -0.622369
O8    O     O_R   0.053790 0.743670 0.185350 -0.622369
O9    O     O_R   0.946210 0.256330 0.814650 -0.622369
O10   O     O_R   0.185350 0.743670 0.946210 -0.622369
O11   O     O_R   0.814650 0.256330 0.053790 -0.622369
O12   O     O_R   0.946210 0.743670 0.814650 -0.622369
O13   O     O_R   0.685350 0.743670 0.446210 -0.622369
O14   O     O_R   0.053790 0.256330 0.185350 -0.622369
O15   O     O_R   0.814650 0.743670 0.053790 -0.622369
O16   O     O_R   0.185350 0.256330 0.946210 -0.622369
O17   O     O_R   0.743670 0.185350 0.053790 -0.622369
O18   O     O_R   0.256330 0.814650 0.946210 -0.622369
O19   O     O_R   0.743670 0.946210 0.185350 -0.622369
O20   O     O_R   0.256330 0.053790 0.814650 -0.622369
O21   O     O_R   0.743670 0.814650 0.946210 -0.622369
O22   O     O_R   0.256330 0.185350 0.053790 -0.622369
O23   O     O_R   0.743670 0.053790 0.814650 -0.622369
O24   O     O_R   0.314650 0.256330 0.553790 -0.622369
O25   O     O_R   0.256330 0.946210 0.185350 -0.622369
O26   O     O_R   0.256330 0.814650 0.053790 -0.622369
O27   O     O_R   0.743670 0.185350 0.946210 -0.622369
O28   O     O_R   0.256330 0.053790 0.185350 -0.622369
O29   O     O_R   0.743670 0.946210 0.814650 -0.622369
O30   O     O_R   0.256330 0.185350 0.946210 -0.622369
O31   O     O_R   0.743670 0.814650 0.053790 -0.622369
O32   O     O_R   0.256330 0.946210 0.814650 -0.622369
O33   O     O_R   0.743670 0.053790 0.185350 -0.622369
O34   O     O_R   0.814650 0.946210 0.743670 -0.622369
O35   O     O_R   0.446210 0.743670 0.314650 -0.622369
O36   O     O_R   0.185350 0.053790 0.256330 -0.622369
O37   O     O_R   0.053790 0.814650 0.743670 -0.622369
O38   O     O_R   0.946210 0.185350 0.256330 -0.622369
O39   O     O_R   0.185350 0.053790 0.743670 -0.622369
O40   O     O_R   0.814650 0.946210 0.256330 -0.622369
O41   O     O_R   0.946210 0.185350 0.743670 -0.622369
O42   O     O_R   0.053790 0.814650 0.256330 -0.622369
O43   O     O_R   0.185350 0.946210 0.256330 -0.622369
O44   O     O_R   0.814650 0.053790 0.743670 -0.622369
O45   O     O_R   0.946210 0.814650 0.256330 -0.622369
O46   O     O_R   0.553790 0.256330 0.685350 -0.622369
O47   O     O_R   0.053790 0.185350 0.743670 -0.622369
O48   O     O_R   0.814650 0.053790 0.256330 -0.622369
O49   O     O_R   0.185350 0.946210 0.743670 -0.622369
O50   O     O_R   0.053790 0.185350 0.256330 -0.622369
O51   O     O_R   0.946210 0.814650 0.743670 -0.622369
O52   O     O_R   0.553790 0.756330 0.814650 -0.622369
O53   O     O_R   0.446210 0.243670 0.185350 -0.622369
O54   O     O_R   0.185350 0.756330 0.553790 -0.622369
O55   O     O_R   0.814650 0.243670 0.446210 -0.622369
O56   O     O_R   0.446210 0.756330 0.185350 -0.622369
O57   O     O_R   0.314650 0.743670 0.553790 -0.622369
O58   O     O_R   0.553790 0.243670 0.814650 -0.622369
O59   O     O_R   0.814650 0.756330 0.446210 -0.622369
O60   O     O_R   0.185350 0.243670 0.553790 -0.622369
O61   O     O_R   0.553790 0.243670 0.185350 -0.622369
O62   O     O_R   0.446210 0.756330 0.814650 -0.622369
O63   O     O_R   0.185350 0.243670 0.446210 -0.622369
O64   O     O_R   0.814650 0.756330 0.553790 -0.622369
O65   O     O_R   0.446210 0.243670 0.814650 -0.622369
O66   O     O_R   0.553790 0.756330 0.185350 -0.622369
O67   O     O_R   0.814650 0.243670 0.553790 -0.622369
O68   O     O_R   0.685350 0.256330 0.446210 -0.622369
O69   O     O_R   0.185350 0.756330 0.446210 -0.622369
O70   O     O_R   0.243670 0.185350 0.553790 -0.622369
O71   O     O_R   0.756330 0.814650 0.446210 -0.622369
O72   O     O_R   0.243670 0.446210 0.185350 -0.622369
O73   O     O_R   0.756330 0.553790 0.814650 -0.622369
O74   O     O_R   0.243670 0.814650 0.446210 -0.622369
O75   O     O_R   0.756330 0.185350 0.553790 -0.622369
O76   O     O_R   0.243670 0.553790 0.814650 -0.622369
O77   O     O_R   0.756330 0.446210 0.185350 -0.622369
O78   O     O_R   0.756330 0.814650 0.553790 -0.622369
O79   O     O_R   0.743670 0.685350 0.553790 -0.622369
O80   O     O_R   0.243670 0.185350 0.446210 -0.622369
O81   O     O_R   0.756330 0.553790 0.185350 -0.622369
O82   O     O_R   0.243670 0.446210 0.814650 -0.622369
O83   O     O_R   0.756330 0.185350 0.446210 -0.622369
O84   O     O_R   0.243670 0.814650 0.553790 -0.622369
O85   O     O_R   0.756330 0.446210 0.814650 -0.622369
O86   O     O_R   0.243670 0.553790 0.185350 -0.622369
O87   O     O_R   0.814650 0.446210 0.243670 -0.622369
O88   O     O_R   0.185350 0.553790 0.756330 -0.622369
O89   O     O_R   0.553790 0.814650 0.243670 -0.622369
O90   O     O_R   0.256330 0.314650 0.446210 -0.622369
O91   O     O_R   0.446210 0.185350 0.756330 -0.622369
O92   O     O_R   0.185350 0.553790 0.243670 -0.622369
O93   O     O_R   0.814650 0.446210 0.756330 -0.622369
O94   O     O_R   0.446210 0.185350 0.243670 -0.622369
O95   O     O_R   0.553790 0.814650 0.756330 -0.622369
O96   O     O_R   0.185350 0.446210 0.756330 -0.622369
O97   O     O_R   0.814650 0.553790 0.243670 -0.622369
O98   O     O_R   0.446210 0.814650 0.756330 -0.622369
O99   O     O_R   0.553790 0.185350 0.243670 -0.622369
O100  O     O_R   0.814650 0.553790 0.756330 -0.622369
O101  O     O_R   0.743670 0.446210 0.685350 -0.622369
O102  O     O_R   0.185350 0.446210 0.243670 -0.622369
O103  O     O_R   0.553790 0.185350 0.756330 -0.622369
O104  O     O_R   0.446210 0.814650 0.243670 -0.622369
O105  O     O_R   0.446210 0.743670 0.685350 -0.622369
O106  O     O_R   0.256330 0.553790 0.314650 -0.622369
O107  O     O_R   0.743670 0.314650 0.446210 -0.622369
O108  O     O_R   0.256330 0.685350 0.553790 -0.622369
O109  O     O_R   0.743670 0.553790 0.314650 -0.622369
O110  O     O_R   0.256330 0.446210 0.685350 -0.622369
O111  O     O_R   0.256330 0.314650 0.553790 -0.622369
O112  O     O_R   0.743670 0.685350 0.446210 -0.622369
O113  O     O_R   0.256330 0.553790 0.685350 -0.622369
O114  O     O_R   0.743670 0.446210 0.314650 -0.622369
O115  O     O_R   0.256330 0.685350 0.446210 -0.622369
O116  O     O_R   0.685350 0.256330 0.553790 -0.622369
O117  O     O_R   0.743670 0.314650 0.553790 -0.622369
O118  O     O_R   0.256330 0.446210 0.314650 -0.622369
O119  O     O_R   0.743670 0.553790 0.685350 -0.622369
O120  O     O_R   0.314650 0.446210 0.743670 -0.622369
O121  O     O_R   0.685350 0.553790 0.256330 -0.622369
O122  O     O_R   0.553790 0.314650 0.743670 -0.622369
O123  O     O_R   0.446210 0.685350 0.256330 -0.622369
O124  O     O_R   0.685350 0.553790 0.743670 -0.622369
O125  O     O_R   0.314650 0.446210 0.256330 -0.622369
O126  O     O_R   0.446210 0.685350 0.743670 -0.622369
O127  O     O_R   0.314650 0.743670 0.446210 -0.622369
O128  O     O_R   0.553790 0.314650 0.256330 -0.622369
O129  O     O_R   0.685350 0.446210 0.256330 -0.622369
O130  O     O_R   0.314650 0.553790 0.743670 -0.622369
O131  O     O_R   0.446210 0.314650 0.256330 -0.622369
O132  O     O_R   0.553790 0.685350 0.743670 -0.622369
O133  O     O_R   0.314650 0.553790 0.256330 -0.622369
O134  O     O_R   0.685350 0.446210 0.743670 -0.622369
O135  O     O_R   0.553790 0.685350 0.256330 -0.622369
O136  O     O_R   0.446210 0.314650 0.743670 -0.622369
O137  O     O_R   0.053790 0.756330 0.314650 -0.622369
O138  O     O_R   0.446210 0.256330 0.685350 -0.622369
O139  O     O_R   0.946210 0.243670 0.685350 -0.622369
O140  O     O_R   0.685350 0.756330 0.053790 -0.622369
O141  O     O_R   0.314650 0.243670 0.946210 -0.622369
O142  O     O_R   0.946210 0.756330 0.685350 -0.622369
O143  O     O_R   0.053790 0.243670 0.314650 -0.622369
O144  O     O_R   0.314650 0.756330 0.946210 -0.622369
O145  O     O_R   0.685350 0.243670 0.053790 -0.622369
O146  O     O_R   0.053790 0.243670 0.685350 -0.622369
O147  O     O_R   0.946210 0.756330 0.314650 -0.622369
O148  O     O_R   0.685350 0.243670 0.946210 -0.622369
O149  O     O_R   0.553790 0.743670 0.314650 -0.622369
O150  O     O_R   0.314650 0.756330 0.053790 -0.622369
O151  O     O_R   0.946210 0.243670 0.314650 -0.622369
O152  O     O_R   0.053790 0.756330 0.685350 -0.622369
O153  O     O_R   0.314650 0.243670 0.053790 -0.622369
O154  O     O_R   0.685350 0.756330 0.946210 -0.622369
O155  O     O_R   0.243670 0.685350 0.053790 -0.622369
O156  O     O_R   0.756330 0.314650 0.946210 -0.622369
O157  O     O_R   0.243670 0.946210 0.685350 -0.622369
O158  O     O_R   0.756330 0.053790 0.314650 -0.622369
O159  O     O_R   0.243670 0.314650 0.946210 -0.622369
O160  O     O_R   0.314650 0.256330 0.446210 -0.622369
O161  O     O_R   0.756330 0.685350 0.053790 -0.622369
O162  O     O_R   0.243670 0.053790 0.314650 -0.622369
O163  O     O_R   0.756330 0.946210 0.685350 -0.622369
O164  O     O_R   0.756330 0.314650 0.053790 -0.622369
O165  O     O_R   0.243670 0.685350 0.946210 -0.622369
O166  O     O_R   0.756330 0.053790 0.685350 -0.622369
O167  O     O_R   0.243670 0.946210 0.314650 -0.622369
O168  O     O_R   0.756330 0.685350 0.946210 -0.622369
O169  O     O_R   0.243670 0.314650 0.053790 -0.622369
O170  O     O_R   0.756330 0.946210 0.314650 -0.622369
O171  O     O_R   0.685350 0.743670 0.553790 -0.622369
O172  O     O_R   0.243670 0.053790 0.685350 -0.622369
O173  O     O_R   0.314650 0.946210 0.243670 -0.622369
O174  O     O_R   0.685350 0.053790 0.756330 -0.622369
O175  O     O_R   0.053790 0.314650 0.243670 -0.622369
O176  O     O_R   0.946210 0.685350 0.756330 -0.622369
O177  O     O_R   0.685350 0.053790 0.243670 -0.622369
O178  O     O_R   0.314650 0.946210 0.756330 -0.622369
O179  O     O_R   0.946210 0.685350 0.243670 -0.622369
O180  O     O_R   0.053790 0.314650 0.756330 -0.622369
O181  O     O_R   0.685350 0.946210 0.756330 -0.622369
O182  O     O_R   0.553790 0.743670 0.685350 -0.622369
O183  O     O_R   0.314650 0.053790 0.243670 -0.622369
O184  O     O_R   0.946210 0.314650 0.756330 -0.622369
O185  O     O_R   0.053790 0.685350 0.243670 -0.622369
O186  O     O_R   0.314650 0.053790 0.756330 -0.622369
O187  O     O_R   0.685350 0.946210 0.243670 -0.622369
O188  O     O_R   0.053790 0.685350 0.756330 -0.622369
O189  O     O_R   0.946210 0.314650 0.243670 -0.622369
O190  O     O_R   0.053790 0.256330 0.814650 -0.622369
O191  O     O_R   0.946210 0.743670 0.185350 -0.622369
O192  O     O_R   0.185350 0.256330 0.053790 -0.622369
Zn1   Zn    Zn3+2 0.500000 0.210530 0.289470 0.940068
Zn2   Zn    Zn3+2 0.210530 0.289470 0.500000 0.940068
Zn3   Zn    Zn3+2 0.789470 0.500000 0.710530 0.940068
Zn4   Zn    Zn3+2 0.210530 0.500000 0.289470 0.940068
Zn5   Zn    Zn3+2 0.789470 0.289470 0.500000 0.940068
Zn6   Zn    Zn3+2 0.210530 0.710530 0.500000 0.940068
Zn7   Zn    Zn3+2 0.789470 0.500000 0.289470 0.940068
Zn8   Zn    Zn3+2 0.210530 0.500000 0.710530 0.940068
Zn9   Zn    Zn3+2 0.289470 0.500000 0.789470 0.940068
Zn10  Zn    Zn3+2 0.710530 0.500000 0.210530 0.940068
Zn11  Zn    Zn3+2 0.500000 0.289470 0.789470 0.940068
Zn12  Zn    Zn3+2 0.500000 0.789470 0.710530 0.940068
Zn13  Zn    Zn3+2 0.500000 0.710530 0.210530 0.940068
Zn14  Zn    Zn3+2 0.710530 0.500000 0.789470 0.940068
Zn15  Zn    Zn3+2 0.289470 0.500000 0.210530 0.940068
Zn16  Zn    Zn3+2 0.500000 0.710530 0.789470 0.940068
Zn17  Zn    Zn3+2 0.500000 0.289470 0.210530 0.940068
Zn18  Zn    Zn3+2 0.000000 0.710530 0.289470 0.940068
Zn19  Zn    Zn3+2 0.000000 0.289470 0.710530 0.940068
Zn20  Zn    Zn3+2 0.710530 0.710530 0.000000 0.940068
Zn21  Zn    Zn3+2 0.289470 0.289470 0.000000 0.940068
Zn22  Zn    Zn3+2 0.000000 0.710530 0.710530 0.940068
Zn23  Zn    Zn3+2 0.710530 0.210530 0.500000 0.940068
Zn24  Zn    Zn3+2 0.000000 0.289470 0.289470 0.940068
Zn25  Zn    Zn3+2 0.289470 0.710530 0.000000 0.940068
Zn26  Zn    Zn3+2 0.710530 0.289470 0.000000 0.940068
Zn27  Zn    Zn3+2 0.289470 0.000000 0.710530 0.940068
Zn28  Zn    Zn3+2 0.710530 0.000000 0.289470 0.940068
Zn29  Zn    Zn3+2 0.289470 0.000000 0.289470 0.940068
Zn30  Zn    Zn3+2 0.710530 0.000000 0.710530 0.940068
Zn31  Zn    Zn3+2 1.000000 0.210530 0.789470 0.940068
Zn32  Zn    Zn3+2 1.000000 0.789470 0.210530 0.940068
Zn33  Zn    Zn3+2 0.210530 0.210530 0.000000 0.940068
Zn34  Zn    Zn3+2 0.289470 0.789470 0.500000 0.940068
Zn35  Zn    Zn3+2 0.789470 0.789470 0.000000 0.940068
Zn36  Zn    Zn3+2 0.000000 0.210530 0.210530 0.940068
Zn37  Zn    Zn3+2 0.000000 0.789470 0.789470 0.940068
Zn38  Zn    Zn3+2 0.789470 0.210530 0.000000 0.940068
Zn39  Zn    Zn3+2 0.210530 0.789470 0.000000 0.940068
Zn40  Zn    Zn3+2 0.789470 0.000000 0.210530 0.940068
Zn41  Zn    Zn3+2 0.210530 0.000000 0.789470 0.940068
Zn42  Zn    Zn3+2 0.789470 0.000000 0.789470 0.940068
Zn43  Zn    Zn3+2 0.210530 0.000000 0.210530 0.940068
Zn44  Zn    Zn3+2 0.500000 0.210530 0.710530 0.940068
Zn45  Zn    Zn3+2 0.500000 0.789470 0.289470 0.940068
Zn46  Zn    Zn3+2 0.289470 0.210530 0.500000 0.940068
Zn47  Zn    Zn3+2 0.710530 0.789470 0.500000 0.940068
Zn48  Zn    Zn3+2 0.789470 0.710530 0.500000 0.940068

loop_
_geom_bond_atom_site_label_1
_geom_bond_atom_site_label_2
_ccdc_geom_bond_type
C10   C174  A    
C238  O168  A    
C8    C251  S    
C54   C282  S    
O128  Zn17  S    
C20   C144  A    
O27   Zn38  S    
C112  O126  A    
O90   Zn2   S    
C255  O20   A    
C19   C123  A    
O84   Zn34  S    
C35   O123  A    
C195  H81   S    
C214  O144  A    
C68   O68   A    
C201  O141  A    
C157  O119  A    
C52   C144  A    
C24   O111  A    
C208  H94   S    
C53   C284  S    
C45   C222  S    
C214  O18   A    
C37   C161  A    
C113  O110  A    
C63   C270  S    
O121  Zn10  S    
C40   C239  S    
C62   C265  S    
C66   C155  A    
C189  H75   S    
C244  O14   A    
C30   C168  S    
C262  O84   A    
C160  H46   S    
C54   C134  A    
C50   C110  A    
C269  O61   A    
C88   C192  A    
O80   Zn46  S    
C119  H5    S    
C16   C122  A    
C165  H51   S    
C236  O166  A    
C251  O29   A    
C253  O9    A    
C48   C125  A    
C155  H41   S    
C67   C164  A    
C161  H47   S    
C18   C177  A    
C196  H82   S    
C34   C127  A    
C21   C220  S    
C40   C138  A    
C14   C151  A    
C77   C181  A    
O147  Zn18  S    
O186  Zn27  S    
O137  Zn18  S    
C74   C263  S    
C80   C146  S    
C239  O192  A    
C51   C109  A    
O82   Zn9   S    
C59   C280  S    
C55   C283  S    
C103  C256  S    
O30   Zn33  S    
C237  O43   A    
C171  H57   S    
C176  H62   S    
O79   Zn48  S    
O42   Zn32  S    
C2    O2    A    
C95   C188  A    
O119  Zn3   S    
C7    C232  S    
C27   C117  A    
O108  Zn6   S    
C80   C196  A    
C22   C221  S    
O64   Zn48  S    
C258  O5    A    
C254  O8    A    
C259  O4    A    
C52   C132  A    
C12   C150  A    
C93   C200  A    
C53   C133  A    
C18   C111  A    
C229  O159  A    
O13   Zn47  S    
O161  Zn20  S    
O188  Zn22  S    
O76   Zn9   S    
C221  O152  A    
O61   Zn17  S    
C81   C124  S    
O139  Zn19  S    
C124  O113  A    
C5    C155  A    
C65   C166  A    
C283  O82   A    
C15   C227  S    
C67   C156  A    
C239  O169  A    
O180  Zn19  S    
C47   C115  A    
C43   C145  A    
O31   Zn35  S    
O9    Zn31  S    
C263  O83   A    
O35   Zn45  S    
C211  O51   A    
C114  H78   S    
C111  H67   S    
C50   C165  A    
C102  C191  A    
C207  H93   S    
O63   Zn2   S    
C33   C246  S    
O160  Zn46  S    
C86   C198  A    
C69   C260  S    
C38   C119  A    
C12   C242  S    
O114  Zn7   S    
C69   C163  A    
C258  O188  A    
C199  H85   S    
C277  O72   A    
O34   Zn42  S    
C104  C204  A    
O157  Zn27  S    
C7    C114  A    
O184  Zn19  S    
C73   C171  A    
C49   C133  A    
C190  O31   A    
C16   C228  S    
O49   Zn41  S    
C9    C116  A    
C31   C107  A    
C242  O173  A    
C36   C126  A    
C219  O150  A    
C16   C184  A    
C13   O13   A    
O26   Zn39  S    
C243  O174  A    
C21   C172  A    
O70   Zn46  S    
O165  Zn25  S    
C178  C288  A    
C97   C195  A    
C168  O42   A    
C143  H29   S    
C124  O130  A    
C20   C125  A    
C86   C193  A    
C33   C149  A    
C70   C167  A    
C253  O184  A    
O120  Zn9   S    
C216  O47   A    
C39   C131  A    
C64   C159  A    
C234  O136  A    
O150  Zn25  S    
C2    O131  A    
C241  O172  A    
O170  Zn28  S    
O187  Zn28  S    
C175  H61   S    
C105  H1    S    
C63   C152  A    
C135  O129  A    
C167  H53   S    
C246  O176  A    
C188  H74   S    
O25   Zn43  S    
C23   C249  S    
O20   Zn41  S    
O141  Zn21  S    
O66   Zn13  S    
C80   C186  A    
C60   C281  S    
C197  H83   S    
C94   C205  A    
C247  O177  A    
C166  H52   S    
O95   Zn12  S    
O71   Zn47  S    
C268  O60   A    
C4    C109  A    
C34   C141  A    
O14   Zn36  S    
C141  H27   S    
C76   C266  S    
C181  H66   S    
O51   Zn37  S    
C6    C111  A    
O97   Zn7   S    
C273  O65   A    
O162  Zn29  S    
C204  H90   S    
C221  O37   A    
C145  H31   S    
O103  Zn44  S    
C178  H64   S    
C283  O96   A    
C29   C259  S    
C98   C199  A    
C279  O73   A    
O129  Zn10  S    
C30   C167  A    
O132  Zn16  S    
O11   Zn38  S    
C272  O78   A    
C146  O125  A    
O69   Zn6   S    
O134  Zn14  S    
C62   C161  A    
C74   C184  A    
C5    C110  A    
C200  H86   S    
C157  O124  A    
C82   C135  S    
C57   O108  A    
C219  O26   A    
C116  H2    S    
C36   C142  A    
C137  H22   S    
C272  O64   A    
O124  Zn14  S    
C191  H76   S    
O52   Zn16  S    
C19   C253  S    
C133  H19   S    
C91   C197  A    
O126  Zn16  S    
C284  O93   A    
O159  Zn21  S    
O102  Zn4   S    
O131  Zn17  S    
C215  O145  A    
C146  O118  A    
C271  O80   A    
O8    Zn32  S    
C194  H80   S    
C58   C138  A    
C95   C206  A    
C242  O25   A    
C152  H38   S    
C32   C244  S    
C232  O34   A    
C120  H6    S    
C123  H9    S    
C28   C139  A    
C150  H36   S    
C83   C202  A    
O62   Zn16  S    
C67   C261  S    
O104  Zn45  S    
O21   Zn35  S    
C70   C276  S    
C230  O15   A    
C65   C273  S    
C61   C162  A    
C223  O127  A    
C43   C129  A    
C87   C193  A    
C278  O182  A    
C228  O48   A    
O22   Zn33  S    
O105  Zn12  S    
C126  H11   S    
C100  C223  S    
C278  O132  A    
C64   C153  A    
C82   C188  A    
O46   Zn44  S    
C3    C180  A    
O78   Zn47  S    
C153  H39   S    
O189  Zn24  S    
C81   C195  A    
C12   C119  A    
O83   Zn23  S    
C58   C277  S    
C1    C95   S    
O77   Zn10  S    
C5    C257  S    
C266  O59   A    
C45   C156  A    
O7    Zn39  S    
C209  H95   S    
O36   Zn43  S    
C250  O180  A    
C11   C175  A    
C60   C140  A    
C23   C126  A    
C135  O114  A    
O58   Zn11  S    
C1    O1    A    
C227  O157  A    
C11   C241  S    
O182  Zn12  S    
O109  Zn7   S    
C34   C229  S    
C122  H8    S    
C220  O38   A    
C148  H33   S    
C22   C173  A    
C92   C202  A    
C90   O106  A    
C6    C170  A    
O163  Zn30  S    
C29   C140  A    
C271  O63   A    
C280  O76   A    
O154  Zn20  S    
C23   C134  A    
C198  H84   S    
O181  Zn30  S    
C38   C219  S    
C224  O154  A    
O56   Zn13  S    
C26   C118  A    
C132  H18   S    
O67   Zn5   S    
C269  O99   A    
C248  C287  S    
C102  C209  A    
C267  O171  A    
C205  H91   S    
C3    C108  A    
O40   Zn40  S    
O169  Zn21  S    
O19   Zn40  S    
C28   C258  S    
C77   C268  S    
C263  O55   A    
C147  H32   S    
C265  O103  A    
C160  C287  A    
C248  O178  A    
C247  O33   A    
C76   C174  A    
C10   C117  A    
C177  H63   S    
C56   C137  A    
C264  O104  A    
C45   C116  A    
C210  H96   S    
O55   Zn5   S    
C222  O153  A    
C121  H7    S    
C277  O102  A    
C99   C198  A    
O75   Zn23  S    
O113  Zn8   S    
C250  O190  A    
C13   O112  A    
O32   Zn41  S    
O4    Zn36  S    
C131  H17   S    
O115  Zn6   S    
O29   Zn42  S    
C186  H72   S    
C51   C201  S    
C238  O3    A    
C174  H60   S    
O107  Zn5   S    
C268  O70   A    
C274  O89   A    
O152  Zn22  S    
C35   O35   A    
C203  H88   S    
O101  Zn3   S    
C59   C147  A    
O143  Zn24  S    
C136  H21   S    
C4    C154  A    
C55   C141  A    
C7    C171  A    
C142  H28   S    
O168  Zn20  S    
O65   Zn11  S    
C104  C267  S    
O183  Zn29  S    
C213  O143  A    
C39   C137  A    
C233  O164  A    
C184  H70   S    
O12   Zn37  S    
O93   Zn3   S    
O37   Zn37  S    
C158  H43   S    
O123  Zn13  S    
C192  H77   S    
C68   C96   S    
C262  O54   A    
C86   C113  S    
C246  O12   A    
C37   C218  S    
C71   C178  A    
C190  O140  A    
C233  O11   A    
C173  H59   S    
C281  O77   A    
C75   C173  A    
O164  Zn26  S    
C55   C136  A    
C245  O135  A    
O3    Zn35  S    
C179  O41   A    
C44   C147  A    
O140  Zn20  S    
C84   C191  A    
C26   C216  S    
C21   C122  A    
O68   Zn23  S    
O47   Zn31  S    
C170  H55   S    
C139  H25   S    
O45   Zn32  S    
O50   Zn36  S    
C201  O30   A    
C254  O185  A    
C79   O101  A    
C125  H10   S    
C274  O66   A    
O112  Zn48  S    
C15   C183  A    
O86   Zn15  S    
C11   C118  A    
C72   C271  S    
C71   C169  A    
O88   Zn8   S    
C113  O120  A    
C154  H40   S    
O99   Zn1   S    
C273  O91   A    
C179  O139  A    
O2    Zn1   S    
C130  H16   S    
C35   C92   S    
C252  O28   A    
C261  O94   A    
C163  H49   S    
O173  Zn29  S    
O144  Zn25  S    
C212  O116  A    
O190  Zn31  S    
C117  H3    S    
C56   C279  S    
C169  H54   S    
C118  H4    S    
C187  H73   S    
C267  O79   A    
C247  C286  S    
O10   Zn39  S    
O72   Zn15  S    
C225  O155  A    
C91   C278  S    
C226  O156  A    
C159  C286  A    
C62   C151  A    
C225  O7    A    
O111  Zn2   S    
C256  O90   A    
C180  H65   S    
C9    C252  S    
O53   Zn17  S    
C41   C106  A    
C44   C235  S    
C223  O115  A    
C245  O149  A    
C31   C169  A    
O110  Zn8   S    
O125  Zn15  S    
C106  C287  A    
C164  H50   S    
C2    C89   S    
O96   Zn8   S    
C228  O158  A    
C222  O22   A    
O94   Zn1   S    
C138  H24   S    
C25   C250  S    
C226  O6    A    
C128  H14   S    
C59   C139  A    
C140  H26   S    
C168  O137  A    
C232  O163  A    
C275  O75   A    
C159  H44   S    
O60   Zn2   S    
C78   C185  A    
C149  H35   S    
C20   C254  S    
C182  H68   S    
O172  Zn27  S    
O98   Zn12  S    
O192  Zn33  S    
C54   C142  A    
C27   C217  S    
C14   C120  A    
C257  O187  A    
C43   C233  S    
C185  H71   S    
C98   C207  A    
C66   C274  S    
C92   C210  A    
O177  Zn28  S    
C112  O105  A    
C78   C157  S    
O117  Zn5   S    
C22   C121  A    
O38   Zn36  S    
C248  O32   A    
C90   O133  A    
C40   C130  A    
C129  H15   S    
C231  O162  A    
C237  O167  A    
C30   C108  A    
C218  O27   A    
C83   C189  A    
O145  Zn26  S    
C17   C211  S    
C73   C272  S    
C46   O122  A    
O127  Zn34  S    
C110  H56   S    
C46   O46   A    
C32   C148  A    
C260  O95   A    
O138  Zn44  S    
C57   O57   A    
O54   Zn6   S    
C1    O128  A    
C217  O45   A    
C99   C208  A    
C73   C176  A    
O59   Zn48  S    
C25   C127  A    
C276  O74   A    
C251  O181  A    
O43   Zn43  S    
C48   C225  S    
C102  C212  S    
C79   C84   S    
C230  O161  A    
O191  Zn32  S    
C100  C210  A    
O85   Zn14  S    
C50   C190  S    
C42   C105  A    
C82   C194  A    
C64   C269  S    
C66   C165  A    
C101  O109  A    
C14   C243  S    
C270  O62   A    
C26   C181  A    
C172  H58   S    
C49   C123  A    
C31   C179  S    
C48   C132  A    
O156  Zn26  S    
C97   C205  A    
O91   Zn44  S    
C28   C128  A    
O24   Zn46  S    
C213  O50   A    
C47   C224  S    
C235  O165  A    
C10   C240  S    
C68   O107  A    
O44   Zn42  S    
C9    C164  A    
C24   C99   S    
C183  H69   S    
C100  C189  A    
O87   Zn7   S    
C75   C183  A    
C266  O71   A    
C255  O186  A    
C220  O151  A    
C32   C130  A    
C279  O100  A    
C285  O86   A    
C41   C152  A    
C84   C200  A    
C85   C192  A    
C104  C185  A    
C46   C93   S    
O41   Zn31  S    
C87   C234  S    
O57   Zn34  S    
C270  O98   A    
O18   Zn39  S    
O6    Zn38  S    
C58   C148  A    
C77   C175  A    
C282  O97   A    
C24   O24   A    
C206  H92   S    
C94   C112  S    
C13   C98   S    
C217  O147  A    
C25   C136  A    
C218  O148  A    
C8    C115  A    
C88   C245  S    
C85   C199  A    
C285  O92   A    
O116  Zn23  S    
C249  O191  A    
C193  H79   S    
C227  O49   A    
C42   C215  S    
C78   C197  A    
C282  O81   A    
O33   Zn40  S    
O118  Zn4   S    
C61   C150  A    
C151  H37   S    
C74   C172  A    
C17   C176  A    
O135  Zn13  S    
C134  H20   S    
C33   C131  A    
C75   C262  S    
C57   C97   S    
C71   C275  S    
O74   Zn34  S    
C6    C231  S    
C202  H87   S    
C103  C186  A    
O171  Zn47  S    
C63   C160  A    
C260  O52   A    
C76   C182  A    
C261  O53   A    
C17   C114  A    
O146  Zn19  S    
C87   C208  A    
C101  O121  A    
O16   Zn33  S    
O28   Zn43  S    
C108  H34   S    
O48   Zn40  S    
O89   Zn45  S    
C281  O87   A    
C42   C153  A    
C94   C187  A    
O142  Zn22  S    
C252  O183  A    
O158  Zn28  S    
C265  O58   A    
C236  O44   A    
C107  H23   S    
C52   C285  S    
C79   O134  A    
C216  O146  A    
C212  O117  A    
O106  Zn4   S    
C215  O17   A    
C72   C177  A    
C89   C196  A    
O148  Zn26  S    
O136  Zn11  S    
C41   C214  S    
C53   C143  A    
C72   C170  A    
O122  Zn11  S    
C241  O39   A    
O1    Zn1   S    
O73   Zn14  S    
C65   C154  A    
C115  H89   S    
C29   C129  A    
C96   C206  A    
O174  Zn30  S    
O167  Zn29  S    
O166  Zn30  S    
C235  O10   A    
O153  Zn21  S    
C69   C158  A    
C249  O179  A    
O179  Zn18  S    
O130  Zn9   S    
C144  H30   S    
C3    C237  S    
C236  C288  S    
C224  O21   A    
C89   C203  A    
O151  Zn24  S    
C93   C209  A    
O176  Zn22  S    
C257  O19   A    
C18   C213  S    
O133  Zn15  S    
C96   C194  A    
C85   C101  S    
C256  O160  A    
O100  Zn3   S    
C243  O23   A    
C284  O85   A    
C83   C90   S    
C44   C128  A    
C19   C143  A    
C15   C121  A    
C244  O175  A    
O23   Zn42  S    
C275  O67   A    
C240  O170  A    
C91   C204  A    
C61   C264  S    
O92   Zn4   S    
C8    C163  A    
C127  H13   S    
C211  O142  A    
O149  Zn45  S    
O17   Zn38  S    
O81   Zn10  S    
C105  C286  A    
O175  Zn24  S    
C107  C288  A    
C49   C226  S    
C27   C182  A    
C156  H42   S    
C109  H45   S    
C280  O88   A    
C264  O56   A    
C231  O36   A    
C37   C120  A    
C162  H48   S    
O155  Zn25  S    
O5    Zn37  S    
C259  O189  A    
C229  O16   A    
C103  C203  A    
C276  O69   A    
C234  O138  A    
C240  O40   A    
O178  Zn27  S    
C38   C162  A    
C36   C230  S    
C60   C145  A    
O15   Zn35  S    
O39   Zn41  S    
O185  Zn18  S    
C51   C166  A    
C88   C207  A    
C4    C255  S    
C56   C149  A    
C106  H12   S    
C81   C187  A    
C39   C238  S    
C70   C180  A    
C47   C158  A    
