data_mof_unit_65331.cif
_audit_creation_date              2013-03-05T16:55:45-0500
_audit_creation_method            fapswitch 2.2
_symmetry_space_group_name_H-M    P1
_symmetry_Int_Tables_number       1
_space_group_crystal_system       triclinic
_cell_length_a                    17.461337
_cell_length_b                    16.838792
_cell_length_c                    11.547156
_cell_angle_alpha                 90.148279
_cell_angle_beta                  91.583839
_cell_angle_gamma                 90.416704
_cell_volume                      3393.78503073

loop_
_atom_site_label
_atom_site_type_symbol
_atom_site_description
_atom_site_fract_x
_atom_site_fract_y
_atom_site_fract_z
_atom_type_partial_charge
O1    O     O_R   0.389110 0.566570 0.499990 -0.561821
O2    O     O_R   0.610890 0.433430 0.500010 -0.564329
O3    O     O_R   0.610890 0.566570 0.500010 -0.566772
O4    O     O_R   0.389110 0.433430 0.499990 -0.568910
C1    C     C_R   0.353059 0.499763 0.507210 1.005823
C2    C     C_R   0.647415 0.500315 0.495249 1.002910
O5    O     O_R   0.500000 0.566540 0.334450 -0.589101
O6    O     O_R   0.500000 0.433460 0.665550 -0.598141
O7    O     O_R   0.500000 0.566540 0.665550 -0.573157
O8    O     O_R   0.500000 0.433460 0.334450 -0.586039
C3    C     C_R   0.499796 0.499918 0.281589 0.918727
C4    C     C_R   0.500235 0.500088 0.718410 0.919330
Zn1   Zn    Zn3+2 0.500000 0.588860 0.500000 1.124662
Zn2   Zn    Zn3+2 0.500000 0.411140 0.500000 1.115330
C5    C     C_R   0.467019 0.832597 0.407580 0.532506
C6    C     C_R   0.527473 0.167047 0.596349 0.533197
C7    C     C_R   0.532722 0.833489 0.592469 0.534047
C8    C     C_R   0.473021 0.166078 0.403996 0.532208
C9    C     C_R   0.466590 0.748510 0.409180 0.239231
C10   C     C_R   0.528021 0.251188 0.594857 0.237432
C11   C     C_R   0.532809 0.749409 0.591335 0.249309
C12   C     C_R   0.472833 0.250179 0.404835 0.247781
N1    N     N_R   0.500000 0.707230 0.500000 -0.244414
N2    N     N_R   0.500000 0.292770 0.500000 -0.241231
C13   C     C_1   0.500051 0.963439 0.500035 0.305366
C14   C     C_1   0.500056 0.036178 0.500303 0.305357
C15   C     C_1   0.499785 0.499791 0.161301 -0.037492
C16   C     C_1   0.500123 0.500225 0.838683 -0.030711
C17   C     C_1   0.499843 0.499898 0.059236 0.108097
C18   C     C_1   0.499987 0.500125 0.940741 0.108219
C19   C     C_R   0.500073 0.875971 0.499865 -0.300640
C20   C     C_R   0.500029 0.123653 0.500369 -0.300408
C21   C     C_R   0.848703 0.577999 0.537139 0.585364
C22   C     C_R   0.146051 0.436089 0.533536 0.592131
C23   C     C_R   0.161094 0.569425 0.610473 0.598145
C24   C     C_R   0.850345 0.434447 0.551642 0.589466
C25   C     C_R   0.771918 0.575647 0.500492 0.181470
C26   C     C_R   0.223793 0.432886 0.510779 0.159993
C27   C     C_R   0.239396 0.567556 0.590051 0.173962
C28   C     C_R   0.773604 0.430218 0.515133 0.171228
C29   C     C_R   0.731985 0.501683 0.498481 -0.439272
C30   C     C_R   0.271288 0.499878 0.535536 -0.454639
C31   C     C_R   0.886534 0.507953 0.565226 -0.325924
C32   C     C_R   0.115254 0.504173 0.581634 -0.325864
C33   C     C_1   0.966776 0.509962 0.584914 0.286461
C34   C     C_1   0.034833 0.508879 0.589803 0.282662
F1    F     F_    0.433521 0.871639 0.316914 -0.518982
F2    F     F_    0.555691 0.127887 0.690810 -0.516960
F3    F     F_    0.565692 0.873454 0.683476 -0.517805
F4    F     F_    0.445429 0.125971 0.309297 -0.517887
N3    N     N_R   0.429453 0.707238 0.314923 0.272695
O9    O     O_R   0.363466 0.673172 0.330058 -0.304636
O10   O     O_R   0.452081 0.719144 0.209935 -0.255408
N4    N     N_R   0.559614 0.291910 0.694006 0.273352
O11   O     O_R   0.622904 0.332304 0.685720 -0.308774
O12   O     O_R   0.534044 0.276193 0.796273 -0.256869
N5    N     N_R   0.567051 0.709180 0.688236 0.275253
O13   O     O_R   0.630552 0.670671 0.676185 -0.314762
O14   O     O_R   0.543802 0.724168 0.792065 -0.245919
N6    N     N_R   0.444058 0.289759 0.303618 0.273071
O15   O     O_R   0.381399 0.330583 0.308016 -0.285870
O16   O     O_R   0.471837 0.273065 0.203097 -0.253273
F5    F     F_    0.888063 0.647993 0.538572 -0.533605
F6    F     F_    0.100006 0.372711 0.507158 -0.528489
F7    F     F_    0.129749 0.634536 0.659760 -0.533445
F8    F     F_    0.891366 0.366749 0.567008 -0.524622
N7    N     N_R   0.737010 0.647425 0.458110 0.278243
O17   O     O_R   0.750514 0.714802 0.510513 -0.206793
O18   O     O_R   0.701603 0.647571 0.357422 -0.326007
N8    N     N_R   0.252731 0.361382 0.461635 0.287077
O19   O     O_R   0.223874 0.335989 0.363135 -0.208519
O20   O     O_R   0.289990 0.311876 0.528239 -0.298463
N9    N     N_R   0.285998 0.633182 0.629969 0.273287
O21   O     O_R   0.267523 0.705395 0.601477 -0.226513
O22   O     O_R   0.339249 0.621910 0.709138 -0.345597
N10   N     N_R   0.740656 0.353721 0.487664 0.280861
O23   O     O_R   0.755891 0.292764 0.553184 -0.199409
O24   O     O_R   0.707629 0.341862 0.386602 -0.316780

loop_
_geom_bond_atom_site_label_1
_geom_bond_atom_site_label_2
_geom_bond_distance
_ccdc_geom_bond_type
C13   C19   1.472848 S    
C1    C30   1.473611 S    
C26   N8    1.431168 S    
C14   C20   1.472962 S    
C15   C17   1.178595 T    
N9    O21   1.301089 A    
C9    N1    1.378101 A    
C5    F1    1.358558 S    
O3    C2    1.290903 A    
C6    F2    1.358700 S    
C33   C34   1.188423 T    
O5    C3    1.275682 A    
C4    C16   1.388856 S    
O1    C1    1.289119 A    
N10   O24   1.301620 A    
C26   C30   1.419030 A    
C12   N6    1.427981 S    
C24   F8    1.360121 S    
N5    O14   1.301057 A    
C23   F7    1.359502 S    
Zn1   N1    1.993208 S    
N6    O16   1.301161 A    
Zn2   N2    1.993208 S    
O7    Zn1   1.949182 S    
C5    C9    1.416058 A    
C10   N2    1.381569 A    
C28   N10   1.437997 S    
C2    C29   1.476154 S    
N8    O19   1.301176 A    
O3    Zn1   1.975003 S    
C6    C10   1.416957 A    
C22   C26   1.391196 A    
C25   C29   1.422766 A    
N9    O22   1.301072 A    
O2    C2    1.292319 A    
C32   C34   1.412810 S    
C27   C30   1.424787 A    
N4    O12   1.301143 A    
C21   F5    1.359874 S    
N7    O17   1.301382 A    
C21   C31   1.390767 A    
C24   C28   1.394861 A    
C22   C32   1.390760 A    
N10   O23   1.301393 A    
C10   N4    1.428573 S    
O8    Zn2   1.949183 S    
C7    F3    1.358647 S    
C13   C14   1.224846 T    
C21   C25   1.395014 A    
N3    O9    1.299714 A    
N6    O15   1.298472 A    
N3    O10   1.301002 A    
C23   C27   1.394414 A    
C11   N5    1.428716 S    
C17   C18   1.368375 S    
C3    C15   1.388973 S    
O6    C4    1.275761 A    
C22   F6    1.360297 S    
C23   C32   1.389043 A    
C31   C33   1.413389 S    
C28   C29   1.421061 A    
C11   N1    1.379043 A    
C7    C19   1.398700 A    
C12   N2    1.381691 A    
C8    C20   1.396847 A    
C8    F4    1.358793 S    
N4    O11   1.299368 A    
O6    Zn2   1.947273 S    
C8    C12   1.416196 A    
O4    C1    1.289761 A    
C5    C19   1.399267 A    
C6    C20   1.397587 A    
C16   C18   1.178553 T    
N5    O13   1.299167 A    
C25   N7    1.438465 S    
C27   N9    1.435042 S    
O4    Zn2   1.975007 S    
O2    Zn2   1.969644 S    
O7    C4    1.275993 A    
C7    C11   1.415838 A    
O8    C3    1.276090 A    
C9    N3    1.427805 S    
O5    Zn1   1.947274 S    
O1    Zn1   1.969647 S    
C24   C31   1.392141 A    
N8    O20   1.301237 A    
N7    O18   1.301664 A    
