data_mof_unit_44625.cif
_audit_creation_date              2012-12-10T18:55:19-0500
_audit_creation_method            fapswitch 2.2
_symmetry_space_group_name_H-M    P1
_symmetry_Int_Tables_number       1
_space_group_crystal_system       triclinic
_cell_length_a                    10.589902
_cell_length_b                    9.828899
_cell_length_c                    26.89411
_cell_angle_alpha                 90.375421
_cell_angle_beta                  90.126877
_cell_angle_gamma                 89.373236
_cell_volume                      2799.0953007

loop_
_atom_site_label
_atom_site_type_symbol
_atom_type_description
_atom_site_fract_x
_atom_site_fract_y
_atom_site_fract_z
_atom_type_partial_charge
C1    C     C_R   0.258500 0.500375 0.495779 0.897299
C2    C     C_R   0.735657 0.498705 0.488985 0.954612
C3    C     C_R   0.698872 0.376360 0.105146 -0.045974
C4    C     C_R   0.656085 0.410057 0.899842 -0.044333
C5    C     C_R   0.633030 0.276349 0.131915 -0.151855
C6    C     C_R   0.728635 0.503662 0.872730 -0.157449
C7    C     C_R   0.595607 0.155132 0.106809 -0.145946
C8    C     C_R   0.842893 0.553083 0.893906 -0.134188
C9    C     C_R   0.746993 0.491834 0.129841 -0.027861
C10   C     C_R   0.550580 0.347512 0.877611 -0.022188
C11   C     C_R   0.537187 0.494929 0.353376 -0.172478
C12   C     C_R   0.527145 0.500177 0.648062 -0.205595
C13   C     C_R   0.614751 0.286429 0.976876 0.096186
C14   C     C_R   0.779127 0.463697 0.026236 0.090983
C15   C     C_R   0.782754 0.455524 0.973686 -0.068605
C16   C     C_R   0.644150 0.262909 0.027508 -0.075812
C17   C     C_R   0.685892 0.382378 0.949886 0.052152
C18   C     C_R   0.709945 0.365769 0.053070 0.049118
C19   C     C_R   0.507832 0.229040 0.954215 -0.095572
C20   C     C_R   0.829447 0.575510 0.052130 -0.100930
C21   C     C_R   0.477310 0.257385 0.905108 -0.105560
C22   C     C_R   0.814161 0.589089 0.103182 -0.099488
C23   C     C_R   0.500959 0.499418 0.405422 0.946350
C24   C     C_R   0.504077 0.500316 0.594555 0.975060
C25   C     C_R   0.604813 0.146832 0.054299 0.339877
C26   C     C_R   0.872934 0.523147 0.944032 0.336120
C27   C     C_R   0.063512 0.372887 0.474024 -0.046480
C28   C     C_R   0.928430 0.618087 0.464235 -0.074518
C29   C     C_R   0.932813 0.371143 0.469485 -0.067682
C30   C     C_R   0.057677 0.623212 0.473367 -0.054322
C31   C     C_R   0.866112 0.495275 0.472412 -0.203356
C32   C     C_R   0.124699 0.499459 0.482424 -0.175169
C33   C     C_R   0.533186 0.072092 0.541680 0.008588
C34   C     C_R   0.466240 0.927762 0.458353 -0.071989
C35   C     C_R   0.466539 0.071590 0.458316 -0.095146
C36   C     C_R   0.533793 0.928338 0.541617 -0.013910
C37   C     C_R   0.606050 0.303447 0.182582 0.621801
C38   C     C_R   0.685101 0.540613 0.824853 0.606508
C39   C     C_R   0.720642 0.511387 0.180249 0.587467
C40   C     C_R   0.519749 0.377863 0.828352 0.592537
C41   C     C_R   0.703466 0.432725 0.294741 0.002716
C42   C     C_R   0.451414 0.549938 0.731955 0.018137
C43   C     C_R   0.662976 0.459733 0.343254 -0.224496
C44   C     C_R   0.433815 0.551611 0.680149 -0.300602
C45   C     C_R   0.449800 0.510960 0.314502 0.401366
C46   C     C_R   0.642401 0.450157 0.667485 0.415012
C47   C     C_R   0.490229 0.488004 0.265725 -0.154755
C48   C     C_R   0.657671 0.443099 0.718686 -0.157683
C49   C     C_R   0.615037 0.446662 0.255667 0.149626
C50   C     C_R   0.564007 0.491019 0.751050 0.143266
H1    H     H_    0.558794 0.126163 0.575205 0.181379
H2    H     H_    0.438737 0.873339 0.425062 0.192952
H3    H     H_    0.439394 0.125537 0.424995 0.194960
H4    H     H_    0.561075 0.874370 0.574922 0.161523
H5    H     H_    0.424505 0.499621 0.235117 0.202650
H6    H     H_    0.743906 0.400849 0.734171 0.214607
H7    H     H_    0.347601 0.593578 0.664424 0.214715
H8    H     H_    0.728723 0.448627 0.373910 0.209491
H9    H     H_    0.393921 0.211159 0.889212 0.216033
H10   H     H_    0.850783 0.679199 0.121314 0.229076
H11   H     H_    0.442966 0.167683 0.974998 0.207007
H12   H     H_    0.872457 0.658819 0.032755 0.221680
N1    N     N_R   0.649680 0.419026 0.205122 -0.330379
N2    N     N_R   0.586059 0.473909 0.803296 -0.330448
N3    N     N_R   0.500000 0.857200 0.500000 -0.093941
N4    N     N_R   0.500000 0.142800 0.500000 -0.096692
O1    O     O_R   0.316770 0.614620 0.500000 -0.601949
O2    O     O_R   0.683230 0.385380 0.500000 -0.570150
O3    O     O_R   0.683230 0.614620 0.500000 -0.591821
O4    O     O_R   0.316770 0.385380 0.500000 -0.606151
O5    O     O_R   0.500030 0.614650 0.428760 -0.605532
O6    O     O_R   0.499970 0.385350 0.571240 -0.590950
O7    O     O_R   0.499970 0.614650 0.571240 -0.606665
O8    O     O_R   0.500030 0.385350 0.428760 -0.619165
O9    O     O_2   0.533522 0.218351 0.209006 -0.509575
O10   O     O_2   0.739381 0.643103 0.799897 -0.503022
O11   O     O_2   0.424656 0.311680 0.805472 -0.522734
O12   O     O_2   0.762808 0.623370 0.204106 -0.508865
Zn1   Zn    Zn3+2 0.500000 0.653120 0.500000 1.038424
Zn2   Zn    Zn3+2 0.500000 0.346880 0.500000 1.042080
S1    S     S_3+6 0.290901 0.557890 0.325965 0.068109
O13   O     O_2   0.235380 0.464033 0.363796 -0.275641
O14   O     O_2   0.287478 0.700968 0.345931 -0.256363
O15   O     O_3   0.205434 0.549970 0.273251 -0.519024
H13   H     H_    0.119873 0.582292 0.282781 0.417339
S2    S     S_3+6 0.773606 0.407066 0.629554 0.050554
O16   O     O_2   0.743767 0.285046 0.597977 -0.285809
O17   O     O_2   0.802863 0.525696 0.596771 -0.301786
O18   O     O_3   0.901143 0.371312 0.664719 -0.508383
H14   H     H_    0.970200 0.353844 0.640642 0.404062
C51   C     C_2   0.551325 0.035086 0.134715 1.122374
O19   O     O_2   0.619468 0.982951 0.166225 -0.528586
O20   O     O_R   0.432702 0.980673 0.124358 -0.728192
H15   H     H_    0.413806 0.898179 0.145403 0.361592
C52   C     C_2   0.935704 0.627825 0.863547 1.128993
O21   O     O_2   0.979684 0.574996 0.826001 -0.556247
O22   O     O_R   0.974266 0.757355 0.878461 -0.713464
H16   H     H_    0.038755 0.797276 0.855050 0.358965
C53   C     C_2   0.352764 0.612067 0.764555 1.007484
O23   O     O_2   0.375455 0.638261 0.808158 -0.590475
O24   O     O_R   0.233662 0.643833 0.744947 -0.753147
H17   H     H_    0.175430 0.687853 0.770386 0.381128
C54   C     C_2   0.836212 0.386074 0.286450 1.005756
O25   O     O_2   0.916382 0.406517 0.318401 -0.564223
O26   O     O_R   0.869979 0.316319 0.242913 -0.777790
H18   H     H_    0.962869 0.290333 0.242040 0.379284
S3    S     S_3+6 0.597412 0.984035 0.024214 0.048180
O27   O     O_2   0.461644 0.944230 0.017665 -0.263883
O28   O     O_2   0.660992 0.986269 0.974306 -0.241657
O29   O     O_3   0.671115 0.866645 0.059428 -0.553922
H19   H     H_    0.628571 0.779891 0.051514 0.379412
S4    S     S_3+6 0.033192 0.536621 0.964751 0.054274
O30   O     O_2   0.061950 0.682582 0.976846 -0.239293
O31   O     O_2   0.056577 0.450491 0.009913 -0.266039
O32   O     O_3   0.131120 0.482612 0.919364 -0.518654
H20   H     H_    0.217267 0.498583 0.932441 0.396398
C55   C     C_2   0.132966 0.241567 0.468826 0.981282
O33   O     O_2   0.171024 0.204657 0.427987 -0.588433
O34   O     O_R   0.154823 0.161567 0.510813 -0.723131
H21   H     H_    0.206760 0.077026 0.503000 0.354486
C56   C     C_2   0.857249 0.739473 0.446583 0.971635
O35   O     O_2   0.794187 0.731769 0.408532 -0.605898
O36   O     O_R   0.855863 0.858778 0.474904 -0.721505
H22   H     H_    0.792564 0.927244 0.461511 0.352712
C57   C     C_2   0.866913 0.240043 0.461582 0.975946
O37   O     O_2   0.882057 0.147449 0.491156 -0.543183
O38   O     O_R   0.784542 0.225225 0.421279 -0.799356
H23   H     H_    0.742176 0.133363 0.420400 0.339609
C58   C     C_2   0.118540 0.758150 0.472785 1.000730
O39   O     O_2   0.141753 0.816513 0.511984 -0.571039
O40   O     O_R   0.144106 0.820158 0.427394 -0.726667
H24   H     H_    0.184033 0.912715 0.431638 0.352110

loop_
_geom_bond_atom_site_label_1
_geom_bond_atom_site_label_2
_ccdc_geom_bond_type
O2    Zn2   S    
O20   H15   S    
C49   N1    S    
C29   C57   S    
C35   H3    S    
C50   N2    S    
C14   C18   A    
C52   O21   D    
S4    O31   D    
O22   H16   S    
O36   H22   S    
C47   C49   A    
C38   O10   S    
C24   O6    A    
O24   H17   S    
N3    Zn1   S    
C19   C21   A    
C21   H9    S    
C2    O2    A    
C55   O34   S    
C22   H10   S    
S2    O17   D    
C9    C22   A    
C27   C29   A    
C5    C37   A    
O32   H20   S    
C9    C39   A    
C33   C36   A    
C8    C26   A    
C3    C18   A    
C10   C40   A    
C34   C35   A    
C41   C49   A    
O29   H19   S    
C43   H8    S    
C37   N1    A    
S3    O27   D    
C6    C38   A    
C11   C43   A    
C2    O3    A    
C41   C43   A    
C48   C50   A    
C37   O9    S    
C36   H4    S    
O8    Zn2   S    
S3    O28   D    
C8    C52   S    
C42   C44   A    
C34   N3    A    
O5    Zn1   S    
S4    O30   D    
S1    O14   D    
C33   N4    A    
S1    O13   D    
C38   N2    A    
C45   C47   A    
C10   C21   A    
C46   C48   A    
C13   C19   A    
O4    Zn2   S    
C39   O12   S    
C23   O5    A    
O1    Zn1   S    
O15   H13   S    
C12   C46   A    
C51   O19   D    
C5    C7    A    
S2    O16   D    
C15   C26   A    
C6    C8    A    
C35   N4    A    
C1    C32   S    
C41   C54   S    
C2    C31   S    
C3    C9    A    
C14   C20   A    
C51   O20   S    
C53   O23   D    
C14   C15   A    
C44   H7    S    
C7    C51   S    
O7    Zn1   S    
C54   O26   S    
C16   C18   A    
C56   O35   D    
C42   C50   A    
C4    C17   A    
C4    C6    A    
C53   O24   S    
C20   C22   A    
C57   O37   D    
S3    O29   S    
O3    Zn1   S    
C23   O8    A    
C4    C10   A    
O38   H23   S    
C26   S4    S    
S1    O15   S    
N4    Zn2   S    
C25   S3    S    
C47   H5    S    
C58   O39   D    
C27   C55   S    
C16   C25   A    
C48   H6    S    
C27   C32   A    
C36   N3    A    
C28   C31   A    
C45   S1    S    
C3    C5    A    
S2    O18   S    
C40   N2    A    
O34   H21   S    
C52   O22   S    
C15   C17   A    
C33   H1    S    
C30   C58   S    
C39   N1    A    
O26   H18   S    
C12   C24   S    
C34   H2    S    
C1    O4    A    
C7    C25   A    
C13   C17   A    
C28   C30   A    
C29   C31   A    
C42   C53   S    
C30   C32   A    
C19   H11   S    
C11   C23   S    
C1    O1    A    
C20   H12   S    
C24   O7    A    
C56   O36   S    
C11   C45   A    
O6    Zn2   S    
C13   C16   A    
C54   O25   D    
C57   O38   S    
C40   O11   S    
C12   C44   A    
C28   C56   S    
C58   O40   S    
O18   H14   S    
C55   O33   D    
S4    O32   S    
O40   H24   S    
C46   S2    S    
