data_mof_unit_48525.cif
_audit_creation_date              2012-12-10T18:16:19-0500
_audit_creation_method            fapswitch 2.2
_symmetry_space_group_name_H-M    P1
_symmetry_Int_Tables_number       1
_space_group_crystal_system       triclinic
_cell_length_a                    12.702466
_cell_length_b                    13.168182
_cell_length_c                    27.172907
_cell_angle_alpha                 91.583029
_cell_angle_beta                  102.384133
_cell_angle_gamma                 82.32657
_cell_volume                      4399.65363498

loop_
_atom_site_label
_atom_site_type_symbol
_atom_type_description
_atom_site_fract_x
_atom_site_fract_y
_atom_site_fract_z
_atom_type_partial_charge
C1    C     C_R   0.439309 0.690790 0.493491 0.854169
C2    C     C_R   0.536597 0.490817 0.736160 -0.371238
C3    C     C_R   0.511997 0.391795 0.741691 0.192874
C4    C     C_R   0.494836 0.355959 0.890972 -0.086825
C5    C     C_R   0.413650 0.422240 0.858593 -0.077781
C6    C     C_R   0.341333 0.493470 0.879649 0.003747
C7    C     C_R   0.568708 0.285324 0.870890 -0.084015
C8    C     C_R   0.512937 0.465301 0.646388 -0.174614
C9    C     C_R   0.505192 0.487722 0.352441 -0.125271
C10   C     C_R   0.480769 0.474029 0.014688 -0.043164
C11   C     C_R   0.582952 0.301303 0.029468 -0.059541
C12   C     C_R   0.501624 0.498267 0.594273 0.957063
C13   C     C_R   0.539824 0.396172 0.048283 0.046672
C14   C     C_R   0.460774 0.575649 0.033150 -0.132933
C15   C     C_R   0.481905 0.593216 0.085398 0.444772
C16   C     C_R   0.515702 0.509298 0.119044 -0.135166
C17   C     C_R   0.549019 0.411628 0.100449 -0.177213
C18   C     C_R   0.587227 0.328616 0.133849 -0.149357
C19   C     C_R   0.569635 0.340333 0.183312 0.570246
C20   C     C_R   0.517001 0.519813 0.170860 0.545797
C21   C     C_R   0.428245 0.494509 0.262947 -0.243613
C22   C     C_R   0.416857 0.519243 0.312269 -0.030937
C23   C     C_R   0.560836 0.309353 0.505549 0.843638
C24   C     C_R   0.604534 0.442408 0.342099 -0.343243
C25   C     C_R   0.616591 0.419629 0.292877 0.531904
C26   C     C_R   0.527448 0.447088 0.252876 0.199726
C27   C     C_R   0.446601 0.447177 0.963591 0.047933
C28   C     C_R   0.505930 0.364455 0.943738 0.082258
C29   C     C_R   0.580039 0.294284 0.976606 0.054783
C30   C     C_R   0.356217 0.501185 0.931810 -0.245678
C31   C     C_R   0.643332 0.214415 0.903620 0.010367
C32   C     C_R   0.625151 0.218484 0.063946 -0.139820
C33   C     C_R   0.634327 0.234612 0.116152 0.486822
C34   C     C_R   0.499597 0.499239 0.405810 0.857151
C35   C     C_R   0.650578 0.222772 0.955669 -0.257501
C36   C     C_R   0.698487 0.063042 0.466590 -0.207394
C37   C     C_R   0.597951 0.200932 0.503914 -0.027214
C38   C     C_R   0.310199 0.834953 0.512033 -0.199534
C39   C     C_R   0.291285 0.936522 0.526087 -0.160826
C40   C     C_R   0.365768 0.002986 0.522625 -0.200179
C41   C     C_R   0.457797 0.970355 0.501490 0.075433
C42   C     C_R   0.469982 0.869610 0.482575 0.086701
C43   C     C_R   0.537360 0.034148 0.497786 0.072034
C44   C     C_R   0.622579 0.998737 0.472490 0.165009
C45   C     C_R   0.410864 0.416405 0.806679 0.520117
C46   C     C_R   0.627416 0.901989 0.450755 -0.252575
C47   C     C_R   0.550744 0.839177 0.454688 -0.196270
C48   C     C_R   0.531602 0.134302 0.516000 -0.264486
C49   C     C_R   0.685006 0.164833 0.481472 -0.199368
C50   C     C_R   0.402225 0.800177 0.492750 -0.116886
C51   C     C_R   0.093063 0.331725 0.439900 -0.360783
C52   C     C_R   0.793929 0.637385 0.556011 0.644136
C53   C     C_R   0.895906 0.672297 0.564697 -0.427363
C54   C     C_R   0.982989 0.613040 0.550272 -0.041879
C55   C     C_R   0.963692 0.530403 0.516270 -0.037953
C56   C     C_R   0.572544 0.296782 0.819837 0.543522
C57   C     C_R   0.856485 0.502852 0.504571 0.130110
C58   C     C_R   0.044009 0.474801 0.492861 0.006236
C59   C     C_R   0.016894 0.388411 0.462779 0.191031
C60   C     C_R   0.912164 0.361894 0.453340 -0.285032
C61   C     C_R   0.832492 0.420441 0.472737 -0.179917
C62   C     C_R   0.148679 0.503251 0.495848 -0.076635
C63   C     C_R   0.195506 0.361297 0.445370 0.132410
C64   C     C_R   0.495547 0.326093 0.700468 0.548207
C65   C     C_R   0.494325 0.364010 0.652825 -0.434771
C66   C     C_R   0.537174 0.530475 0.688394 0.458827
H1    H     H_    0.674469 0.427105 0.372746 0.165139
H2    H     H_    0.716456 0.176152 0.979455 0.150989
H3    H     H_    0.737542 0.216383 0.472257 0.141209
H4    H     H_    0.689479 0.875434 0.429816 0.150902
H5    H     H_    0.763630 0.036578 0.447429 0.134010
H6    H     H_    0.549413 0.536761 0.769888 0.145248
H7    H     H_    0.470445 0.165881 0.536097 0.135647
H8    H     H_    0.256415 0.782326 0.518941 0.162409
H9    H     H_    0.347618 0.079270 0.536355 0.125358
H10   H     H_    0.221293 0.962756 0.542032 0.139552
H11   H     H_    0.554974 0.766328 0.435302 0.157627
H12   H     H_    0.890740 0.297193 0.429556 0.143839
H13   H     H_    0.071912 0.266619 0.416318 0.163819
H14   H     H_    0.173735 0.572502 0.513395 0.156105
H15   H     H_    0.913068 0.738122 0.588150 0.168122
H16   H     H_    0.752174 0.399822 0.462357 0.198278
H17   H     H_    0.361712 0.517778 0.231515 0.174819
H18   H     H_    0.299323 0.554098 0.947431 0.159044
H19   H     H_    0.475693 0.314797 0.620314 0.174152
N1    N     N_R   0.495453 0.363006 0.789604 -0.309401
N2    N     N_R   0.539422 0.435336 0.201379 -0.332087
N3    N     N_R   0.222180 0.444690 0.474320 -0.122281
N4    N     N_R   0.776980 0.554780 0.525420 -0.165825
O1    O     O_R   0.366730 0.627160 0.487740 -0.622320
O2    O     O_2   0.492959 0.612987 0.190606 -0.534669
O3    O     O_2   0.655786 0.247897 0.801231 -0.582123
O4    O     O_2   0.576996 0.257079 0.212197 -0.574969
O5    O     O_R   0.544830 0.662520 0.504140 -0.558465
O6    O     O_R   0.410970 0.482310 0.563040 -0.617280
O7    O     O_R   0.589070 0.517670 0.579450 -0.553532
O8    O     O_R   0.455170 0.337480 0.495860 -0.611102
O9    O     O_R   0.633270 0.372840 0.512260 -0.643402
O10   O     O_R   0.410930 0.482330 0.420550 -0.598819
O11   O     O_R   0.589030 0.517690 0.436960 -0.642724
O12   O     O_2   0.326864 0.465656 0.773213 -0.580528
Zn1   Zn    Zn3+2 0.381080 0.476390 0.489050 0.952048
Zn2   Zn    Zn3+2 0.618920 0.523610 0.510950 0.976505
O13   O     O_3   0.546439 0.633241 0.680021 -0.641346
C67   C     C_3   0.595610 0.686194 0.723506 0.100781
H20   H     H_    0.636676 0.746138 0.710843 0.177230
H21   H     H_    0.661803 0.636576 0.748916 0.093113
C68   C     C_3   0.512627 0.741365 0.752347 -0.413721
H22   H     H_    0.450271 0.692373 0.755765 0.221475
H23   H     H_    0.555808 0.757821 0.791248 0.175555
C69   C     C_3   0.456874 0.842796 0.727522 -0.879279
H24   H     H_    0.515978 0.899059 0.732125 0.249842
H25   H     H_    0.389398 0.874264 0.745864 0.241663
H26   H     H_    0.423715 0.832078 0.686758 0.280951
O14   O     O_3   0.467648 0.229722 0.706370 -0.638734
C70   C     C_3   0.545448 0.152278 0.693117 0.117707
H27   H     H_    0.585910 0.107379 0.727618 0.187150
H28   H     H_    0.611175 0.181159 0.678030 0.134028
C71   C     C_3   0.487459 0.080716 0.654470 -0.360801
H29   H     H_    0.427497 0.045971 0.670774 0.236013
H30   H     H_    0.442711 0.125554 0.620685 0.215759
C72   C     C_3   0.567876 0.995749 0.638884 -0.984085
H31   H     H_    0.622403 0.028477 0.618404 0.275418
H32   H     H_    0.522839 0.940865 0.613770 0.283684
H33   H     H_    0.617848 0.953509 0.672496 0.252005
C73   C     C_R   0.709803 0.126158 0.885027 0.201581
C74   C     C_R   0.823485 0.111164 0.901349 -0.145326
C75   C     C_R   0.885150 0.026885 0.884217 -0.131781
C76   C     C_R   0.833910 0.956814 0.850934 -0.109137
C77   C     C_R   0.720816 0.970574 0.834903 -0.163277
C78   C     C_R   0.658810 0.054524 0.852044 -0.086441
H34   H     H_    0.864264 0.165005 0.927008 0.118061
H35   H     H_    0.972731 0.015918 0.896722 0.124109
H36   H     H_    0.881812 0.891759 0.837649 0.120412
H37   H     H_    0.681208 0.916095 0.809262 0.122479
H38   H     H_    0.571161 0.063955 0.839551 0.120168
C79   C     C_R   0.631744 0.110189 0.046675 0.207186
C80   C     C_R   0.535380 0.066202 0.030996 -0.130106
C81   C     C_R   0.539248 0.963848 0.015826 -0.146450
C82   C     C_R   0.639050 0.904961 0.015399 -0.120350
C83   C     C_R   0.735408 0.947900 0.031118 -0.166613
C84   C     C_R   0.732039 0.049603 0.047410 -0.155310
H39   H     H_    0.457395 0.110980 0.031036 0.125037
H40   H     H_    0.464781 0.930243 0.004905 0.160781
H41   H     H_    0.642026 0.825904 0.003337 0.131887
H42   H     H_    0.812735 0.902387 0.030708 0.133921
H43   H     H_    0.807100 0.082382 0.057734 0.108424
O15   O     O_3   0.680639 0.153438 0.148705 -0.619152
C85   C     C_3   0.779310 0.175888 0.180311 0.141664
H44   H     H_    0.791133 0.131453 0.215629 0.174818
H45   H     H_    0.778342 0.258041 0.191357 0.140406
C86   C     C_3   0.876415 0.142706 0.155970 -0.426051
H46   H     H_    0.878129 0.060375 0.145611 0.240222
H47   H     H_    0.868165 0.189511 0.121652 0.211121
C87   C     C_3   0.983838 0.157542 0.191495 -0.943927
H48   H     H_    0.986178 0.239848 0.201051 0.260227
H49   H     H_    0.052131 0.130951 0.172759 0.270065
H50   H     H_    0.994910 0.112327 0.226536 0.273886
O16   O     O_3   0.718544 0.387665 0.282782 -0.651199
C88   C     C_3   0.766095 0.293505 0.307106 0.083224
H51   H     H_    0.731079 0.229279 0.285129 0.191542
H52   H     H_    0.753619 0.287319 0.346067 0.111125
C89   C     C_3   0.888567 0.280779 0.309885 -0.339771
H53   H     H_    0.904197 0.292362 0.271944 0.229485
H54   H     H_    0.925246 0.340034 0.335408 0.230949
C90   C     C_3   0.942654 0.174623 0.329220 -1.010259
H55   H     H_    0.929225 0.161590 0.367472 0.259659
H56   H     H_    0.031476 0.168374 0.331063 0.276045
H57   H     H_    0.909008 0.114335 0.303523 0.264230
C91   C     C_R   0.266842 0.307143 0.414267 0.168307
C92   C     C_R   0.313806 0.205702 0.425388 -0.147413
C93   C     C_R   0.369580 0.149740 0.392155 -0.133673
C94   C     C_R   0.376541 0.194051 0.347057 -0.117881
C95   C     C_R   0.325167 0.293231 0.334558 -0.151395
C96   C     C_R   0.269143 0.348828 0.367753 -0.120691
H58   H     H_    0.305120 0.169946 0.459264 0.128564
H59   H     H_    0.405516 0.071412 0.400757 0.147825
H60   H     H_    0.419299 0.150659 0.321255 0.146704
H61   H     H_    0.326991 0.326113 0.298765 0.144711
H62   H     H_    0.225543 0.423671 0.357203 0.143124
O17   O     O_3   0.709148 0.679523 0.578621 -0.592808
C97   C     C_3   0.736939 0.748996 0.618539 0.088508
H63   H     H_    0.660080 0.781063 0.629501 0.185178
H64   H     H_    0.767789 0.816608 0.605759 0.130074
C98   C     C_3   0.812961 0.696021 0.665467 -0.376560
H65   H     H_    0.769849 0.641185 0.681158 0.233815
H66   H     H_    0.885756 0.649594 0.656497 0.230174
C99   C     C_3   0.852061 0.774492 0.705289 -0.995647
H67   H     H_    0.911336 0.817074 0.692639 0.276249
H68   H     H_    0.892316 0.734190 0.740992 0.265120
H69   H     H_    0.783572 0.830299 0.712529 0.250780
C100  C     C_R   0.262304 0.574234 0.850315 0.210004
C101  C     C_R   0.150885 0.579175 0.849517 -0.145846
C102  C     C_R   0.077950 0.661224 0.825802 -0.143825
C103  C     C_R   0.115842 0.738819 0.802945 -0.114957
C104  C     C_R   0.226645 0.734457 0.803702 -0.140333
C105  C     C_R   0.299820 0.653038 0.827705 -0.058632
H70   H     H_    0.120950 0.520353 0.867820 0.125105
H71   H     H_    0.992236 0.665170 0.825649 0.120701
H72   H     H_    0.059626 0.802885 0.785076 0.129488
H73   H     H_    0.256016 0.794953 0.786393 0.124149
H74   H     H_    0.385904 0.651815 0.829406 0.099208
C106  C     C_R   0.089775 0.626118 0.582210 0.126191
C107  C     C_R   0.148235 0.545281 0.613400 -0.143244
C108  C     C_R   0.242286 0.560983 0.648342 -0.081253
C109  C     C_R   0.277788 0.657228 0.652398 -0.086480
C110  C     C_R   0.221475 0.737514 0.620985 -0.152115
C111  C     C_R   0.127320 0.722274 0.585971 -0.195044
H75   H     H_    0.119351 0.471212 0.611527 0.139106
H76   H     H_    0.286592 0.499077 0.672767 0.184241
H77   H     H_    0.348217 0.669876 0.680209 0.186736
H78   H     H_    0.249723 0.811883 0.624281 0.135813
H79   H     H_    0.082576 0.785569 0.562447 0.130459
C112  C     C_R   0.317331 0.586312 0.319923 0.152359
C113  C     C_R   0.325581 0.670639 0.352974 -0.090315
C114  C     C_R   0.232347 0.733580 0.360048 -0.133217
C115  C     C_R   0.129959 0.714508 0.333524 -0.111157
C116  C     C_R   0.120737 0.633077 0.299500 -0.132585
C117  C     C_R   0.213788 0.569877 0.292307 -0.194279
H80   H     H_    0.404164 0.688501 0.373016 0.087321
H81   H     H_    0.239606 0.797540 0.385911 0.133778
H82   H     H_    0.057819 0.763285 0.339058 0.127810
H83   H     H_    0.041364 0.618714 0.278745 0.137004
H84   H     H_    0.204590 0.506453 0.266194 0.120797
O18   O     O_3   0.461726 0.692080 0.103003 -0.609787
C118  C     C_3   0.559933 0.735757 0.113515 0.123924
H85   H     H_    0.588451 0.745437 0.078163 0.113144
H86   H     H_    0.624749 0.686873 0.140126 0.151086
C119  C     C_3   0.539828 0.840888 0.137617 -0.290751
H87   H     H_    0.482922 0.893363 0.109716 0.218808
H88   H     H_    0.501597 0.833270 0.170269 0.256703
C120  C     C_3   0.645304 0.887146 0.155964 -0.912862
H89   H     H_    0.701089 0.838065 0.185700 0.252851
H90   H     H_    0.627004 0.964272 0.172036 0.303849
H91   H     H_    0.686277 0.894829 0.124376 0.280103
C121  C     C_R   0.428978 0.665828 0.998690 0.155181
C122  C     C_R   0.331619 0.731072 0.998223 -0.117127
C123  C     C_R   0.296200 0.808867 0.962148 -0.180259
C124  C     C_R   0.358282 0.823125 0.926810 -0.112042
C125  C     C_R   0.456697 0.760570 0.927931 -0.161527
C126  C     C_R   0.492115 0.682278 0.963713 -0.185174
H92   H     H_    0.281302 0.719182 0.024524 0.151887
H93   H     H_    0.220194 0.857641 0.961343 0.132287
H94   H     H_    0.330543 0.883105 0.898797 0.130123
H95   H     H_    0.505014 0.772087 0.900732 0.126892
H96   H     H_    0.567443 0.633004 0.963506 0.128655

loop_
_geom_bond_atom_site_label_1
_geom_bond_atom_site_label_2
_ccdc_geom_bond_type
C93   H59   S    
C58   C62   A    
C106  C107  A    
C8    C66   A    
C73   C74   A    
C63   N3    A    
C87   H49   S    
C41   C42   A    
C54   C55   A    
C67   H20   S    
C77   H37   S    
C21   C26   A    
C75   C76   A    
C14   C121  S    
C116  C117  A    
C70   C71   S    
C10   C27   A    
C116  H83   S    
C98   C99   S    
C94   C95   A    
C121  C122  A    
C67   H21   S    
C60   H12   S    
C111  H79   S    
C57   N4    A    
C122  H92   S    
C15   O18   S    
C99   H69   S    
C73   C78   A    
C62   H14   S    
C28   C29   A    
C89   H54   S    
C124  C125  A    
C80   H39   S    
C76   C77   A    
C119  C120  S    
C19   N2    A    
C112  C117  A    
C85   H45   S    
C5    C6    A    
C9    C22   A    
C98   H66   S    
C91   C92   A    
O9    Zn2   S    
C20   N2    A    
C120  H89   S    
C114  H81   S    
C35   H2    S    
C68   H22   S    
C99   H68   S    
C18   C19   A    
C52   O17   S    
C1    O5    A    
C97   H63   S    
O1    Zn1   S    
C24   H1    S    
C122  C123  A    
C117  H84   S    
C95   C96   A    
C83   C84   A    
C109  H77   S    
C21   H17   S    
C94   H60   S    
C16   C17   A    
C107  H75   S    
C25   O16   S    
C34   O11   A    
C104  H73   S    
C12   O6    A    
C124  H94   S    
C69   H26   S    
C43   C48   A    
O8    Zn1   S    
C19   O4    S    
C36   H5    S    
C8    C12   S    
C102  C103  A    
C24   C25   A    
C59   C60   A    
C64   O14   S    
C49   H3    S    
C21   C22   A    
N4    Zn2   S    
C87   H50   S    
C90   H56   S    
C41   C43   A    
C39   H10   S    
C52   N4    A    
C8    C65   A    
C7    C56   A    
C4    C7    A    
C2    H6    S    
C48   H7    S    
O13   C67   S    
C4    C28   A    
C44   C46   A    
C101  H70   S    
C17   C18   A    
C97   H64   S    
C91   C96   A    
C71   H30   S    
C82   C83   A    
C67   C68   S    
C79   C84   A    
C7    C31   A    
C15   C16   A    
C126  H96   S    
O7    Zn2   S    
C88   C89   S    
C66   O13   S    
C89   C90   S    
C51   C63   A    
C114  C115  A    
C78   H38   S    
C10   C14   A    
C85   C86   S    
C39   C40   A    
C109  C110  A    
C26   N2    S    
C63   C91   S    
C25   C26   A    
O17   C97   S    
C62   N3    A    
C123  H93   S    
O11   Zn2   S    
C103  C104  A    
C32   C33   A    
C60   C61   A    
C97   C98   S    
C88   H52   S    
C121  C126  A    
C92   H58   S    
C43   C44   A    
C99   H67   S    
C40   H9    S    
C75   H35   S    
C119  H87   S    
C1    C50   S    
C37   C49   A    
C81   H40   S    
C120  H91   S    
C56   N1    A    
O16   C88   S    
C86   C87   S    
C70   H28   S    
C16   C20   A    
C23   O9    A    
C120  H90   S    
O18   C118  S    
C105  H74   S    
C69   H25   S    
C100  C105  A    
O15   C85   S    
C37   C48   A    
C57   C61   A    
C74   H34   S    
C92   C93   A    
C45   O12   S    
C83   H42   S    
C42   C50   A    
C40   C41   A    
C23   O8    A    
C86   H47   S    
C11   C32   A    
C118  H85   S    
C118  H86   S    
C22   C112  S    
C9    C34   S    
C30   H18   S    
C31   C35   A    
C36   C44   A    
C51   C59   A    
C18   C33   A    
C47   H11   S    
C72   H32   S    
C74   C75   A    
C1    O1    A    
C87   H48   S    
C93   C94   A    
C81   C82   A    
C103  H72   S    
C38   H8    S    
C71   C72   S    
C115  H82   S    
C108  C109  A    
C46   C47   A    
C125  H95   S    
C69   H24   S    
C6    C30   A    
C112  C113  A    
C84   H43   S    
C104  C105  A    
C2    C66   A    
C10   C13   A    
C82   H41   S    
O5    Zn2   S    
N3    Zn1   S    
C71   H29   S    
O6    Zn1   S    
C9    C24   A    
C53   C54   A    
C96   H62   S    
C38   C50   A    
C118  C119  S    
C34   O10   A    
C79   C80   A    
C29   C35   A    
C68   C69   S    
C13   C17   A    
C61   H16   S    
C33   O15   S    
C100  C101  A    
C72   H33   S    
C55   C57   A    
C77   C78   A    
C58   C59   A    
C32   C79   S    
C119  H88   S    
C65   H19   S    
C23   C37   S    
C85   H44   S    
C88   H51   S    
C11   C13   A    
C98   H65   S    
C38   C39   A    
C90   H55   S    
C5    C45   A    
C108  H76   S    
C4    C5    A    
C64   C65   A    
C123  C124  A    
C125  C126  A    
C68   H23   S    
C70   H27   S    
C45   N1    A    
C106  C111  A    
C42   C47   A    
C110  H78   S    
C113  C114  A    
C3    C64   A    
C53   H15   S    
C51   H13   S    
C46   H4    S    
C89   H53   S    
C115  C116  A    
C80   C81   A    
C76   H36   S    
C102  H71   S    
C3    N1    S    
C20   O2    S    
C56   O3    S    
O10   Zn1   S    
C107  C108  A    
C11   C29   A    
C90   H57   S    
C101  C102  A    
C55   C58   A    
C6    C100  S    
C27   C28   A    
C110  C111  A    
C14   C15   A    
C12   O7    A    
C2    C3    A    
C86   H46   S    
C31   C73   S    
O14   C70   S    
C72   H31   S    
C113  H80   S    
C95   H61   S    
C36   C49   A    
C54   C106  S    
C52   C53   A    
C27   C30   A    
