data_mof_unit_50138.cif
_audit_creation_date              2012-12-11T15:07:41-0500
_audit_creation_method            fapswitch 2.2
_symmetry_space_group_name_H-M    P1
_symmetry_Int_Tables_number       1
_space_group_crystal_system       triclinic
_cell_length_a                    21.63603
_cell_length_b                    7.208316
_cell_length_c                    18.860393
_cell_angle_alpha                 91.252997
_cell_angle_beta                  95.081276
_cell_angle_gamma                 91.443222
_cell_volume                      2928.10746631

loop_
_atom_site_label
_atom_site_type_symbol
_atom_type_description
_atom_site_fract_x
_atom_site_fract_y
_atom_site_fract_z
_atom_type_partial_charge
O1    O     O_R   0.449650 0.506500 0.414480 -0.562831
O2    O     O_R   0.550350 0.006500 0.585520 -0.507577
O3    O     O_R   0.432010 0.173150 0.560250 -0.532452
O4    O     O_R   0.567990 0.673150 0.439750 -0.543853
C1    C     C_R   0.419182 0.342104 0.585190 0.772541
C2    C     C_R   0.582630 0.843278 0.417688 0.705272
O5    O     O_R   0.442320 0.176650 0.413480 -0.518579
O6    O     O_R   0.557680 0.676650 0.586520 -0.531303
O7    O     O_R   0.560730 0.008380 0.437700 -0.503154
O8    O     O_R   0.439270 0.508380 0.562300 -0.539961
C3    C     C_R   0.425954 0.343208 0.389341 0.765607
C4    C     C_R   0.573542 0.850898 0.610691 0.725944
O9    O     O_3   0.538840 0.339860 0.508120 -0.334537
O10   O     O_3   0.461160 0.839860 0.491880 -0.392659
V1    V     V_3+5 0.492800 0.064220 0.498490 1.648420
V2    V     V_3+5 0.507200 0.564220 0.501510 1.574285
C5    C     C_R   0.869988 0.843342 0.695618 -0.196770
C6    C     C_R   0.136904 0.587761 0.295517 -0.160517
H1    H     H_    0.797123 0.927522 0.582083 0.165373
H2    H     H_    0.212516 0.598016 0.408063 0.190178
H3    H     H_    0.888773 0.803977 0.646245 0.187394
H4    H     H_    0.121190 0.659547 0.341493 0.189091
C7    C     C_R   0.885786 0.921395 0.821736 -0.221727
C8    C     C_R   0.114837 0.457983 0.176749 -0.221782
C9    C     C_R   0.580823 0.902530 0.743239 -0.176964
C10   C     C_R   0.414183 0.311190 0.257021 -0.196063
C11   C     C_R   0.615156 0.922463 0.810493 0.434866
C12   C     C_R   0.381439 0.329750 0.189704 0.428572
C13   C     C_R   0.679640 0.907426 0.815490 -0.200755
C14   C     C_R   0.318768 0.372331 0.184570 -0.222902
C15   C     C_R   0.712952 0.914948 0.754989 0.002125
C16   C     C_R   0.285782 0.393760 0.244844 0.001498
C17   C     C_R   0.678041 0.913014 0.686815 -0.013683
C18   C     C_R   0.319526 0.387399 0.314103 -0.028488
C19   C     C_R   0.779971 0.919890 0.759012 0.063017
C20   C     C_R   0.220549 0.436834 0.238450 0.073380
C21   C     C_R   0.807388 0.886510 0.694764 -0.014457
C22   C     C_R   0.197540 0.527078 0.297573 -0.023075
C23   C     C_R   0.772990 0.912216 0.629722 -0.173518
C24   C     C_R   0.232881 0.540335 0.362048 -0.149570
C25   C     C_R   0.710682 0.958189 0.627987 0.344906
C26   C     C_R   0.286108 0.438786 0.372610 0.338435
C27   C     C_R   0.821520 0.960747 0.821497 -0.138411
C28   C     C_R   0.176756 0.394164 0.177964 -0.146333
C29   C     C_R   0.908096 0.845780 0.759296 0.387181
C30   C     C_R   0.095431 0.553176 0.236465 0.467237
C31   C     C_R   0.612048 0.880469 0.680889 -0.140120
C32   C     C_R   0.384778 0.343125 0.320286 -0.171365
H5    H     H_    0.702878 0.892405 0.867776 0.137917
H6    H     H_    0.297183 0.401720 0.132582 0.159974
C33   C     C_R   0.615562 0.869992 0.294187 -0.183290
C34   C     C_R   0.378751 0.472475 0.696984 -0.185016
C35   C     C_R   0.631810 0.849255 0.367312 -0.073141
C36   C     C_R   0.371999 0.343678 0.639401 -0.055275
C37   C     C_R   0.694631 0.825847 0.391114 -0.040286
C38   C     C_R   0.319993 0.217923 0.634949 -0.013472
C39   C     C_R   0.741420 0.865115 0.345355 0.052388
C40   C     C_R   0.269192 0.253721 0.674885 0.044122
C41   C     C_R   0.724879 0.884907 0.271780 0.044978
C42   C     C_R   0.276393 0.383866 0.732016 0.052734
C43   C     C_R   0.661539 0.876588 0.245234 0.057011
C44   C     C_R   0.333333 0.483746 0.746573 0.055685
C45   C     C_R   0.804195 0.886838 0.371505 -0.172427
C46   C     C_R   0.211090 0.163005 0.658478 -0.155944
C47   C     C_R   0.850115 0.928463 0.325948 -0.073915
C48   C     C_R   0.161282 0.196511 0.698922 -0.085534
C49   C     C_R   0.834734 0.932313 0.251524 0.031514
C50   C     C_R   0.170067 0.310695 0.760869 0.038156
C51   C     C_R   0.771894 0.907071 0.224518 0.057042
C52   C     C_R   0.227676 0.406732 0.776779 0.057783
C53   C     C_R   0.756008 0.903806 0.150221 0.094470
C54   C     C_R   0.236873 0.524058 0.837912 0.090975
C55   C     C_R   0.693419 0.885074 0.124109 -0.163932
C56   C     C_R   0.294717 0.613035 0.854651 -0.174453
C57   C     C_R   0.646301 0.875297 0.170626 -0.085471
C58   C     C_R   0.343002 0.590677 0.810542 -0.085478
C59   C     C_R   0.880365 0.958930 0.203328 -0.149760
C60   C     C_R   0.123283 0.329462 0.807816 -0.101588
C61   C     C_R   0.865443 0.942592 0.129475 -0.078420
C62   C     C_R   0.132842 0.443224 0.869254 -0.040946
C63   C     C_R   0.803026 0.916134 0.103172 -0.192856
C64   C     C_R   0.189161 0.543347 0.883327 -0.186682
H7    H     H_    0.566801 0.874151 0.275660 0.125794
H8    H     H_    0.420364 0.559928 0.704015 0.127772
H9    H     H_    0.817384 0.879635 0.428194 0.139746
H10   H     H_    0.203395 0.071254 0.612031 0.166257
H11   H     H_    0.927805 0.989879 0.223117 0.195902
H12   H     H_    0.079312 0.254244 0.797425 0.159338
H13   H     H_    0.791121 0.906313 0.046156 0.124612
H14   H     H_    0.196571 0.630770 0.931008 0.123256
H15   H     H_    0.681124 0.878498 0.067151 0.149152
H16   H     H_    0.303032 0.695105 0.903658 0.158747
O11   O     O_R   0.060820 0.290050 0.937800 -0.546024
O12   O     O_R   0.939180 0.790050 0.062200 -0.525876
O13   O     O_R   0.057690 0.616620 0.086540 -0.521915
O14   O     O_R   0.942310 0.116620 0.913460 -0.543217
C65   C     C_R   0.072665 0.451580 0.110696 0.784833
C66   C     C_R   0.928503 0.944740 0.888022 0.768764
O15   O     O_R   0.068010 0.619890 0.939770 -0.516278
O16   O     O_R   0.931990 0.119890 0.060230 -0.530327
O17   O     O_R   0.949640 0.787940 0.914460 -0.512007
O18   O     O_R   0.050360 0.287940 0.085540 -0.526262
C67   C     C_R   0.084269 0.451893 0.919378 0.744608
C68   C     C_R   0.915331 0.951283 0.080310 0.733827
O19   O     O_3   0.961210 0.453080 0.991940 -0.377810
O20   O     O_3   0.038790 0.953080 0.008060 -0.374582
V3    V     V_3+5 0.007200 0.728820 0.001500 1.637634
V4    V     V_3+5 0.992800 0.228820 0.998500 1.577914
S1    S     S_3+6 0.982592 0.748404 0.758891 0.009140
O21   O     O_2   0.998597 0.709568 0.684151 -0.311736
O22   O     O_2   0.031178 0.877790 0.796091 -0.340574
O23   O     O_3   0.982126 0.547123 0.802182 -0.504401
H17   H     H_    0.949878 0.467966 0.774868 0.324730
S2    S     S_3+6 0.019816 0.638520 0.239040 -0.013158
O24   O     O_2   0.003152 0.650935 0.314634 -0.326908
O25   O     O_2   0.020743 0.829001 0.208542 -0.364018
O26   O     O_3   0.966801 0.501568 0.190978 -0.512949
H18   H     H_    0.926837 0.563938 0.194167 0.352354
C69   C     C_1   0.709843 0.736370 0.458028 0.346821
N1    N     N_1   0.721431 0.659351 0.510460 -0.275990
C70   C     C_1   0.320085 0.043558 0.595533 0.453561
N2    N     N_1   0.319870 0.902733 0.564942 -0.278230
C71   C     C_1   0.912524 0.967555 0.357531 0.424004
N3    N     N_1   0.962363 0.000033 0.383036 -0.222588
C72   C     C_1   0.100930 0.120672 0.672907 0.428872
N4    N     N_1   0.052474 0.062347 0.651229 -0.213482
C73   C     C_1   0.582929 0.854189 0.139893 0.439695
N5    N     N_1   0.532239 0.836194 0.115086 -0.132449
C74   C     C_1   0.404053 0.655622 0.837824 0.409451
N6    N     N_1   0.453146 0.704183 0.860927 -0.154749
C75   C     C_1   0.801757 0.063900 0.881826 0.282673
N7    N     N_1   0.786451 0.147700 0.930012 -0.355613
C76   C     C_1   0.191212 0.270374 0.120578 0.302584
N8    N     N_1   0.202353 0.171087 0.074617 -0.355646
C77   C     C_1   0.513967 0.917905 0.736322 0.408532
N9    N     N_1   0.460634 0.932601 0.729503 -0.370499
C78   C     C_1   0.479755 0.271098 0.261160 0.407359
N10   N     N_1   0.532155 0.240395 0.264544 -0.332393
S3    S     S_3+6 0.581333 0.974942 0.890714 0.087578
O27   O     O_2   0.518562 0.058203 0.877038 -0.262118
O28   O     O_2   0.575333 0.800573 0.932131 -0.297237
O29   O     O_3   0.627604 0.129396 0.939766 -0.453813
H19   H     H_    0.660521 0.055547 0.964445 0.333147
S4    S     S_3+6 0.418277 0.304684 0.109734 0.085733
O30   O     O_2   0.477535 0.419407 0.114930 -0.269620
O31   O     O_2   0.433473 0.104382 0.099098 -0.294816
O32   O     O_3   0.372287 0.373190 0.038946 -0.473091
H20   H     H_    0.344022 0.265483 0.025423 0.348914
S5    S     S_3+6 0.692085 0.162333 0.581179 0.012911
O33   O     O_2   0.669742 0.116187 0.505378 -0.332694
O34   O     O_2   0.643423 0.268560 0.615726 -0.325994
O35   O     O_3   0.756445 0.298390 0.581501 -0.473229
H21   H     H_    0.766058 0.339384 0.631843 0.341187
S6    S     S_3+6 0.292880 0.341672 0.456601 -0.033760
O36   O     O_2   0.229615 0.277456 0.474692 -0.308141
O37   O     O_2   0.333907 0.177936 0.458873 -0.358062
O38   O     O_3   0.317883 0.512476 0.514534 -0.504490
H22   H     H_    0.340772 0.601743 0.486655 0.330566

loop_
_geom_bond_atom_site_label_1
_geom_bond_atom_site_label_2
_ccdc_geom_bond_type
O17   V3    S    
C48   C50   A    
C45   C47   A    
O38   H22   S    
C7    C29   A    
C11   C13   A    
O15   C67   A    
O32   H20   S    
C49   C59   A    
C10   C78   S    
O2    C4    A    
O11   C67   A    
C2    O7    A    
S2    O24   D    
C77   N9    T    
C23   C25   A    
C37   C69   S    
C43   C57   A    
O5    C3    A    
C56   C58   A    
C16   C20   A    
C26   S6    S    
C5    C29   A    
S1    O22   D    
O11   V4    S    
H2    C24   S    
S3    O29   S    
C29   S1    S    
C39   C41   A    
C25   S5    S    
O20   V3    S    
C40   C42   A    
O16   C68   A    
C34   H8    S    
C7    C27   A    
C42   C44   A    
C56   H16   S    
C51   C53   A    
O13   V3    S    
C18   C26   A    
C47   C49   A    
O14   C66   A    
C15   C17   A    
O18   V4    S    
C12   S4    S    
C19   C27   A    
C9    C31   A    
S6    O37   D    
C65   O18   A    
C10   C32   A    
C63   H13   S    
C24   C26   A    
O14   V4    S    
O12   C68   A    
O6    V2    S    
C22   C24   A    
C45   H9    S    
C40   C46   A    
C55   C57   A    
C44   C58   A    
C3    C32   S    
C4    C31   S    
C6    C30   A    
C46   H10   S    
O23   H17   S    
C34   C36   A    
C39   C45   A    
C35   C37   A    
C50   C60   A    
O19   V4    S    
C36   C38   A    
O12   V3    S    
O16   V4    S    
C41   C43   A    
C30   S2    S    
C62   C67   S    
C8    C65   S    
S4    O32   S    
C1    C36   S    
C71   N3    T    
C55   H15   S    
S6    O38   S    
C54   C56   A    
S5    O35   S    
C53   C55   A    
C13   H5    S    
O5    V1    S    
C52   C54   A    
C5    H3    S    
C49   C51   A    
C16   C18   A    
O4    V2    S    
C58   C74   S    
O10   V1    S    
C42   C52   A    
O6    C4    A    
C70   N2    T    
C59   C61   A    
O1    V2    S    
C5    C21   A    
C69   N1    T    
O2    V1    S    
S6    O36   D    
H1    C23   S    
C41   C51   A    
S4    O31   D    
C37   C39   A    
C72   N4    T    
C17   C31   A    
C15   C19   A    
C61   C68   S    
S1    O23   S    
O4    C2    A    
C18   C32   A    
C2    C35   S    
C75   N7    T    
C33   H7    S    
O3    V1    S    
C61   C63   A    
C74   N6    T    
C60   H12   S    
C28   C76   S    
C19   C21   A    
C6    H4    S    
S4    O30   D    
O3    C1    A    
S2    O25   D    
S3    O27   D    
O13   C65   A    
C9    C11   A    
C66   O17   A    
O15   V3    S    
C78   N10   T    
C10   C12   A    
C64   H14   S    
C48   C72   S    
C8    C30   A    
C38   C70   S    
S5    O34   D    
C6    C22   A    
C17   C25   A    
C12   C14   A    
C13   C15   A    
C34   C44   A    
S5    O33   D    
C20   C22   A    
C14   C16   A    
C33   C43   A    
S3    O28   D    
C76   N8    T    
C8    C28   A    
C27   C75   S    
C62   C64   A    
C38   C40   A    
C60   C62   A    
C47   C71   S    
C14   H6    S    
C9    C77   S    
C11   S3    S    
S2    O26   S    
C20   C28   A    
C1    O8    A    
C7    C66   S    
O35   H21   S    
C59   H11   S    
C21   C23   A    
O9    V2    S    
S1    O21   D    
C50   C52   A    
O29   H19   S    
O8    V2    S    
O1    C3    A    
C33   C35   A    
O26   H18   S    
C54   C64   A    
C73   N5    T    
O7    V1    S    
C46   C48   A    
C53   C63   A    
C57   C73   S    
