data_mof_unit_35329.cif
_audit_creation_date              2012-12-10T17:58:18-0500
_audit_creation_method            fapswitch 2.2
_symmetry_space_group_name_H-M    P1
_symmetry_Int_Tables_number       1
_space_group_crystal_system       triclinic
_cell_length_a                    9.533676
_cell_length_b                    10.832268
_cell_length_c                    15.395948
_cell_angle_alpha                 89.705042
_cell_angle_beta                  74.637835
_cell_angle_gamma                 89.980174
_cell_volume                      1533.13051543

loop_
_atom_site_label
_atom_site_type_symbol
_atom_type_description
_atom_site_fract_x
_atom_site_fract_y
_atom_site_fract_z
_atom_type_partial_charge
C1    C     C_R   0.999968 0.262116 0.500020 0.785980
C2    C     C_R   0.000032 0.737884 0.499980 0.785981
C3    C     C_R   0.584328 0.526666 0.095757 -0.034926
C4    C     C_R   0.415672 0.473335 0.904242 -0.034925
C5    C     C_R   0.723929 0.563953 0.049663 -0.258892
C6    C     C_R   0.276071 0.436048 0.950337 -0.258892
C7    C     C_R   0.873395 0.063911 0.498055 -0.175541
C8    C     C_R   0.126605 0.936089 0.501945 -0.175541
C9    C     C_R   0.873393 0.936186 0.498067 -0.178965
C10   C     C_R   0.126607 0.063814 0.501933 -0.178965
C11   C     C_R   0.999999 0.871756 0.500006 -0.019724
C12   C     C_R   0.000001 0.128244 0.499994 -0.019724
C13   C     C_R   0.556699 0.407163 0.541133 0.027958
C14   C     C_R   0.443301 0.592836 0.458867 0.027958
C15   C     C_R   0.407974 0.407379 0.541336 0.010463
C16   C     C_R   0.592026 0.592621 0.458664 0.010462
C17   C     C_R   0.918743 0.504552 0.672302 0.796806
C18   C     C_R   0.081257 0.495448 0.327698 0.796806
C19   C     C_R   0.874899 0.520316 0.770815 -0.107160
C20   C     C_R   0.125101 0.479684 0.229185 -0.107160
C21   C     C_R   0.910750 0.596186 0.911195 -0.237175
C22   C     C_R   0.089249 0.403815 0.088805 -0.237175
C23   C     C_R   0.961155 0.583568 0.817885 -0.037851
C24   C     C_R   0.038845 0.416432 0.182115 -0.037851
C25   C     C_R   0.736102 0.479992 0.817561 -0.233063
C26   C     C_R   0.263898 0.520008 0.182439 -0.233063
C27   C     C_R   0.674026 0.512997 0.907699 0.088658
C28   C     C_R   0.325974 0.487004 0.092301 0.088658
C29   C     C_R   0.768833 0.559802 0.956297 0.132066
C30   C     C_R   0.231167 0.440199 0.043703 0.132065
C31   C     C_R   0.523169 0.495612 0.951897 0.004936
C32   C     C_R   0.476831 0.504388 0.048102 0.004936
Cu1   Cu    Cu3+1 0.140660 0.500020 0.500000 0.970404
Cu2   Cu    Cu3+1 0.859340 0.499980 0.500000 0.970404
H1    H     H_    0.801715 0.588128 0.087152 0.150215
H2    H     H_    0.198285 0.411872 0.912848 0.150215
H3    H     H_    0.320711 0.579810 0.217439 0.156681
H4    H     H_    0.679288 0.420190 0.782561 0.156681
H5    H     H_    0.980561 0.637792 0.948365 0.145958
H6    H     H_    0.019439 0.362208 0.051635 0.145958
H7    H     H_    0.774436 0.111978 0.496465 0.151132
H8    H     H_    0.225564 0.888022 0.503535 0.151132
H9    H     H_    0.597942 0.333158 0.574800 0.111262
H10   H     H_    0.402057 0.666842 0.425200 0.111262
H11   H     H_    0.337861 0.333501 0.575087 0.111179
H12   H     H_    0.662139 0.666499 0.424913 0.111180
N1    N     N_R   0.352080 0.500030 0.499980 -0.157071
N2    N     N_R   0.647920 0.499970 0.500020 -0.157071
O1    O     O_R   0.118740 0.319660 0.500000 -0.592225
O2    O     O_R   0.881260 0.680340 0.500000 -0.592225
O3    O     O_R   0.881170 0.319630 0.500010 -0.591460
O4    O     O_R   0.118830 0.680370 0.499990 -0.591460
O5    O     O_R   0.055570 0.500030 0.629830 -0.570696
O6    O     O_R   0.944430 0.499970 0.370170 -0.570695
O7    O     O_R   0.818000 0.500000 0.629840 -0.565424
O8    O     O_R   0.182000 0.500000 0.370160 -0.565424
C33   C     C_1   0.903416 0.357594 0.227815 0.264685
N3    N     N_1   0.795848 0.309081 0.264659 -0.258412
C34   C     C_1   0.096584 0.642406 0.772185 0.264685
N4    N     N_1   0.204152 0.690919 0.735341 -0.258412
C35   C     C_1   0.563605 0.498216 0.190077 0.227321
N5    N     N_1   0.546969 0.475178 0.265581 -0.265743
C36   C     C_1   0.436395 0.501784 0.809923 0.227321
N6    N     N_1   0.453031 0.524822 0.734418 -0.265743
H13   H     H_    0.774439 0.888198 0.496479 0.148623
H14   H     H_    0.225561 0.111802 0.503521 0.148623

loop_
_geom_bond_atom_site_label_1
_geom_bond_atom_site_label_2
_ccdc_geom_bond_type
C13   N2    A    
C19   C23   A    
C26   H3    S    
C14   N1    A    
C2    O4    A    
C18   O8    A    
C25   H4    S    
C27   C29   A    
C1    O3    A    
C17   O7    A    
C26   C28   A    
C31   C32   A    
C21   H5    S    
C15   N1    A    
C22   H6    S    
C16   N2    A    
Cu1   O8    S    
C10   H14   S    
Cu1   Cu2   S    
Cu2   O3    S    
Cu2   O7    S    
C34   N4    T    
Cu1   O4    S    
C23   C34   S    
C9    C11   A    
C4    C36   S    
C33   N3    T    
C3    C32   A    
C1    C12   S    
C20   C26   A    
C8    C11   A    
C19   C25   A    
C2    C11   S    
C10   C12   A    
C28   C32   A    
C8    C10   A    
C17   C19   S    
C8    H8    S    
Cu2   O6    S    
C9    H13   S    
C13   C15   A    
C21   C23   A    
Cu1   O5    S    
C35   N5    T    
Cu1   N1    S    
C14   C16   A    
C7    C12   A    
Cu2   O2    S    
C4    C31   A    
Cu2   N2    S    
C18   O6    A    
C3    C35   S    
Cu1   O1    S    
C36   N6    T    
C5    C29   A    
C17   O5    A    
C13   H9    S    
C28   C30   A    
C27   C31   A    
C18   C20   S    
C14   H10   S    
C4    C6    A    
C22   C24   A    
C16   H12   S    
C2    O2    A    
C7    C9    A    
C15   H11   S    
C22   C30   A    
C6    C30   A    
C21   C29   A    
C5    H1    S    
C20   C24   A    
C7    H7    S    
C6    H2    S    
C24   C33   S    
C3    C5    A    
C25   C27   A    
C1    O1    A    
