data_mof_unit_45728.cif
_audit_creation_date              2012-12-11T15:23:34-0500
_audit_creation_method            fapswitch 2.2
_symmetry_space_group_name_H-M    P1
_symmetry_Int_Tables_number       1
_space_group_crystal_system       triclinic
_cell_length_a                    6.930302
_cell_length_b                    17.499997
_cell_length_c                    19.273484
_cell_angle_alpha                 109.462761
_cell_angle_beta                  90.157368
_cell_angle_gamma                 90.480149
_cell_volume                      2203.80935485

loop_
_atom_site_label
_atom_site_type_symbol
_atom_type_description
_atom_site_fract_x
_atom_site_fract_y
_atom_site_fract_z
_atom_type_partial_charge
O1    O     O_R   0.505810 0.439670 0.562310 -0.541133
O2    O     O_R   0.169070 0.404920 0.411210 -0.533940
O3    O     O_R   0.005550 0.560330 0.437690 -0.540396
C1    C     C_R   0.338701 0.381678 0.382868 0.712928
O4    O     O_R   0.175650 0.430000 0.560110 -0.540268
O5    O     O_R   0.012170 0.585580 0.587650 -0.526602
C2    C     C_R   0.344506 0.415398 0.582134 0.721626
O6    O     O_R   0.499180 0.414420 0.412350 -0.544226
O7    O     O_3   0.341430 0.551020 0.508860 -0.371391
V1    V     V_3+5 0.063930 0.490540 0.498360 1.453158
O8    O     O_R   0.682850 0.595080 0.588790 -0.546959
C3    C     C_R   0.852581 0.618170 0.617039 0.717232
O9    O     O_R   0.676280 0.570000 0.439890 -0.545325
C4    C     C_R   0.845191 0.584894 0.418000 0.715178
V2    V     V_3+5 0.564760 0.509460 0.501640 1.423760
O10   O     O_3   0.837130 0.448980 0.491140 -0.371808
C5    C     C_R   0.750318 0.870009 0.175472 -0.217555
C6    C     C_R   0.913802 0.865269 0.131013 -0.084875
C7    C     C_R   0.065466 0.813474 0.134187 -0.226172
C8    C     C_R   0.053900 0.766380 0.180548 0.091998
C9    C     C_R   0.890412 0.772294 0.225528 0.054992
C10   C     C_R   0.738482 0.824539 0.223123 0.088388
C11   C     C_R   0.202863 0.713368 0.182729 -0.185144
C12   C     C_R   0.191510 0.667494 0.229813 -0.185895
C13   C     C_R   0.030840 0.673726 0.275497 0.083217
C14   C     C_R   0.878887 0.725947 0.273054 0.052810
C15   C     C_R   0.715501 0.731959 0.318102 0.090641
C16   C     C_R   0.566270 0.784781 0.315764 -0.178264
C17   C     C_R   0.577559 0.830601 0.268648 -0.187011
C18   C     C_R   0.019398 0.628585 0.323452 -0.201198
C19   C     C_R   0.856383 0.633744 0.368240 -0.085775
C20   C     C_R   0.704399 0.685258 0.364792 -0.224218
H1    H     H_    0.633196 0.910093 0.173846 0.124441
H2    H     H_    0.191549 0.809053 0.099932 0.126996
H3    H     H_    0.329032 0.707785 0.148363 0.134708
H4    H     H_    0.309230 0.627505 0.230844 0.137522
H5    H     H_    0.136534 0.588535 0.325151 0.139869
H6    H     H_    0.578483 0.689848 0.399161 0.127865
H7    H     H_    0.440062 0.790343 0.350109 0.135832
H8    H     H_    0.459741 0.870527 0.267566 0.133870
C21   C     C_3   0.787737 0.813700 0.744926 -0.109101
C22   C     C_3   0.957141 0.771622 0.694496 -0.206039
H9    H     H_    0.014375 0.789079 0.648101 0.121402
H10   H     H_    0.707325 0.866820 0.741221 0.109904
C23   C     C_3   0.867244 0.688461 0.687617 -0.066029
C24   C     C_3   0.697731 0.729728 0.737281 -0.177273
C25   C     C_3   0.813163 0.728099 0.805952 -0.212742
C26   C     C_3   0.981781 0.687762 0.755488 0.531767
C27   C     C_3   0.074532 0.770439 0.762840 -0.197358
C28   C     C_3   0.903953 0.811311 0.812563 -0.068194
H11   H     H_    0.543244 0.712805 0.725971 0.132836
H12   H     H_    0.755705 0.710252 0.852104 0.113291
H13   H     H_    0.228948 0.787724 0.773693 0.111109
C29   C     C_3   0.555926 0.285603 0.274453 -0.158098
C30   C     C_3   0.504604 0.195595 0.262327 -0.118197
H14   H     H_    0.604020 0.150852 0.272230 0.111768
H15   H     H_    0.697593 0.314667 0.294854 0.148891
C31   C     C_3   0.413055 0.189023 0.187634 -0.067319
C32   C     C_3   0.464860 0.278416 0.198866 -0.221908
C33   C     C_3   0.269027 0.303138 0.237322 0.519923
C34   C     C_3   0.214263 0.214167 0.225272 -0.179814
C35   C     C_3   0.307253 0.221908 0.300659 -0.208570
C36   C     C_3   0.358000 0.311198 0.312120 -0.071130
H16   H     H_    0.529814 0.301620 0.157098 0.106533
H17   H     H_    0.072651 0.184841 0.205234 0.118311
H18   H     H_    0.242412 0.199038 0.342652 0.126748
C37   C     C_R   0.282336 0.115253 0.811476 -0.187317
C38   C     C_R   0.417186 0.134649 0.869084 -0.084540
C39   C     C_R   0.542141 0.201102 0.879588 -0.196640
C40   C     C_R   0.534786 0.249107 0.833120 0.027528
C41   C     C_R   0.398923 0.227848 0.774396 -0.003582
C42   C     C_R   0.273380 0.160680 0.763842 0.060905
C43   C     C_R   0.656679 0.318264 0.844494 0.041011
C44   C     C_R   0.644318 0.363504 0.795634 0.389519
C45   C     C_R   0.506865 0.342376 0.737777 -0.014588
C46   C     C_R   0.385124 0.274211 0.726857 -0.093016
C47   C     C_R   0.247787 0.252709 0.668539 0.024963
C48   C     C_R   0.123906 0.185519 0.658831 0.447719
C49   C     C_R   0.139071 0.139811 0.705987 -0.268960
C50   C     C_R   0.488897 0.388552 0.690503 -0.173540
C51   C     C_R   0.355346 0.367087 0.632204 -0.110408
C52   C     C_R   0.234641 0.299530 0.621771 -0.208776
H19   H     H_    0.185513 0.063918 0.803212 0.113803
H20   H     H_    0.642044 0.215095 0.925320 0.131226
H21   H     H_    0.577045 0.442339 0.699113 0.159413
H22   H     H_    0.131260 0.283478 0.576809 0.158665
H23   H     H_    0.044644 0.087680 0.697135 0.140479
O11   O     O_R   0.271890 0.085690 0.087580 -0.540155
O12   O     O_R   0.595690 0.070020 0.939870 -0.541992
O13   O     O_R   0.758900 0.914390 0.912370 -0.535415
C53   C     C_R   0.426865 0.085271 0.918315 0.698794
O14   O     O_R   0.602020 0.095100 0.088770 -0.541899
O15   O     O_R   0.765280 0.939660 0.062330 -0.540236
C54   C     C_R   0.432348 0.118554 0.116950 0.696161
O16   O     O_R   0.265520 0.060430 0.937620 -0.537449
O17   O     O_3   0.429560 0.949050 0.991100 -0.367888
V3    V     V_3+5 0.707160 0.009450 0.001650 1.393888
O18   O     O_R   0.094540 0.929890 0.060190 -0.543072
C55   C     C_R   0.925478 0.914732 0.081782 0.708845
O19   O     O_R   0.088200 0.904800 0.911290 -0.544450
C56   C     C_R   0.918494 0.881608 0.883106 0.702301
V4    V     V_3+5 0.206300 0.990390 0.998440 1.393763
O20   O     O_3   0.934030 0.050940 0.008900 -0.369364
O21   O     O_3   0.080468 0.618011 0.756755 -0.560943
C57   C     C_3   0.185458 0.636174 0.823066 -0.272402
H24   H     H_    0.088712 0.656009 0.871634 0.138067
H25   H     H_    0.299349 0.682621 0.827213 0.132834
H26   H     H_    0.259278 0.580474 0.823840 0.168350
O22   O     O_3   0.145534 0.362900 0.228334 -0.561856
C58   C     C_3   0.070005 0.336563 0.156192 -0.276983
H27   H     H_    0.972347 0.283326 0.146926 0.137567
H28   H     H_    0.186433 0.322504 0.114299 0.128988
H29   H     H_    0.982919 0.386154 0.148672 0.167940
C59   C     C_3   0.792573 0.347461 0.910670 -0.323543
C60   C     C_3   0.975008 0.296233 0.900415 -0.752597
H30   H     H_    0.941656 0.230389 0.879023 0.232810
H31   H     H_    0.074564 0.310815 0.861691 0.229511
H32   H     H_    0.051124 0.310125 0.954040 0.208651
H33   H     H_    0.837854 0.411506 0.922109 0.220610
H34   H     H_    0.715582 0.347507 0.961141 0.155191
O23   O     O_3   0.758353 0.432263 0.808011 -0.561797
C61   C     C_3   0.926591 0.411394 0.764939 -0.221505
H35   H     H_    0.895779 0.404048 0.706502 0.139788
H36   H     H_    0.994423 0.355506 0.768301 0.129692
H37   H     H_    0.033720 0.461267 0.785664 0.189694
O24   O     O_3   0.995745 0.160845 0.600270 -0.554275
C62   C     C_3   0.811280 0.190232 0.625772 -0.249851
H38   H     H_    0.706996 0.168363 0.579444 0.176209
H39   H     H_    0.810132 0.257518 0.644848 0.132140
H40   H     H_    0.760648 0.167593 0.670223 0.142423

loop_
_geom_bond_atom_site_label_1
_geom_bond_atom_site_label_2
_ccdc_geom_bond_type
C9    C14   A    
C37   H19   S    
O24   C62   S    
C10   C17   A    
O17   V4    S    
C21   C22   S    
C7    C8    A    
C4    C19   S    
C1    O6    A    
C49   H23   S    
C59   C60   S    
C47   C48   A    
C57   H25   S    
C1    C36   S    
C14   C15   A    
C35   C36   S    
C33   C36   S    
C16   C17   A    
C6    C7    A    
C42   C49   A    
O5    C3    A    
C41   C46   A    
C29   C36   S    
V2    O10   S    
C26   O21   S    
C30   C35   S    
C38   C53   S    
C37   C42   A    
C43   C44   A    
C58   H27   S    
C33   O22   S    
V4    O20   S    
C24   C25   S    
O8    V2    S    
C25   C26   S    
C38   C39   A    
C60   H31   S    
C11   C12   A    
C40   C41   A    
O1    V2    S    
C20   H6    S    
O12   C53   A    
C45   C50   A    
O15   C55   A    
O13   V3    S    
C59   H33   S    
O16   V4    S    
C31   C34   S    
C32   C33   S    
O9    C4    A    
C39   C40   A    
C5    H1    S    
C40   C43   A    
O19   V4    S    
O21   C57   S    
O14   V3    S    
C51   C52   A    
C25   C28   S    
C29   C32   S    
C57   H26   S    
O11   C54   A    
C44   C45   A    
C35   H18   S    
C37   C38   A    
C12   C13   A    
O4    C2    A    
C48   C49   A    
C50   C51   A    
C16   H7    S    
C31   C32   S    
O18   V4    S    
C24   H11   S    
C43   C59   S    
C18   H5    S    
O12   V3    S    
C33   C34   S    
C22   C23   S    
O2    C1    A    
C45   C46   A    
C62   H39   S    
O13   C56   A    
C50   H21   S    
C19   C20   A    
C8    C11   A    
C21   C24   S    
C60   H32   S    
O17   V3    S    
C30   H14   S    
O14   C54   A    
C5    C6    A    
C32   H16   S    
C12   H4    S    
C46   C47   A    
C58   H29   S    
O23   C61   S    
V3    O20   S    
O3    C4    A    
C26   C27   S    
C2    C51   S    
O18   C55   A    
O6    V2    S    
C11   H3    S    
O9    V2    S    
C21   H10   S    
C23   C24   S    
C22   H9    S    
C61   H36   S    
C62   H38   S    
O2    V1    S    
O15   V3    S    
C21   C28   S    
O7    V1    S    
C23   C26   S    
C13   C18   A    
C29   C30   S    
C15   C20   A    
O1    C2    A    
C3    C23   S    
C7    H2    S    
O5    V1    S    
O11   V4    S    
O8    C3    A    
C25   H12   S    
C57   H24   S    
C5    C10   A    
C61   H37   S    
C13   C14   A    
C62   H40   S    
O4    V1    S    
O3    V1    S    
C52   H22   S    
O22   C58   S    
C18   C19   A    
C47   C52   A    
C27   H13   S    
C17   H8    S    
O19   C56   A    
C31   C54   S    
C34   C35   S    
C58   H28   S    
C22   C27   S    
C53   O16   A    
C34   H17   S    
C41   C42   A    
C44   O23   S    
C8    C9    A    
C28   C56   S    
C27   C28   S    
C6    C55   S    
C30   C31   S    
C15   C16   A    
C39   H20   S    
V1    O10   S    
C61   H35   S    
C9    C10   A    
C59   H34   S    
C60   H30   S    
O7    V2    S    
C29   H15   S    
C48   O24   S    
