data_mof_unit_52965.cif
_audit_creation_date              2012-12-11T14:15:27-0500
_audit_creation_method            fapswitch 2.2
_symmetry_space_group_name_H-M    P1
_symmetry_Int_Tables_number       1
_space_group_crystal_system       triclinic
_cell_length_a                    11.152354
_cell_length_b                    12.716813
_cell_length_c                    23.560261
_cell_angle_alpha                 90.748346
_cell_angle_beta                  96.829301
_cell_angle_gamma                 68.413706
_cell_volume                      3083.27459557

loop_
_atom_site_label
_atom_site_type_symbol
_atom_type_description
_atom_site_fract_x
_atom_site_fract_y
_atom_site_fract_z
_atom_type_partial_charge
C1    C     C_R   0.150457 0.616534 0.429292 0.554360
C2    C     C_R   0.654299 0.560836 0.311713 -0.109261
C3    C     C_R   0.706039 0.730876 0.319253 -0.111158
C4    C     C_R   0.694791 0.739877 0.259817 0.013626
C5    C     C_R   0.671843 0.654202 0.227120 0.035267
C6    C     C_R   0.668193 0.658240 0.168583 -0.133976
C7    C     C_R   0.693969 0.839963 0.172648 0.162788
C8    C     C_R   0.709644 0.830652 0.232418 -0.073120
C9    C     C_1   0.235350 0.163624 0.122736 0.010485
C10   C     C_2   0.180812 0.237657 0.226208 0.246521
C11   C     C_2   0.155769 0.169140 0.262243 -0.039784
C12   C     C_R   0.748672 0.604397 0.404276 0.544850
C13   C     C_1   0.132550 0.200769 0.320274 0.036839
C14   C     C_1   0.210047 0.199843 0.169253 -0.041322
C15   C     C_1   0.116146 0.232759 0.368222 0.029534
C16   C     C_1   0.173119 0.759069 0.126148 0.031203
C17   C     C_2   0.152892 0.734000 0.235521 0.195940
C18   C     C_2   0.239901 0.648956 0.269396 0.255958
C19   C     C_1   0.220721 0.639224 0.328711 0.002132
C20   C     C_1   0.163768 0.743763 0.175555 0.071521
C21   C     C_1   0.194990 0.630452 0.376277 0.020099
C22   C     C_1   0.625812 0.754259 0.864547 0.065584
C23   C     C_R   0.101265 0.282193 0.423361 0.540782
C24   C     C_2   0.698155 0.696876 0.762017 -0.076093
C25   C     C_2   0.608410 0.707781 0.716992 -0.086926
C26   C     C_1   0.648142 0.672191 0.661577 0.007789
C27   C     C_1   0.660830 0.729873 0.818008 0.014585
C28   C     C_1   0.688574 0.641136 0.616573 0.039920
C29   C     C_R   0.193260 0.187957 0.855183 -0.003976
C30   C     C_R   0.113553 0.220578 0.640442 -0.028681
C31   C     C_R   0.001442 0.183125 0.714855 -0.102107
C32   C     C_R   0.006925 0.201504 0.657340 -0.166227
C33   C     C_R   0.219008 0.213600 0.681752 0.275260
C34   C     C_R   0.148703 0.615849 0.591385 0.571842
C35   C     C_R   0.200965 0.219257 0.739581 0.057644
C36   C     C_R   0.096379 0.194642 0.756891 -0.046082
C37   C     C_R   0.092685 0.178229 0.815453 0.109863
C38   C     C_R   0.272175 0.243570 0.838225 0.108760
C39   C     C_R   0.282977 0.252363 0.779961 0.279627
C40   C     C_R   0.125027 0.741897 0.854260 -0.025463
C41   C     C_R   0.182140 0.632384 0.651548 -0.025776
C42   C     C_R   0.319336 0.580338 0.742690 0.281907
C43   C     C_R   0.304451 0.572873 0.682444 0.157336
C44   C     C_R   0.078210 0.699934 0.679677 -0.137592
C45   C     C_R   0.749611 0.602517 0.565925 0.548045
C46   C     C_R   0.090816 0.709239 0.738083 -0.005097
C47   C     C_R   0.211726 0.648629 0.769844 0.006866
C48   C     C_R   0.225443 0.662678 0.828239 -0.119946
C49   C     C_R   0.000293 0.793928 0.823889 0.159079
C50   C     C_R   0.983622 0.779547 0.764577 0.244832
C51   C     C_R   0.265735 0.110119 0.069433 0.551340
C52   C     C_R   0.600180 0.775084 0.081453 0.556945
C53   C     C_R   0.189624 0.788321 0.069808 0.544619
C54   C     C_R   0.239424 0.117285 0.908129 0.580465
C55   C     C_R   0.572905 0.776291 0.917959 0.555134
C56   C     C_R   0.101121 0.277110 0.584953 0.535625
C57   C     C_R   0.162776 0.785230 0.908070 0.571040
C58   C     C_R   0.665925 0.755411 0.140320 0.012166
C59   C     C_R   0.692588 0.637779 0.345283 0.011122
C60   C     C_R   0.647217 0.567414 0.252939 -0.093981
Cr1   Cr    Cr6+3 0.189770 0.415650 0.511620 1.104256
Cr2   Cr    Cr6+3 0.930400 0.667320 0.496770 1.047059
Cr3   Cr    Cr6+3 0.879870 0.417010 0.491650 1.052533
Cr4   Cr    Cr6+3 0.149500 0.973980 0.985330 1.137047
Cr5   Cr    Cr6+3 0.457000 0.976510 0.994660 1.145665
Cr6   Cr    Cr6+3 0.411170 0.724270 0.995270 1.073157
H1    H     H_    0.652230 0.589865 0.144873 0.155432
H2    H     H_    0.505440 0.743000 0.721569 0.144034
H3    H     H_    0.800949 0.659695 0.757369 0.168887
H4    H     H_    0.918893 0.165892 0.725726 0.199485
H5    H     H_    0.925867 0.204322 0.626276 0.159511
H6    H     H_    0.319425 0.619683 0.852729 0.223427
H7    H     H_    0.983738 0.743652 0.655760 0.215385
H8    H     H_    0.624776 0.503524 0.227789 0.145799
H9    H     H_    0.728387 0.896383 0.257325 0.179567
H10   H     H_    0.640775 0.489582 0.330806 0.142787
H11   H     H_    0.733371 0.791728 0.344955 0.141612
H12   H     H_    0.155670 0.087156 0.248676 0.113854
O1    O     O_R   0.196340 0.303200 0.448500 -0.502602
O2    O     O_R   0.811960 0.658090 0.547150 -0.503093
O3    O     O_R   0.757930 0.506140 0.547110 -0.484204
O4    O     O_R   0.988670 0.321620 0.556040 -0.502798
O5    O     O_3   0.000020 0.499990 0.500010 -0.267145
O6    O     O_R   0.113660 0.883270 0.047820 -0.479608
O7    O     O_R   0.186930 0.068530 0.043990 -0.497672
O8    O     O_R   0.377770 0.089040 0.054220 -0.463929
O9    O     O_R   0.562800 0.872960 0.056970 -0.452753
O10   O     O_R   0.555390 0.700940 0.062700 -0.522701
O11   O     O_R   0.295020 0.731920 0.049950 -0.494033
O12   O     O_R   0.199310 0.519670 0.454880 -0.490739
O13   O     O_R   0.094290 0.884230 0.921550 -0.426159
O14   O     O_R   0.168980 0.069410 0.926940 -0.457602
O15   O     O_R   0.358400 0.089990 0.927950 -0.466211
O16   O     O_R   0.544850 0.873850 0.939920 -0.470607
O17   O     O_R   0.536020 0.701900 0.936430 -0.499500
O18   O     O_R   0.277070 0.732810 0.932890 -0.515790
O19   O     O_3   0.339220 0.891590 0.991750 -0.295999
O20   O     O_R   0.045660 0.691380 0.441680 -0.492987
O21   O     O_R   0.811930 0.659460 0.430950 -0.500958
O22   O     O_R   0.757900 0.507620 0.421760 -0.514964
O23   O     O_R   0.988630 0.322990 0.439840 -0.495451
O24   O     O_R   0.196380 0.301720 0.573850 -0.472905
O25   O     O_R   0.199350 0.518300 0.571080 -0.437690
O26   O     O_R   0.045700 0.689900 0.567030 -0.531912
Br1   Br    Br    0.014819 0.853849 0.265349 -0.537836
Br2   Br    Br    0.951546 0.143510 0.840386 -0.400823
Br3   Br    Br    0.359297 0.311445 0.894908 -0.429065
O27   O     O_3   0.367518 0.297222 0.761076 -0.585947
H13   H     H_    0.435506 0.294754 0.792585 0.380945
O28   O     O_3   0.338649 0.203513 0.666701 -0.585672
H14   H     H_    0.354729 0.154720 0.633073 0.329184
Br4   Br    Br    0.710152 0.969902 0.138758 -0.408482
Br5   Br    Br    0.854342 0.881501 0.863386 -0.438118
O29   O     O_3   0.436340 0.524814 0.776274 -0.681149
H15   H     H_    0.500676 0.474146 0.753068 0.382086
O30   O     O_3   0.866902 0.835375 0.730798 -0.715933
H16   H     H_    0.806854 0.894374 0.752458 0.379134
Br6   Br    Br    0.449641 0.488043 0.642129 -0.463633
O31   O     O_3   0.181222 0.341573 0.244007 -0.670856
H17   H     H_    0.202224 0.378938 0.211948 0.347397
O32   O     O_3   0.341404 0.567709 0.246489 -0.712609
H18   H     H_    0.392945 0.511310 0.277350 0.329162

loop_
_geom_bond_atom_site_label_1
_geom_bond_atom_site_label_2
_ccdc_geom_bond_type
C49   Br5   S    
Cr2   O5    S    
C1    C21   S    
C1    O12   A    
C6    C58   A    
C35   C36   A    
C9    C51   S    
C24   C27   S    
Cr3   O23   S    
C51   O7    A    
O29   H15   S    
Cr5   O8    S    
C23   O23   A    
O30   H16   S    
C34   C41   S    
Cr3   O3    S    
C53   O6    A    
Cr6   O19   S    
Cr2   O2    S    
C36   C37   A    
C19   C21   T    
Cr6   O10   S    
C5    C6    A    
C2    C60   A    
C29   C54   S    
C40   C49   A    
C17   C20   S    
O27   H13   S    
C18   C19   S    
C38   Br3   S    
C16   C53   S    
Cr4   O6    S    
C54   O15   A    
C10   O31   S    
Cr2   O20   S    
C12   C59   S    
C42   O29   S    
C31   H4    S    
C47   C48   A    
C12   O21   A    
C57   O18   A    
C29   C38   A    
Cr6   O11   S    
C7    C58   A    
C5    C60   A    
C4    C8    A    
C15   C23   S    
Cr5   O15   S    
C41   C43   A    
C25   H2    S    
C48   H6    S    
C55   O16   A    
C51   O8    A    
C44   C46   A    
C24   H3    S    
Cr5   O9    S    
C32   H5    S    
Cr2   O26   S    
C39   O27   S    
C28   C45   S    
Cr3   O4    S    
C52   O10   A    
C24   C25   D    
C55   O17   A    
Cr1   O5    S    
C2    C59   A    
C18   O32   S    
C25   C26   S    
C30   C56   S    
C8    H9    S    
C34   O26   A    
O28   H14   S    
Cr3   O5    S    
C35   C39   A    
C9    C14   T    
C54   O14   A    
Cr3   O22   S    
C11   H12   S    
C17   Br1   S    
C31   C32   A    
C16   C20   T    
C17   C18   D    
O32   H18   S    
C52   C58   S    
Cr5   O16   S    
C22   C27   T    
C13   C15   T    
C53   O11   A    
C41   C44   A    
C42   C43   A    
Cr4   O14   S    
C3    C4    A    
C3    H11   S    
Cr4   O7    S    
C2    H10   S    
Cr1   O12   S    
Cr6   O18   S    
C7    Br4   S    
C40   C48   A    
C46   C47   A    
Cr4   O19   S    
C40   C57   S    
C57   O13   A    
C30   C33   A    
Cr1   O25   S    
C52   O9    A    
C45   O3    A    
C4    C5    A    
C1    O20   A    
O31   H17   S    
C56   O4    A    
C22   C55   S    
C46   C50   A    
C26   C28   T    
C34   O25   A    
Cr1   O24   S    
C56   O24   A    
C37   Br2   S    
C6    H1    S    
C30   C32   A    
C11   C13   S    
C38   C39   A    
Cr1   O1    S    
C60   H8    S    
C33   C35   A    
C45   O2    A    
C50   O30   S    
C42   C47   A    
C44   H7    S    
C12   O22   A    
C7    C8    A    
C10   C11   D    
C43   Br6   S    
Cr5   O19   S    
Cr2   O21   S    
C49   C50   A    
C29   C37   A    
C31   C36   A    
C33   O28   S    
Cr4   O13   S    
C23   O1    A    
C10   C14   S    
Cr6   O17   S    
C3    C59   A    
