data_mof_unit_18068.cif
_audit_creation_date              2012-12-11T17:05:36-0500
_audit_creation_method            fapswitch 2.2
_symmetry_space_group_name_H-M    P1
_symmetry_Int_Tables_number       1
_space_group_crystal_system       triclinic
_cell_length_a                    6.971878
_cell_length_b                    14.516801
_cell_length_c                    16.021746
_cell_angle_alpha                 90.291082
_cell_angle_beta                  89.974947
_cell_angle_gamma                 89.965206
_cell_volume                      1621.52936507

loop_
_atom_site_label
_atom_site_type_symbol
_atom_type_description
_atom_site_fract_x
_atom_site_fract_y
_atom_site_fract_z
_atom_type_partial_charge
O1    O     O_R   0.494380 0.415640 0.412830 -0.530210
O2    O     O_R   0.823960 0.405540 0.586560 -0.547998
O3    O     O_R   0.994270 0.584360 0.587170 -0.538218
C1    C     C_R   0.655216 0.383467 0.615138 0.679693
O4    O     O_R   0.824090 0.404620 0.413450 -0.548111
O5    O     O_R   0.994400 0.583430 0.412820 -0.538684
C2    C     C_R   0.655424 0.382560 0.384479 0.733097
O6    O     O_R   0.494250 0.416570 0.587180 -0.541807
O7    O     O_3   0.660800 0.558670 0.500000 -0.361874
V1    V     V_3+5 0.935650 0.489120 0.500000 1.418711
O8    O     O_R   0.324110 0.594460 0.413440 -0.520848
C3    C     C_R   0.155210 0.615869 0.384215 0.763259
O9    O     O_R   0.323980 0.595380 0.586550 -0.544873
C4    C     C_R   0.154767 0.617562 0.615462 0.689778
V2    V     V_3+5 0.435660 0.510880 0.500000 1.453052
O10   O     O_3   0.160640 0.441330 0.500000 -0.379050
C5    C     C_3   0.930286 0.706047 0.712199 -0.295742
H1    H     H_    0.844884 0.731326 0.658363 0.175327
H2    H     H_    0.863175 0.640365 0.732715 0.129782
C6    C     C_3   0.918061 0.776861 0.784193 -0.317762
H3    H     H_    0.843846 0.744885 0.838329 0.141547
H4    H     H_    0.829567 0.836569 0.763923 0.147916
H5    H     H_    0.133602 0.914383 0.712471 0.157868
C7    C     C_3   0.234976 0.781926 0.660213 0.023681
C8    C     C_3   0.250760 0.652951 0.764030 -0.376272
C9    C     C_3   0.142525 0.688348 0.685693 0.073815
H6    H     H_    0.403890 0.639505 0.748479 0.139892
H7    H     H_    0.187734 0.586441 0.784709 0.138550
C10   C     C_3   0.121182 0.810160 0.810568 0.080507
C11   C     C_3   0.218044 0.853454 0.732675 -0.330327
C12   C     C_3   0.239648 0.724297 0.836545 -0.317906
H8    H     H_    0.173085 0.691668 0.892175 0.140851
H9    H     H_    0.387501 0.745405 0.854491 0.146765
H10   H     H_    0.389901 0.770353 0.646949 0.122420
H11   H     H_    0.363876 0.878825 0.749173 0.129386
C13   C     C_R   0.281976 0.809773 0.234523 0.066911
C14   C     C_R   0.119417 0.815515 0.183383 -0.094380
C15   C     C_R   0.965395 0.756364 0.201516 -0.160326
H12   H     H_    0.840859 0.755613 0.161623 0.154554
C16   C     C_R   0.976750 0.692808 0.267488 -0.142618
H13   H     H_    0.860945 0.645346 0.277515 0.177289
C17   C     C_R   0.142602 0.685085 0.316517 -0.065761
C18   C     C_R   0.294972 0.743861 0.297705 0.097523
C19   C     C_3   0.493641 0.718062 0.272593 0.080710
C20   C     C_3   0.483161 0.793343 0.207447 -0.423075
H14   H     H_    0.598224 0.732082 0.323330 0.122569
H15   H     H_    0.493123 0.768252 0.141876 0.204563
H16   H     H_    0.576325 0.853426 0.222061 0.149686
C21   C     C_R   0.493224 0.316213 0.741231 0.098826
C22   C     C_R   0.647534 0.317370 0.685201 -0.108386
C23   C     C_R   0.799090 0.255301 0.699862 -0.171286
H17   H     H_    0.921608 0.253780 0.658567 0.136333
C24   C     C_R   0.787833 0.189993 0.764393 -0.171144
H18   H     H_    0.902693 0.140485 0.771132 0.129025
C25   C     C_R   0.624344 0.184587 0.815959 -0.110417
C26   C     C_R   0.481665 0.251338 0.804844 0.108616
C27   C     C_3   0.271269 0.239334 0.792747 -0.406172
C28   C     C_3   0.283764 0.310497 0.723756 -0.400328
H19   H     H_    0.187346 0.263336 0.847708 0.177299
H20   H     H_    0.235062 0.169184 0.769583 0.168568
H21   H     H_    0.207964 0.375845 0.739013 0.163604
H22   H     H_    0.253897 0.281860 0.660619 0.174512
C29   C     C_R   0.490645 0.252142 0.308890 0.099478
C30   C     C_R   0.647394 0.311773 0.317436 -0.098997
C31   C     C_R   0.799903 0.300633 0.260577 -0.146854
H23   H     H_    0.923290 0.345385 0.264379 0.138792
C32   C     C_R   0.788317 0.236359 0.194446 -0.169991
H24   H     H_    0.904287 0.232678 0.149746 0.132252
C33   C     C_R   0.623183 0.181816 0.182798 -0.109376
C34   C     C_R   0.478756 0.188854 0.243269 0.110839
C35   C     C_3   0.269677 0.205825 0.232185 -0.413610
C36   C     C_3   0.282565 0.274409 0.303895 -0.393594
H25   H     H_    0.182209 0.144079 0.247174 0.176329
H26   H     H_    0.237523 0.238613 0.171228 0.177439
H27   H     H_    0.203085 0.252178 0.360474 0.173089
H28   H     H_    0.257210 0.346888 0.284649 0.189888
O11   O     O_R   0.771490 0.080820 0.910070 -0.540240
O12   O     O_R   0.441590 0.092730 0.083780 -0.538590
O13   O     O_R   0.271350 0.913900 0.084390 -0.535066
C37   C     C_R   0.610540 0.115166 0.112465 0.701174
O14   O     O_R   0.441780 0.091820 0.910670 -0.539912
O15   O     O_R   0.271540 0.912980 0.910040 -0.540662
C38   C     C_R   0.610778 0.113776 0.881971 0.696034
O16   O     O_R   0.771300 0.081740 0.084420 -0.539299
O17   O     O_3   0.604960 0.938700 0.997240 -0.371536
V3    V     V_3+5 0.330090 0.008230 0.997220 1.400106
O18   O     O_R   0.941820 0.901930 0.910640 -0.544433
C39   C     C_R   0.110627 0.879837 0.881663 0.662248
O19   O     O_R   0.941630 0.902840 0.083750 -0.544287
C40   C     C_R   0.110494 0.880911 0.112558 0.701239
V4    V     V_3+5 0.830090 0.986410 0.997190 1.392124
O20   O     O_3   0.105080 0.055990 0.997200 -0.368837
Br1   Br    Br    0.504388 0.595240 0.221634 -0.612647
I1    I     I_    0.118704 0.837015 0.545861 -0.496010

loop_
_geom_bond_atom_site_label_1
_geom_bond_atom_site_label_2
_ccdc_geom_bond_type
C28   H22   S    
O18   C39   A    
C8    C12   S    
O18   V4    S    
C37   O16   A    
O17   V4    S    
V1    O10   S    
C24   H18   S    
C8    H7    S    
C10   C11   S    
C14   C40   S    
C5    C9    S    
C13   C14   A    
C7    C9    S    
O5    C3    A    
C15   H12   S    
O12   C37   A    
C27   H19   S    
O11   C38   A    
V2    O10   S    
C5    C6    S    
C26   C27   S    
C20   H15   S    
C10   C39   S    
C3    C17   S    
C19   Br1   S    
O8    V2    S    
O13   C40   A    
C12   H9    S    
C34   C35   S    
O1    V2    S    
O16   V4    S    
O19   V4    S    
O7    V1    S    
O14   V3    S    
C1    O6    A    
O12   V3    S    
C28   H21   S    
C16   C17   A    
O9    C4    A    
C36   H27   S    
O14   C38   A    
C19   H14   S    
C5    H1    S    
C6    C10   S    
C24   C25   A    
C32   H24   S    
H5    C11   S    
V4    O20   S    
O4    C2    A    
C27   H20   S    
C31   C32   A    
C8    C9    S    
O17   V3    S    
C7    H10   S    
C21   C28   S    
C23   H17   S    
C1    C22   S    
C23   C24   A    
O2    C1    A    
C18   C19   S    
C14   C15   A    
C7    I1    S    
C12   H8    S    
C29   C34   A    
C25   C26   A    
C22   C23   A    
C13   C20   S    
C4    C9    S    
O3    C4    A    
C11   H11   S    
C16   H13   S    
C6    H4    S    
C31   H23   S    
O6    V2    S    
O9    V2    S    
C17   C18   A    
C25   C38   S    
O2    V1    S    
C19   C20   S    
C35   H25   S    
C20   H16   S    
O11   V4    S    
O1    C2    A    
C13   C18   A    
O5    V1    S    
C35   H26   S    
O8    C3    A    
C8    H6    S    
C21   C26   A    
C30   C31   A    
O7    V2    S    
C35   C36   S    
C10   C12   S    
O3    V1    S    
O15   V3    S    
C15   C16   A    
C27   C28   S    
C36   H28   S    
O15   C39   A    
C29   C36   S    
C5    H2    S    
C33   C34   A    
C7    C11   S    
C2    C30   S    
C29   C30   A    
O4    V1    S    
C6    H3    S    
C21   C22   A    
C33   C37   S    
V3    O20   S    
C32   C33   A    
O19   C40   A    
O13   V3    S    
