data_mof_unit_24679.cif
_audit_creation_date              2012-10-26T18:32:55-0400
_audit_creation_method            fapswitch 2.2
_symmetry_space_group_name_H-M    P1
_symmetry_Int_Tables_number       1
_space_group_crystal_system       triclinic
_cell_length_a                    13.692336
_cell_length_b                    13.87886
_cell_length_c                    15.081845
_cell_angle_alpha                 89.863159
_cell_angle_beta                  89.989773
_cell_angle_gamma                 84.804627
_cell_volume                      2854.28080029

loop_
_atom_site_label
_atom_site_type_symbol
_atom_type_description
_atom_site_fract_x
_atom_site_fract_y
_atom_site_fract_z
_atom_type_partial_charge
C1    C     C_R   0.499971 0.500341 0.328443 0.551716
C2    C     C_R   0.675745 0.514818 0.953555 -0.139574
C3    C     C_R   0.788529 0.552911 0.437983 0.041499
C4    C     C_R   0.211537 0.446597 0.561660 0.040677
C5    C     C_R   0.797955 0.447329 0.562361 0.042655
C6    C     C_R   0.202028 0.553156 0.438016 0.048262
C7    C     C_R   0.901283 0.446768 0.564912 -0.006082
C8    C     C_R   0.098614 0.554876 0.436337 0.001382
C9    C     C_R   0.948112 0.500944 0.500934 -0.005214
C10   C     C_R   0.051728 0.501033 0.500507 -0.005244
C11   C     C_R   0.891353 0.554371 0.436818 -0.056432
C12   C     C_R   0.499968 0.499937 0.671534 0.549900
C13   C     C_R   0.108640 0.446027 0.563458 -0.059228
C14   C     C_R   0.958876 0.393432 0.629231 0.256585
C15   C     C_R   0.041159 0.608597 0.372352 0.244319
C16   C     C_R   0.515837 0.316876 0.500208 0.553849
C17   C     C_R   0.484172 0.683138 0.500364 0.552200
C18   C     C_R   0.061862 0.391527 0.626466 -0.118392
C19   C     C_R   0.938347 0.607164 0.372579 -0.125569
C20   C     C_1   0.474563 0.786125 0.504222 -0.039092
C21   C     C_1   0.525626 0.213826 0.501147 -0.036308
C22   C     C_2   0.460053 0.977378 0.514976 0.287975
C23   C     C_R   0.499614 0.501170 0.953475 0.062337
C24   C     C_2   0.542378 0.022195 0.503510 0.288373
C25   C     C_1   0.533810 0.127006 0.502162 -0.013593
C26   C     C_1   0.467137 0.872808 0.508764 -0.014980
C27   C     C_R   0.587782 0.506881 0.814659 -0.140075
C28   C     C_R   0.411671 0.495205 0.185286 -0.136021
C29   C     C_R   0.499835 0.500209 0.768347 -0.011739
C30   C     C_R   0.499837 0.500984 0.231582 -0.014171
C31   C     C_R   0.411719 0.494121 0.814716 -0.139259
C32   C     C_R   0.587829 0.507447 0.185151 -0.137426
C33   C     C_R   0.411005 0.494514 0.907096 0.011556
C34   C     C_R   0.499634 0.501419 0.046422 0.061430
C35   C     C_R   0.588326 0.507850 0.092771 0.012673
C36   C     C_3   0.714200 0.012299 0.515265 0.005955
C37   C     C_3   0.760151 0.062882 0.437221 -0.265253
C38   C     C_3   0.849972 0.112159 0.466581 -0.473182
C39   C     C_3   0.301502 0.985235 0.576088 0.009874
C40   C     C_3   0.228547 0.941818 0.514119 -0.263712
C41   C     C_3   0.151624 0.892322 0.566288 -0.486539
C42   C     C_3   0.892735 0.393324 0.768766 -0.002102
C43   C     C_3   0.975711 0.377714 0.837046 -0.262331
C44   C     C_3   0.946523 0.423959 0.925951 -0.486053
C45   C     C_R   0.588220 0.507612 0.906997 0.011906
C46   C     C_3   0.084612 0.754493 0.325824 -0.006340
C47   C     C_3   0.126352 0.807579 0.247575 -0.250168
C48   C     C_3   0.127759 0.915414 0.266306 -0.483599
C49   C     C_R   0.410987 0.495167 0.092910 0.010656
C50   C     C_R   0.323264 0.488402 0.953831 -0.135836
C51   C     C_R   0.675926 0.514649 0.045984 -0.134602
C52   C     C_R   0.323247 0.488808 0.046283 -0.131991
Cu1   Cu    Cu3+1 0.597420 0.500010 0.499990 0.937920
Cu2   Cu    Cu3+1 0.402580 0.499990 0.500010 0.938870
H1    H     H_    0.343641 0.488868 0.779060 0.120066
H2    H     H_    0.698723 0.062668 0.572092 0.122270
H3    H     H_    0.782357 0.008628 0.385224 0.169259
H4    H     H_    0.705908 0.118118 0.407749 0.171691
H5    H     H_    0.828969 0.168384 0.517127 0.172970
H6    H     H_    0.882007 0.147423 0.408613 0.151647
H7    H     H_    0.906408 0.058129 0.494823 0.144673
H8    H     H_    0.260102 0.040541 0.618053 0.154969
H9    H     H_    0.335703 0.929966 0.623141 0.117854
H10   H     H_    0.191074 0.000467 0.472848 0.172835
H11   H     H_    0.267883 0.888052 0.469314 0.161855
H12   H     H_    0.655991 0.512346 0.220767 0.123439
H13   H     H_    0.187118 0.830817 0.605329 0.156049
H14   H     H_    0.098212 0.864217 0.519782 0.134070
H15   H     H_    0.111198 0.944591 0.611833 0.148972
H16   H     H_    0.655959 0.511744 0.778992 0.116751
H17   H     H_    0.343540 0.490328 0.221002 0.137482
H18   H     H_    0.254730 0.484021 0.081307 0.118903
H19   H     H_    0.743832 0.520781 0.918347 0.100185
H20   H     H_    0.760282 0.405800 0.610194 0.154752
H21   H     H_    0.239751 0.594388 0.389975 0.157098
H22   H     H_    0.825095 0.367683 0.797796 0.152050
H23   H     H_    0.254759 0.483296 0.918900 0.104426
H24   H     H_    0.875558 0.472214 0.755086 0.109669
H25   H     H_    0.994772 0.298882 0.847074 0.178392
H26   H     H_    0.041713 0.410236 0.812350 0.146400
H27   H     H_    0.928288 0.503093 0.917725 0.143428
H28   H     H_    0.008637 0.412045 0.973220 0.149366
H29   H     H_    0.882385 0.390880 0.954067 0.151219
H30   H     H_    0.131139 0.763756 0.385252 0.125670
H31   H     H_    0.008513 0.787138 0.338858 0.129658
H32   H     H_    0.202358 0.776008 0.233742 0.173482
H33   H     H_    0.080807 0.798056 0.187759 0.173725
H34   H     H_    0.744440 0.519941 0.080833 0.109664
H35   H     H_    0.052683 0.948446 0.281476 0.145760
H36   H     H_    0.155633 0.952060 0.207167 0.152484
H37   H     H_    0.176861 0.926681 0.323089 0.147780
H38   H     H_    0.743945 0.594084 0.389360 0.124501
H39   H     H_    0.256227 0.404490 0.609596 0.123112
H40   H     H_    0.105296 0.347395 0.673938 0.109731
H41   H     H_    0.895489 0.646928 0.321815 0.112694
H42   H     H_    0.768997 0.954679 0.540253 0.153516
N1    N     N_R   0.743820 0.499960 0.499930 -0.245581
N2    N     N_R   0.256180 0.500040 0.500070 -0.246300
O1    O     O_R   0.582280 0.500030 0.370250 -0.509674
O2    O     O_3   0.370572 0.033096 0.526422 -0.592382
O3    O     O_3   0.915638 0.337685 0.691641 -0.587913
O4    O     O_3   0.085455 0.655513 0.304423 -0.585562
O5    O     O_R   0.417720 0.499970 0.629750 -0.511844
O6    O     O_R   0.417740 0.500020 0.370270 -0.508942
O7    O     O_R   0.582260 0.499980 0.629730 -0.513498
O8    O     O_R   0.593900 0.362160 0.500010 -0.500262
O9    O     O_R   0.406100 0.637840 0.499990 -0.505105
O10   O     O_R   0.429360 0.362150 0.500030 -0.482357
O11   O     O_R   0.570640 0.637850 0.499970 -0.484546
O12   O     O_3   0.631041 0.966819 0.486957 -0.593015

loop_
_geom_bond_atom_site_label_1
_geom_bond_atom_site_label_2
_ccdc_geom_bond_type
C30   C32   A    
C42   O3    S    
C16   C21   S    
C23   C45   A    
C4    N2    A    
C12   C29   S    
C27   C29   A    
C14   C18   A    
C44   H29   S    
C1    O1    A    
C6    H21   S    
C41   H13   S    
Cu1   Cu2   S    
Cu1   O1    S    
C15   C19   A    
C46   O4    S    
C11   C19   A    
Cu2   O9    S    
C36   H2    S    
C6    N2    A    
C32   H12   S    
C36   C37   S    
C44   H28   S    
C17   O9    A    
C12   O7    A    
C43   H25   S    
C5    H20   S    
C17   C20   S    
C34   C35   A    
C4    C13   A    
C3    N1    A    
Cu1   O8    S    
C7    C14   A    
C23   C33   A    
C48   H37   S    
C50   C52   A    
C31   C33   A    
C9    C10   A    
C37   H4    S    
C16   O8    A    
C46   H31   S    
C49   C52   A    
C48   H36   S    
C41   H14   S    
C2    C45   A    
C22   O2    S    
C47   H32   S    
Cu2   O5    S    
C24   O12   S    
C24   C25   S    
C12   O5    A    
C44   H27   S    
C39   C40   S    
C5    C7    A    
C14   O3    S    
C6    C8    A    
Cu1   N1    S    
C43   H26   S    
C4    H39   S    
C3    H38   S    
C47   H33   S    
C43   C44   S    
C32   C35   A    
C37   C38   S    
C52   H18   S    
C28   C49   A    
C36   H42   S    
C47   C48   S    
C23   C34   A    
C9    C11   A    
C1    O6    A    
C27   H16   S    
C38   H6    S    
C13   C18   A    
C40   C41   S    
C5    N1    A    
C42   H24   S    
C8    C15   A    
C40   H11   S    
C35   C51   A    
C18   H40   S    
C46   H30   S    
C28   H17   S    
C42   C43   S    
C50   H23   S    
C19   H41   S    
C41   H15   S    
Cu1   O11   S    
C7    C9    A    
C39   H8    S    
C21   C25   T    
C46   C47   S    
C34   C49   A    
C10   C13   A    
C17   O11   A    
C51   H34   S    
C39   H9    S    
Cu2   O6    S    
C42   H22   S    
C40   H10   S    
Cu2   O10   S    
C48   H35   S    
C38   H7    S    
C28   C30   A    
C33   C50   A    
C29   C31   A    
C36   O12   S    
C27   C45   A    
C39   O2    S    
C20   C26   T    
C2    H19   S    
C1    C30   S    
C22   C24   D    
C15   O4    S    
C3    C11   A    
C2    C51   A    
C16   O10   A    
C38   H5    S    
Cu1   O7    S    
C8    C10   A    
C22   C26   S    
Cu2   N2    S    
C31   H1    S    
C37   H3    S    
