data_mof_unit_25918.cif
_audit_creation_date              2012-12-10T20:51:45-0500
_audit_creation_method            fapswitch 2.2
_symmetry_space_group_name_H-M    P1
_symmetry_Int_Tables_number       1
_space_group_crystal_system       triclinic
_cell_length_a                    8.12357
_cell_length_b                    8.926153
_cell_length_c                    16.597128
_cell_angle_alpha                 89.64932
_cell_angle_beta                  92.019477
_cell_angle_gamma                 89.972907
_cell_volume                      1202.7244446

loop_
_atom_site_label
_atom_site_type_symbol
_atom_type_description
_atom_site_fract_x
_atom_site_fract_y
_atom_site_fract_z
_atom_type_partial_charge
C1    C     C_R   0.500004 0.218059 0.500011 0.943025
C2    C     C_R   0.612175 0.570451 0.131513 0.115297
C3    C     C_R   0.417939 0.480142 0.900739 0.213342
C4    C     C_R   0.462803 0.618626 0.094782 0.229300
C5    C     C_R   0.520216 0.369217 0.868567 0.152055
C6    C     C_R   0.335135 0.673886 0.141347 0.160729
C7    C     C_R   0.567126 0.381950 0.787616 0.106773
C8    C     C_R   0.340817 0.644553 0.225210 0.119498
C9    C     C_1   0.500020 0.065194 0.499812 -0.206639
C10   C     C_1   0.499958 0.934757 0.499681 -0.198182
C11   C     C_3   0.795797 0.598362 0.256697 -0.363646
C12   C     C_R   0.499980 0.781934 0.499763 0.917260
C13   C     C_3   0.797238 0.748101 0.302147 -0.799597
C14   C     C_3   0.375046 0.765060 0.728360 -0.389721
C15   C     C_3   0.531730 0.856416 0.717589 -0.878548
C16   C     C_3   0.754306 0.526991 0.079563 -0.903482
C17   C     C_3   0.205163 0.684813 0.879369 -0.906444
C18   C     C_3   0.577268 0.237575 0.920458 -0.903764
C19   C     C_3   0.195521 0.762661 0.101793 -0.906805
C20   C     C_3   0.673932 0.264779 0.748874 -0.849978
C21   C     C_3   0.207973 0.703545 0.278257 -0.855927
C22   C     C_R   0.517061 0.501329 0.653995 0.913467
C23   C     C_R   0.482859 0.519335 0.346101 0.899192
C24   C     C_R   0.512460 0.507032 0.741446 -0.153919
C25   C     C_R   0.481011 0.570890 0.260574 -0.188041
C26   C     C_R   0.412222 0.619186 0.774602 0.097857
C27   C     C_R   0.627615 0.569266 0.216055 0.094746
C28   C     C_R   0.349623 0.594832 0.851210 0.142732
H1    H     H_    0.807242 0.842425 0.258615 0.238804
H2    H     H_    0.288545 0.838808 0.759554 0.220550
H3    H     H_    0.711912 0.454543 0.029228 0.266767
H4    H     H_    0.810734 0.629241 0.054126 0.244577
H5    H     H_    0.848812 0.459256 0.113070 0.229575
H6    H     H_    0.146886 0.630019 0.931337 0.257382
H7    H     H_    0.245437 0.799668 0.896051 0.243309
H8    H     H_    0.107617 0.690814 0.830847 0.235189
H9    H     H_    0.527717 0.239164 0.981845 0.250792
H10   H     H_    0.534240 0.131317 0.892371 0.245475
H11   H     H_    0.713783 0.237308 0.926904 0.243850
H12   H     H_    0.684452 0.766185 0.336419 0.259224
H13   H     H_    0.213137 0.783922 0.037214 0.252545
H14   H     H_    0.077565 0.702452 0.108516 0.242574
H15   H     H_    0.188879 0.875386 0.129327 0.240618
H16   H     H_    0.711106 0.170715 0.789176 0.243504
H17   H     H_    0.606883 0.216053 0.695853 0.221818
H18   H     H_    0.788859 0.318183 0.728624 0.252318
H19   H     H_    0.123105 0.784176 0.247972 0.241904
H20   H     H_    0.133311 0.608774 0.299926 0.255990
H21   H     H_    0.264803 0.764456 0.330330 0.241299
H22   H     H_    0.903324 0.752149 0.345954 0.247650
H23   H     H_    0.835510 0.503445 0.296092 0.220670
H24   H     H_    0.893728 0.608660 0.212562 0.206899
H25   H     H_    0.589090 0.884544 0.777342 0.264463
H26   H     H_    0.621899 0.794013 0.681967 0.261977
H27   H     H_    0.500289 0.962076 0.685019 0.248898
H28   H     H_    0.314668 0.742919 0.668767 0.228103
N1    N     N_1   0.073640 0.500030 0.499990 -0.041914
N2    N     N_1   0.926360 0.499970 0.500010 -0.039261
N3    N     N_2   0.408626 0.489324 0.985411 -0.173979
N4    N     N_2   0.446084 0.616734 0.010335 -0.155568
O1    O     O_R   0.636850 0.285340 0.500000 -0.610196
O2    O     O_R   0.363150 0.714660 0.500000 -0.625603
O3    O     O_R   0.363100 0.285350 0.500000 -0.607614
O4    O     O_R   0.636900 0.714650 0.500000 -0.618227
O5    O     O_R   0.652140 0.498630 0.616140 -0.612035
O6    O     O_R   0.347860 0.501370 0.383860 -0.614113
O7    O     O_R   0.378390 0.498650 0.616130 -0.624707
O8    O     O_R   0.621610 0.501350 0.383870 -0.614378
Zn1   Zn    Zn3+2 0.682780 0.499990 0.500010 0.966511
Zn2   Zn    Zn3+2 0.317220 0.500010 0.499990 0.963777

loop_
_geom_bond_atom_site_label_1
_geom_bond_atom_site_label_2
_ccdc_geom_bond_type
C23   O8    A    
C14   H28   S    
C18   H11   S    
C19   H14   S    
N2    Zn1   S    
C2    C27   A    
C6    C19   S    
C17   H8    S    
C16   H5    S    
C16   H4    S    
C2    C16   S    
C9    C10   T    
C26   C28   A    
C20   H17   S    
O3    Zn2   S    
C11   C27   S    
C21   H20   S    
O7    Zn2   S    
C21   H21   S    
C8    C21   S    
C18   H10   S    
C1    C9    S    
N3    N4    D    
C22   O5    A    
O4    Zn1   S    
C14   C26   S    
C16   H3    S    
C8    C25   A    
C11   C13   S    
C4    N4    S    
N1    N2    T    
O6    Zn2   S    
C10   C12   S    
C14   H2    S    
O5    Zn1   S    
C2    C4    A    
C15   H25   S    
C23   O6    A    
C13   H1    S    
C3    C28   A    
C20   H16   S    
C18   H9    S    
C24   C26   A    
C23   C25   S    
C11   H23   S    
C5    C18   S    
C12   O4    A    
C22   C24   S    
C22   O7    A    
C25   C27   A    
C17   H6    S    
C19   H13   S    
N1    Zn2   S    
C1    O1    A    
C7    C24   A    
C15   H26   S    
C1    O3    A    
C12   O2    A    
O2    Zn2   S    
C4    C6    A    
C7    C20   S    
O1    Zn1   S    
C5    C7    A    
C3    N3    S    
C14   C15   S    
C13   H12   S    
C6    C8    A    
C11   H24   S    
C17   H7    S    
C3    C5    A    
C17   C28   S    
C20   H18   S    
C13   H22   S    
C19   H15   S    
O8    Zn1   S    
C21   H19   S    
C15   H27   S    
