data_mof_unit_52776.cif
_audit_creation_date              2012-12-10T17:16:43-0500
_audit_creation_method            fapswitch 2.2
_symmetry_space_group_name_H-M    P1
_symmetry_Int_Tables_number       1
_space_group_crystal_system       triclinic
_cell_length_a                    10.192613
_cell_length_b                    10.684609
_cell_length_c                    10.872768
_cell_angle_alpha                 88.553543
_cell_angle_beta                  94.673617
_cell_angle_gamma                 84.195721
_cell_volume                      1173.43173539

loop_
_atom_site_label
_atom_site_type_symbol
_atom_type_description
_atom_site_fract_x
_atom_site_fract_y
_atom_site_fract_z
_atom_type_partial_charge
C1    C     C_R   0.444216 0.509272 0.268117 0.837877
C2    C     C_R   0.501375 0.739197 0.486289 0.890987
C3    C     C_R   0.517463 0.152990 0.287169 -0.114547
C4    C     C_R   0.478241 0.848360 0.713374 -0.125749
C5    C     C_R   0.572513 0.108252 0.182964 0.058439
C6    C     C_R   0.422390 0.894066 0.817013 0.056194
C7    C     C_R   0.614275 0.980555 0.177867 0.365765
C8    C     C_R   0.381642 0.021909 0.821686 0.357305
C9    C     C_R   0.593841 0.897162 0.275917 0.273039
C10   C     C_R   0.404003 0.104749 0.724078 0.286028
C11   C     C_R   0.541060 0.944486 0.387487 -0.068404
C12   C     C_R   0.555968 0.491937 0.731751 0.836319
C13   C     C_R   0.457425 0.056594 0.613048 -0.071402
C14   C     C_R   0.513434 0.075299 0.394264 -0.006593
C15   C     C_R   0.484391 0.925624 0.606353 -0.009129
C16   C     C_R   0.515647 0.871153 0.493223 -0.078013
C17   C     C_R   0.483746 0.129500 0.507625 -0.067229
C18   C     C_2   0.411646 0.516800 0.136570 0.210141
C19   C     C_2   0.589602 0.490355 0.862890 0.214015
C20   C     C_2   0.512053 0.516760 0.065315 -0.145180
C21   C     C_2   0.490998 0.518782 0.933799 -0.151693
C22   C     C_2   0.068410 0.504964 0.477690 0.234006
C23   C     C_2   0.925736 0.523154 0.495801 0.276471
C24   C     C_R   0.498751 0.261057 0.514531 0.886562
Cl1   Cl    Cl    0.298863 0.076133 0.950612 -0.491612
Cl2   Cl    Cl    0.695745 0.927200 0.047970 -0.508736
Cl3   Cl    Cl    0.650963 0.739667 0.252704 -0.574416
Cl4   Cl    Cl    0.348620 0.262847 0.747438 -0.476416
Cl5   Cl    Cl    0.756205 0.449524 0.921347 -0.450692
Cl6   Cl    Cl    0.244003 0.521513 0.077460 -0.469685
Cl7   Cl    Cl    0.898703 0.295883 0.413286 -0.413955
Cl8   Cl    Cl    0.124352 0.585519 0.701565 -0.365818
H1    H     H_    0.482532 0.251890 0.285008 0.156984
H2    H     H_    0.815948 0.623206 0.615587 0.255671
H3    H     H_    0.181981 0.385176 0.377074 0.254826
H4    H     H_    0.119718 0.528070 0.303737 0.256109
H5    H     H_    0.512288 0.749270 0.716029 0.153804
H6    H     H_    0.390609 0.543721 0.893435 0.254716
H7    H     H_    0.613491 0.513189 0.105175 0.253148
H8    H     H_    0.693118 0.194680 0.077207 0.272018
H9    H     H_    0.546881 0.167688 0.002940 0.260603
H10   H     H_    0.300091 0.809468 0.922467 0.267766
H11   H     H_    0.446406 0.835721 0.997331 0.259722
H12   H     H_    0.833259 0.700526 0.476653 0.240362
N1    N     N_2   0.157300 0.551390 0.551120 0.041286
N2    N     N_2   0.842700 0.448610 0.448880 0.050439
N3    N     N_3   0.591582 0.196254 0.085902 -0.390746
N4    N     N_3   0.401798 0.807114 0.914328 -0.410275
N5    N     N_3   0.878919 0.639555 0.547371 -0.402192
N6    N     N_3   0.101902 0.454275 0.362612 -0.372964
O1    O     O_R   0.568940 0.489660 0.307530 -0.581200
O2    O     O_R   0.431060 0.510340 0.692470 -0.564947
O3    O     O_R   0.348880 0.522640 0.340350 -0.641709
O4    O     O_R   0.651120 0.477360 0.659650 -0.593823
O5    O     O_R   0.610030 0.300280 0.483580 -0.560745
O6    O     O_R   0.389970 0.699720 0.516420 -0.592868
O7    O     O_R   0.389970 0.333270 0.516400 -0.592834
O8    O     O_R   0.610030 0.666730 0.483600 -0.627750
Zn1   Zn    Zn3+2 0.646940 0.477980 0.478080 1.085533
Zn2   Zn    Zn3+2 0.353060 0.522020 0.521920 1.075185

loop_
_geom_bond_atom_site_label_1
_geom_bond_atom_site_label_2
_ccdc_geom_bond_type
H12   N5    S    
H8    N3    S    
C6    C8    A    
C2    O8    A    
N1    Zn2   S    
C18   Cl6   S    
O5    Zn1   S    
N2    Zn1   S    
C2    C16   S    
H11   N4    S    
C13   C17   A    
C22   N6    S    
C3    C5    A    
C4    C15   A    
C13   C15   A    
H9    N3    S    
C23   N2    D    
C2    O6    A    
C20   C21   S    
C24   O5    A    
C8    Cl1   S    
C1    O1    A    
C14   C17   A    
C1    C18   S    
C7    Cl2   S    
C6    N4    S    
C3    C14   A    
C12   C19   S    
C8    C10   A    
C19   C21   D    
O3    Zn2   S    
H3    N6    S    
C18   C20   D    
O4    Zn1   S    
C9    C11   A    
C11   C14   A    
C23   N5    S    
C17   C24   S    
O1    Zn1   S    
C3    H1    S    
C15   C16   A    
C5    N3    S    
C7    C9    A    
C22   N1    D    
H4    N6    S    
C4    H5    S    
C9    Cl3   S    
C4    C6    A    
Cl8   N1    S    
C10   Cl4   S    
C5    C7    A    
C20   H7    S    
C1    O3    A    
C22   C23   S    
H2    N5    S    
H10   N4    S    
O2    Zn2   S    
C12   O2    A    
O8    Zn1   S    
C10   C13   A    
C11   C16   A    
C12   O4    A    
C21   H6    S    
O6    Zn2   S    
C24   O7    A    
O7    Zn2   S    
Cl7   N2    S    
C19   Cl5   S    
