data_mof_unit_60869.cif
_audit_creation_date              2013-03-05T15:53:02-0500
_audit_creation_method            fapswitch 2.2
_symmetry_space_group_name_H-M    P1
_symmetry_Int_Tables_number       1
_space_group_crystal_system       triclinic
_cell_length_a                    8.522667
_cell_length_b                    17.37392
_cell_length_c                    18.883918
_cell_angle_alpha                 99.835072
_cell_angle_beta                  92.319922
_cell_angle_gamma                 96.064005
_cell_volume                      2734.78030988

loop_
_atom_site_label
_atom_site_type_symbol
_atom_site_description
_atom_site_fract_x
_atom_site_fract_y
_atom_site_fract_z
_atom_type_partial_charge
P1    P     P_3+3 0.048060 0.426210 0.336320 0.693421
O1    O     O_2   0.878040 0.448040 0.325130 -0.323080
O2    O     O_3   0.126800 0.453980 0.414370 -0.268157
O3    O     O_3   0.651020 0.589120 0.368830 -0.232441
O4    O     O_2   0.754707 0.525344 0.245558 -0.295625
O5    O     O_3   0.020606 0.323930 0.309012 -0.498701
O6    O     O_3   0.688503 0.667869 0.252653 -0.485581
C1    C     C_3   0.541698 0.758344 0.204442 0.562376
H1    H     H_    0.512387 0.710885 0.157089 0.088172
P2    P     P_3+3 0.655920 0.678120 0.556130 0.736984
P3    P     P_3+3 0.113786 0.732206 0.407534 0.685457
O7    O     O_2   0.830300 0.688050 0.534560 -0.400533
O8    O     O_3   0.068750 0.630380 0.404830 -0.281700
O9    O     O_2   0.013712 0.768177 0.468239 -0.319037
O10   O     O_3   0.670546 0.711562 0.649908 -0.622023
O11   O     O_3   0.020504 0.758405 0.330953 -0.460686
C2    C     C_3   0.126368 0.766738 0.276200 0.483419
H2    H     H_    0.244007 0.793738 0.301127 0.001923
C3    C     C_3   0.068511 0.824032 0.225324 0.366246
C4    C     C_3   0.140446 0.717654 0.634755 0.589935
H3    H     H_    0.054780 0.684158 0.593909 0.077812
C5    C     C_3   0.083104 0.799171 0.656922 -0.103793
H4    H     H_    0.077533 0.827111 0.608352 0.141170
H5    H     H_    0.961522 0.792781 0.675105 0.170409
Ba1   Ba    Ba6+2 0.849550 0.533890 0.465080 1.972800
C6    C     C_3   0.983287 0.281098 0.363434 0.077765
H6    H     H_    0.855666 0.281891 0.372304 0.054055
H7    H     H_    0.054507 0.305615 0.414399 0.134079
C7    C     C_3   0.019527 0.195619 0.336978 0.916512
C8    C     C_3   0.716908 0.654204 0.687312 1.305251
C9    C     C_3   0.756209 0.690448 0.766797 1.022417
H8    H     H_    0.671546 0.732622 0.785752 0.061397
P4    P     P_3+3 0.141640 0.573850 0.663690 0.725859
O12   O     O_2   0.311660 0.551990 0.674910 -0.266546
O13   O     O_3   0.062910 0.546080 0.585630 -0.271446
O14   O     O_3   0.538690 0.410940 0.631180 -0.281448
O15   O     O_3   0.157816 0.677572 0.692147 -0.473793
P5    P     P_3+3 0.091636 0.268166 0.592724 0.652083
O16   O     O_3   0.620260 0.406250 0.463620 -0.221579
O17   O     O_3   0.120960 0.369680 0.595180 -0.345531
O18   O     O_2   0.235054 0.232084 0.558227 -0.359745
O19   O     O_3   0.101217 0.252264 0.682128 -0.443960
Ba2   Ba    Ba6+2 0.340280 0.466170 0.534930 1.943842
P6    P     P_3+3 0.626753 0.576125 0.275655 0.764225
C10   C     C_3   0.582145 0.724346 0.271642 0.925801
H9    H     H_    0.439792 0.791397 0.214392 0.078082
O20   O     O_3   0.569440 0.593820 0.536390 -0.205573
C11   C     C_3   0.483671 0.324945 0.310436 1.280304
C12   C     C_3   0.487214 0.290262 0.230729 1.574769
P7    P     P_3+3 0.537025 0.307425 0.443956 0.671648
O21   O     O_2   0.359400 0.311980 0.465480 -0.317543
O22   O     O_3   0.534327 0.270867 0.351214 -0.607594
C13   C     C_3   0.141263 0.324367 0.729252 0.223077
H10   H     H_    0.253007 0.353446 0.714712 0.096154
H11   H     H_    0.051498 0.365054 0.725891 0.045983
C14   C     C_3   0.156474 0.310980 0.807021 1.163123
H12   H     H_    0.209105 0.256001 0.809830 0.123247
P8    P     P_3+3 0.568573 0.418341 0.724887 0.600931
C15   C     C_3   0.554628 0.262873 0.702416 0.367903
O23   O     O_2   0.450724 0.473399 0.759422 -0.368768
O24   O     O_3   0.508806 0.326916 0.750945 -0.584817
H13   H     H_    0.506841 0.264026 0.646956 0.040078
H14   H     H_    0.530749 0.135212 0.684684 0.017621
C16   C     C_3   0.485110 0.183595 0.721810 0.743369
C17   C     C_R   0.003427 0.458524 0.046461 0.044845
C18   C     C_R   0.905217 0.424968 0.094100 0.096430
C19   C     C_R   0.749195 0.394285 0.070517 -0.036739
C20   C     C_R   0.690811 0.397323 0.000821 -0.125121
C21   C     C_R   0.787805 0.430211 0.952738 0.125941
C22   C     C_R   0.944740 0.460769 0.975296 0.083286
C23   C     C_R   0.729927 0.432378 0.882520 -0.065773
C24   C     C_R   0.827316 0.462940 0.832576 -0.051019
C25   C     C_R   0.984132 0.496199 0.855544 0.041559
C26   C     C_R   0.041870 0.494562 0.927215 0.117032
C27   C     C_R   0.773169 0.460209 0.760177 0.146523
C28   C     C_R   0.877403 0.486779 0.711298 0.569599
C29   C     C_R   0.027873 0.527062 0.733638 0.014103
C30   C     C_R   0.080991 0.533860 0.808313 -0.262539
C31   C     C_R   0.159962 0.489422 0.069758 0.097451
C32   C     C_R   0.216624 0.490506 0.142109 0.061338
C33   C     C_R   0.114314 0.460244 0.191614 -0.060750
C34   C     C_R   0.962512 0.423716 0.164872 -0.007398
H15   H     H_    0.671297 0.368828 0.106361 0.199344
H16   H     H_    0.569401 0.373797 0.984491 0.178511
H17   H     H_    0.608188 0.409505 0.867654 0.193560
H18   H     H_    0.885514 0.395178 0.198874 0.186493
C35   C     C_R   0.225949 0.577074 0.838555 0.438493
C36   C     C_R   0.291795 0.564327 0.904877 -0.086343
C37   C     C_R   0.197918 0.525533 0.950576 0.092492
C38   C     C_R   0.258040 0.521662 0.021129 -0.062807
C39   C     C_R   0.448458 0.593945 0.928141 -0.249516
C40   C     C_R   0.511486 0.585582 0.995095 0.832719
C41   C     C_R   0.416106 0.550974 0.043034 -0.311515
C42   C     C_R   0.375193 0.522067 0.164467 -0.282296
C43   C     C_R   0.475626 0.546959 0.112552 0.757559
C44   C     C_R   0.426585 0.528874 0.238051 0.115141
C45   C     C_R   0.322035 0.502542 0.286985 0.579718
C46   C     C_R   0.166762 0.468480 0.265988 0.088605
H19   H     H_    0.525235 0.622746 0.894243 0.247961
H20   H     H_    0.464495 0.146916 0.474929 0.237917
C47   C     C_R   0.428552 0.720329 0.456296 0.582988
C48   C     C_R   0.561337 0.747479 0.504942 0.040173
C49   C     C_R   0.606984 0.829437 0.522577 0.215567
C50   C     C_R   0.515651 0.882280 0.495403 -0.188829
C51   C     C_R   0.369942 0.854110 0.456644 0.143561
C52   C     C_R   0.323081 0.772385 0.438854 -0.141460
C53   C     C_R   0.582999 0.168476 0.497663 -0.232878
C54   C     C_R   0.645466 0.245361 0.494035 0.048858
C55   C     C_R   0.898102 0.222367 0.547566 0.042478
C56   C     C_R   0.833997 0.145031 0.553020 0.227331
C57   C     C_R   0.676490 0.117803 0.526163 -0.149322
C58   C     C_1   0.616109 0.035465 0.518973 0.225466
C59   C     C_1   0.568862 0.966091 0.509753 0.300206
C60   C     C_R   0.802680 0.271340 0.517899 0.409050
N1    N     N_R   0.657507 0.786712 0.328426 0.222303
O25   O     O_R   0.618903 0.857998 0.334565 -0.326562
O26   O     O_R   0.737364 0.767797 0.381544 -0.348862
N2    N     N_R   0.186294 0.850911 0.712945 0.321416
O27   O     O_R   0.190400 0.837703 0.778618 -0.150392
O28   O     O_R   0.259906 0.915785 0.699296 -0.240309
N3    N     N_R   0.969359 0.169368 0.260233 0.269466
O29   O     O_R   0.051041 0.196353 0.211182 -0.201315
O30   O     O_R   0.852846 0.114245 0.239696 -0.197614
N4    N     N_R   0.941950 0.142029 0.380205 0.162175
O31   O     O_R   0.025338 0.099706 0.414213 -0.259491
O32   O     O_R   0.788569 0.128698 0.377337 -0.392067
F1    F     F_    0.181658 0.194133 0.344657 -0.601427
F2    F     F_    0.846468 0.625491 0.658518 -0.745867
F3    F     F_    0.598472 0.593220 0.682048 -0.637642
F4    F     F_    0.663955 0.810096 0.189018 -0.567393
F5    F     F_    0.905808 0.730793 0.776782 -0.643182
F6    F     F_    0.749075 0.632450 0.808662 -0.710874
F7    F     F_    0.442303 0.693401 0.296168 -0.807577
F8    F     F_    0.331666 0.338651 0.325315 -0.691370
F9    F     F_    0.581555 0.394957 0.324385 -0.703165
F10   F     F_    0.394598 0.218486 0.215285 -0.563052
F11   F     F_    0.429889 0.340623 0.189223 -0.761818
F12   F     F_    0.640773 0.279457 0.213880 -0.705528
N5    N     N_R   0.209062 0.864015 0.198374 0.212503
O33   O     O_R   0.297840 0.919976 0.241025 -0.240735
O34   O     O_R   0.247396 0.844471 0.132155 -0.249852
F13   F     F_    0.252334 0.372808 0.848448 -0.741822
F14   F     F_    0.009555 0.305473 0.835387 -0.653729
N6    N     N_R   0.726567 0.266888 0.702789 0.174238
O35   O     O_R   0.801402 0.316034 0.668250 -0.489591
O36   O     O_R   0.803871 0.216261 0.728837 -0.320982
F15   F     F_    0.323202 0.172487 0.710628 -0.643280
N7    N     N_R   0.143569 0.688711 0.234762 0.236896
O37   O     O_R   0.217443 0.681902 0.175516 -0.456092
O38   O     O_R   0.064299 0.626414 0.250606 -0.334179
N8    N     N_R   0.528516 0.177533 0.796307 0.272585
O39   O     O_R   0.485889 0.227085 0.849796 -0.324201
O40   O     O_R   0.602842 0.119438 0.809660 -0.222035
F16   F     F_    0.829421 0.474471 0.640525 -0.582398
N9    N     N_R   0.275041 0.650650 0.817853 0.255925
O41   O     O_R   0.207992 0.711504 0.846138 -0.209062
O42   O     O_R   0.409163 0.661756 0.788957 -0.372436
F17   F     F_    0.664646 0.614825 0.013449 -0.583913
F18   F     F_    0.632640 0.566821 0.127959 -0.618056
F19   F     F_    0.375908 0.505875 0.355984 -0.583501
N10   N     N_R   0.268625 0.908963 0.437718 0.265129
O43   O     O_R   0.150893 0.925285 0.477089 -0.231583
O44   O     O_R   0.317224 0.956607 0.394967 -0.267967
N11   N     N_R   0.925593 0.095083 0.586955 0.293353
O45   O     O_R   0.068474 0.085066 0.568641 -0.221929
O46   O     O_R   0.864301 0.057356 0.634948 -0.261740
N12   N     N_R   0.742333 0.859714 0.570306 0.244686
O47   O     O_R   0.726086 0.872046 0.639352 -0.298204
O48   O     O_R   0.864605 0.895163 0.545450 -0.282913
F20   F     F_    0.388943 0.642187 0.434401 -0.595468
F21   F     F_    0.862441 0.345792 0.513622 -0.643661
N13   N     N_R   0.965138 0.781410 0.162732 0.279235
O49   O     O_R   0.931486 0.817504 0.109954 -0.155186
O50   O     O_R   0.894454 0.711013 0.161104 -0.222927
N14   N     N_R   0.981671 0.885637 0.264599 0.276787
O51   O     O_R   0.916882 0.933205 0.229051 -0.151258
O52   O     O_R   0.995262 0.904322 0.334433 -0.221205
N15   N     N_R   0.287999 0.723526 0.602374 0.136430
O53   O     O_R   0.402186 0.774972 0.634008 -0.390203
O54   O     O_R   0.320292 0.657716 0.565934 -0.405504

loop_
_geom_bond_atom_site_label_1
_geom_bond_atom_site_label_2
_geom_bond_distance
_ccdc_geom_bond_type
C30   C35   1.420053 A    
P7    C54   1.843735 S    
C35   C36   1.413021 A    
C19   H15   1.082195 S    
C47   C48   1.414956 A    
C17   C31   1.407841 A    
C12   F11   1.382820 S    
C50   C59   1.454338 S    
N9    O42   1.296709 A    
N5    O34   1.302756 A    
C25   C26   1.427214 A    
C11   F9    1.379583 S    
C57   C58   1.449871 S    
Ba2   O21   2.798620 S    
Ba1   Ba2   4.662537 S    
O3    Ba1   2.788745 S    
N14   O52   1.300516 A    
C13   H10   1.097502 S    
C49   N12   1.430152 S    
O2    Ba2   2.820777 S    
C15   C16   1.549125 S    
O10   C8    1.396146 S    
C43   F18   1.353171 S    
O6    C10   1.416716 S    
C26   C37   1.404672 A    
C11   F8    1.373219 S    
N11   O45   1.300414 A    
N7    O38   1.299968 A    
P5    O19   1.756794 S    
O14   P8    1.758297 S    
P2    O10   1.761961 S    
O19   C13   1.407806 S    
C8    C9    1.534110 S    
C32   C33   1.430985 A    
P3    O9    1.542436 D    
C33   C46   1.435213 A    
P8    O23   1.546620 D    
N1    O25   1.302201 A    
C7    N4    1.464110 S    
C45   C46   1.403769 A    
C14   H12   1.105583 S    
C40   F17   1.358396 S    
P1    O1    1.551409 D    
C5    H5    1.105195 S    
C54   C60   1.398551 A    
C21   C23   1.403923 A    
N2    O27   1.298958 A    
C58   C59   1.210502 T    
C31   C38   1.412338 A    
C9    F5    1.378052 S    
C49   C50   1.411285 A    
P4    O13   1.569863 S    
C23   H17   1.079081 S    
C14   F14   1.382188 S    
O17   Ba2   2.785755 S    
C1    C10   1.530280 S    
C1    H1    1.108347 S    
N1    O26   1.296895 A    
C7    N3    1.474449 S    
C22   C26   1.412305 A    
P7    O22   1.756358 S    
N8    O39   1.300827 A    
O13   Ba2   2.975714 S    
Ba1   O20   2.983801 S    
C29   C30   1.444841 A    
C14   F13   1.381705 S    
C36   C37   1.407061 A    
P8    O24   1.772286 S    
C18   C19   1.404222 A    
C41   C43   1.403712 A    
C12   F12   1.383638 S    
H14   C16   1.113214 S    
P1    Ba1   3.423766 S    
O8    Ba1   2.785116 S    
C21   C22   1.406713 A    
C24   C27   1.416515 A    
C50   C51   1.411744 A    
N10   O44   1.300544 A    
N13   O50   1.299893 A    
P8    C27   1.867102 S    
C33   C34   1.412702 A    
C3    N14   1.477840 S    
C13   H11   1.102115 S    
C60   F21   1.356094 S    
C8    F2    1.355025 S    
C15   O24   1.415210 S    
C16   N8    1.464148 S    
C19   C20   1.399595 A    
P4    Ba2   3.424411 S    
C45   F19   1.353538 S    
N15   O53   1.299843 A    
P2    C48   1.891137 S    
C2    N7    1.469846 S    
C28   C29   1.406438 A    
P5    O18   1.548614 D    
N12   O48   1.299360 A    
C39   C40   1.390150 A    
C56   N11   1.437262 S    
O11   C2    1.415319 S    
O16   Ba2   2.982791 S    
O3    P6    1.736255 S    
P7    O21   1.589755 D    
C34   H18   1.078360 S    
P4    O15   1.779288 S    
C56   C57   1.418352 A    
P1    O2    1.569730 S    
C20   H16   1.083787 S    
C27   C28   1.406970 A    
C9    F6    1.380997 S    
P6    C44   1.869595 S    
C18   C34   1.408681 A    
P3    O11   1.771674 S    
C10   N1    1.461761 S    
N15   O54   1.292139 A    
C9    H8    1.108459 S    
C36   C39   1.403796 A    
O2    Ba1   2.974890 S    
C25   C30   1.431753 A    
C44   C45   1.407869 A    
P3    C52   1.878656 S    
C2    H2    1.110764 S    
C6    H6    1.108336 S    
C47   F20   1.352108 S    
O6    P6    1.756167 S    
C3    N13   1.483401 S    
P5    C55   1.859563 S    
C42   C44   1.421392 A    
N3    O29   1.301534 A    
P2    O7    1.556682 D    
C55   C60   1.404039 A    
Ba1   O13   2.820014 S    
P2    Ba1   3.404458 S    
N6    O36   1.301431 A    
C11   C12   1.525526 S    
O4    P6    1.540383 D    
C4    C5    1.542768 S    
C15   N6    1.459337 S    
C42   C43   1.419620 A    
C7    F1    1.386949 S    
C16   F15   1.375557 S    
C1    F4    1.376608 S    
C51   N10   1.430666 S    
C53   C54   1.398721 A    
C32   C42   1.422477 A    
C15   H13   1.112420 S    
N12   O47   1.300235 A    
N13   O49   1.302757 A    
C38   C41   1.408272 A    
N4    O32   1.300535 A    
C13   C14   1.528177 S    
C47   C52   1.408555 A    
C5    N2    1.460649 S    
H20   C53   1.083837 S    
P1    O5    1.751498 S    
C53   C57   1.405337 A    
C20   C21   1.404458 A    
O12   Ba2   2.837720 S    
C24   C25   1.418625 A    
P1    C46   1.900466 S    
C12   F10   1.382876 S    
N5    O33   1.301617 A    
C10   F7    1.385057 S    
C8    F3    1.371596 S    
C51   C52   1.412370 A    
C6    H7    1.110920 S    
O7    Ba1   2.798533 S    
N6    O35   1.292344 A    
N11   O46   1.301071 A    
C23   C24   1.414820 A    
N14   O51   1.301724 A    
N10   O43   1.299403 A    
C55   C56   1.418160 A    
Ba1   O16   2.792212 S    
P5    O17   1.747345 S    
C4    O15   1.395750 S    
P3    O8    1.761761 S    
P4    C29   1.910409 S    
O5    C6    1.396005 S    
C28   F16   1.356003 S    
C40   C41   1.408594 A    
C2    C3    1.596580 S    
P4    O12   1.551681 D    
O1    Ba1   2.837236 S    
C35   N9    1.425815 S    
N7    O37   1.299873 A    
N8    O40   1.301049 A    
C48   C49   1.414319 A    
N2    O28   1.301286 A    
N3    O30   1.301783 A    
C31   C32   1.426936 A    
C11   O22   1.402883 S    
O16   P7    1.758593 S    
C4    H3    1.085336 S    
C6    C7    1.551279 S    
C3    N5    1.473353 S    
C17   C18   1.409539 A    
N9    O41   1.299645 A    
C5    H4    1.110219 S    
O14   Ba2   2.788112 S    
C1    H9    1.095948 S    
C39   H19   1.078188 S    
C37   C38   1.422946 A    
P2    O20   1.546116 S    
Ba2   O20   2.791656 S    
C4    N15   1.422032 S    
C17   C22   1.423144 A    
N4    O31   1.301149 A    
