data_mof_unit_61592.cif
_audit_creation_date              2012-12-10T22:25:49-0500
_audit_creation_method            fapswitch 2.2
_symmetry_space_group_name_H-M    P1
_symmetry_Int_Tables_number       1
_space_group_crystal_system       triclinic
_cell_length_a                    33.0639
_cell_length_b                    33.047383
_cell_length_c                    33.05316
_cell_angle_alpha                 60.293004
_cell_angle_beta                  60.260918
_cell_angle_gamma                 60.28072
_cell_volume                      25698.9333507

loop_
_atom_site_label
_atom_site_type_symbol
_atom_type_description
_atom_site_fract_x
_atom_site_fract_y
_atom_site_fract_z
_atom_type_partial_charge
C1    C     C_R   0.960783 0.595766 0.960702 0.928542
C2    C     C_R   0.039189 0.404251 0.039253 0.929133
C3    C     C_R   0.595659 0.960783 0.960869 0.932619
C4    C     C_R   0.404241 0.039255 0.039179 0.924889
C5    C     C_R   0.960772 0.960899 0.595667 0.932610
C6    C     C_R   0.039261 0.039165 0.404239 0.924992
C7    C     C_R   0.968380 0.429492 0.679429 -0.185001
C8    C     C_R   0.031572 0.570345 0.320555 -0.184510
C9    C     C_R   0.429592 0.679449 0.968522 -0.184409
C10   C     C_R   0.573692 0.320888 0.031908 -0.189335
C11   C     C_R   0.679465 0.968350 0.429592 -0.184919
C12   C     C_R   0.320884 0.031948 0.573642 -0.189352
C13   C     C_R   0.570701 0.031543 0.320547 -0.185377
C14   C     C_R   0.426372 0.968089 0.679107 -0.189199
C15   C     C_R   0.320949 0.573947 0.032207 -0.189399
C16   C     C_R   0.679061 0.426402 0.968054 -0.189187
C17   C     C_R   0.031569 0.320569 0.570715 -0.185473
C18   C     C_R   0.967767 0.679087 0.426071 -0.189282
C19   C     C_R   0.947044 0.418045 0.730719 0.659668
C20   C     C_R   0.052931 0.581790 0.269267 0.660476
C21   C     C_R   0.418080 0.730741 0.947170 0.660770
C22   C     C_R   0.586373 0.269468 0.053192 0.673355
C23   C     C_R   0.730735 0.947013 0.418201 0.659314
C24   C     C_R   0.269476 0.053217 0.586269 0.673088
C25   C     C_R   0.582225 0.052798 0.269242 0.659792
C26   C     C_R   0.413722 0.946778 0.730516 0.673403
C27   C     C_R   0.269547 0.586498 0.053458 0.672034
C28   C     C_R   0.730460 0.413799 0.946752 0.673262
C29   C     C_R   0.052838 0.269262 0.582231 0.659938
C30   C     C_R   0.946469 0.730494 0.413512 0.672027
C31   C     C_R   0.898812 0.446719 0.751436 -0.137562
C32   C     C_R   0.101227 0.553211 0.248551 -0.137509
C33   C     C_R   0.446602 0.751459 0.898838 -0.137730
C34   C     C_R   0.556709 0.248263 0.100503 -0.149709
C35   C     C_R   0.751394 0.898783 0.446898 -0.137320
C36   C     C_R   0.248295 0.100507 0.556588 -0.149569
C37   C     C_R   0.553505 0.100964 0.248474 -0.137606
C38   C     C_R   0.443356 0.899438 0.751657 -0.149910
C39   C     C_R   0.248401 0.556513 0.100535 -0.149582
C40   C     C_R   0.751618 0.443464 0.899429 -0.149840
C41   C     C_R   0.100995 0.248482 0.553471 -0.137700
C42   C     C_R   0.899381 0.751609 0.443521 -0.149677
C43   C     C_R   0.946918 0.423623 0.898251 -0.112568
C44   C     C_R   0.053045 0.576457 0.101714 -0.112286
C45   C     C_R   0.423531 0.898352 0.946951 -0.112728
C46   C     C_R   0.514107 0.130530 0.077496 -0.129722
C47   C     C_R   0.898314 0.946972 0.423556 -0.112884
C48   C     C_R   0.130538 0.077483 0.514022 -0.130243
C49   C     C_R   0.577433 0.052808 0.100915 -0.114439
C50   C     C_R   0.486401 0.922558 0.869099 -0.130818
C51   C     C_R   0.130969 0.513843 0.077125 -0.132116
C52   C     C_R   0.869071 0.486402 0.922650 -0.131227
C53   C     C_R   0.052850 0.100946 0.577414 -0.114508
C54   C     C_R   0.922719 0.869064 0.486235 -0.131095
C55   C     C_R   0.967978 0.435062 0.917074 0.554821
C56   C     C_R   0.031982 0.564960 0.082943 0.554930
C57   C     C_R   0.434980 0.917185 0.967997 0.555648
C58   C     C_R   0.503359 0.110120 0.057480 0.561936
C59   C     C_R   0.917155 0.968005 0.435010 0.555679
C60   C     C_R   0.110103 0.057496 0.503277 0.561507
C61   C     C_R   0.565884 0.031856 0.082040 0.558826
C62   C     C_R   0.496984 0.942625 0.889612 0.564143
C63   C     C_R   0.110440 0.503225 0.057111 0.564377
C64   C     C_R   0.889594 0.496957 0.942724 0.564578
C65   C     C_R   0.031872 0.082100 0.565867 0.558599
C66   C     C_R   0.942793 0.889565 0.496820 0.564073
C67   C     C_R   0.939272 0.471602 0.939643 -0.338386
C68   C     C_R   0.060720 0.528460 0.060319 -0.338620
C69   C     C_R   0.471584 0.939649 0.939282 -0.338054
C70   C     C_R   0.528876 0.060559 0.060102 -0.339085
C71   C     C_R   0.939715 0.939261 0.471527 -0.338084
C72   C     C_R   0.060545 0.060152 0.528830 -0.338802
C73   C     C_R   0.897424 0.449391 0.900668 0.008051
C74   C     C_R   0.102578 0.550794 0.099185 0.008006
C75   C     C_R   0.449333 0.900676 0.897460 0.008189
C76   C     C_R   0.551445 0.102190 0.098996 0.009030
C77   C     C_R   0.900724 0.897461 0.449267 0.008082
C78   C     C_R   0.102230 0.098992 0.551391 0.009235
C79   C     C_R   0.482595 0.595394 0.961375 0.929550
C80   C     C_R   0.517563 0.404606 0.038557 0.929122
C81   C     C_R   0.595389 0.961353 0.482613 0.930113
C82   C     C_R   0.404606 0.038568 0.517567 0.929629
C83   C     C_R   0.961362 0.482601 0.595387 0.929791
C84   C     C_R   0.038639 0.517395 0.404610 0.929599
C85   C     C_R   0.404626 0.517561 0.038570 0.929895
C86   C     C_R   0.595380 0.482420 0.961440 0.929916
C87   C     C_R   0.038631 0.404605 0.517396 0.929824
C88   C     C_R   0.961439 0.595371 0.482454 0.930181
C89   C     C_R   0.517402 0.038634 0.404597 0.929833
C90   C     C_R   0.482422 0.961449 0.595386 0.930051
C91   C     C_R   0.805331 0.875354 0.877317 0.360655
C92   C     C_R   0.193850 0.124471 0.121681 0.346719
C93   C     C_R   0.874939 0.878260 0.805450 0.359018
C94   C     C_R   0.124442 0.121782 0.193852 0.346728
C95   C     C_R   0.877554 0.806028 0.874758 0.353366
C96   C     C_R   0.121756 0.193925 0.124461 0.348235
C97   C     C_R   0.731193 0.947300 0.894910 0.601165
C98   C     C_R   0.268918 0.051647 0.108524 0.599678
C99   C     C_R   0.947005 0.895642 0.731327 0.604503
C100  C     C_R   0.051650 0.108584 0.268931 0.599017
C101  C     C_R   0.891112 0.731268 0.947700 0.597810
C102  C     C_R   0.108328 0.268899 0.051713 0.600542
C103  C     C_R   0.068152 0.276657 0.133286 0.586958
C104  C     C_R   0.931541 0.723181 0.866270 0.587519
C105  C     C_R   0.133298 0.067723 0.276479 0.584840
C106  C     C_R   0.866997 0.927922 0.722223 0.589760
C107  C     C_R   0.276508 0.133313 0.067662 0.585788
C108  C     C_R   0.722178 0.867206 0.927215 0.593546
C109  C     C_R   0.039270 0.517370 0.039255 0.996048
C110  C     C_R   0.960728 0.482641 0.960739 0.996003
C111  C     C_R   0.517502 0.039223 0.039181 0.995901
C112  C     C_R   0.482645 0.960740 0.960727 0.995007
C113  C     C_R   0.039211 0.039198 0.517494 0.996004
C114  C     C_R   0.960762 0.960717 0.482628 0.994814
C115  C     C_R   0.680097 0.968495 0.914443 -0.174430
C116  C     C_R   0.320114 0.030508 0.089888 -0.201165
C117  C     C_R   0.968330 0.914826 0.680186 -0.174872
C118  C     C_R   0.030523 0.089889 0.320126 -0.201218
C119  C     C_R   0.909983 0.680111 0.969028 -0.199690
C120  C     C_R   0.089672 0.320087 0.030556 -0.201151
C121  C     C_R   0.049551 0.327849 0.112667 -0.172623
C122  C     C_R   0.950324 0.672009 0.887062 -0.172972
C123  C     C_R   0.112724 0.049054 0.327671 -0.190193
C124  C     C_R   0.887943 0.946557 0.671084 -0.170456
C125  C     C_R   0.327696 0.112727 0.049053 -0.191117
C126  C     C_R   0.671067 0.888025 0.946213 -0.171526
C127  C     C_R   0.649494 0.939006 0.939919 -0.268351
C128  C     C_R   0.350178 0.060931 0.059975 -0.280335
C129  C     C_R   0.938945 0.940107 0.649529 -0.268556
C130  C     C_R   0.060943 0.059955 0.350173 -0.280336
C131  C     C_R   0.939799 0.649806 0.938830 -0.276481
C132  C     C_R   0.060054 0.350218 0.060927 -0.276758
C133  C     C_R   0.752340 0.896747 0.901201 -0.159717
C134  C     C_R   0.246934 0.102947 0.097763 -0.154331
C135  C     C_R   0.896426 0.902101 0.752456 -0.160036
C136  C     C_R   0.102932 0.097853 0.246931 -0.153526
C137  C     C_R   0.901587 0.752987 0.896420 -0.156884
C138  C     C_R   0.097878 0.247006 0.102972 -0.156375
C139  C     C_R   0.877342 0.437394 0.804907 0.016428
C140  C     C_R   0.122720 0.562536 0.195072 0.016721
C141  C     C_R   0.437280 0.804933 0.877376 0.016108
C142  C     C_R   0.566180 0.194738 0.121372 0.013853
C143  C     C_R   0.804854 0.877294 0.437566 0.016665
C144  C     C_R   0.194785 0.121386 0.566043 0.013941
C145  C     C_R   0.563006 0.122399 0.194955 0.015945
C146  C     C_R   0.433997 0.878563 0.805133 0.014170
C147  C     C_R   0.194932 0.565939 0.121399 0.014673
C148  C     C_R   0.805083 0.434123 0.878542 0.014444
C149  C     C_R   0.122438 0.194962 0.562950 0.015985
C150  C     C_R   0.878502 0.805084 0.434122 0.014932
C151  C     C_R   0.875917 0.439756 0.877914 -0.193015
C152  C     C_R   0.124079 0.560407 0.121968 -0.192833
C153  C     C_R   0.439668 0.877932 0.875962 -0.193014
C154  C     C_R   0.561123 0.123652 0.121779 -0.193137
C155  C     C_R   0.877937 0.875969 0.439648 -0.193044
C156  C     C_R   0.123707 0.121778 0.561043 -0.193119
C157  C     C_R   0.830406 0.432852 0.830337 -0.211826
C158  C     C_R   0.169665 0.567063 0.169653 -0.212074
C159  C     C_R   0.432715 0.830366 0.830447 -0.211187
C160  C     C_R   0.567304 0.169458 0.169620 -0.211775
C161  C     C_R   0.830252 0.830325 0.433057 -0.212623
C162  C     C_R   0.169493 0.169635 0.567206 -0.211781
C163  C     C_R   0.828473 0.435784 0.903002 0.618306
C164  C     C_R   0.171501 0.564437 0.096876 0.618309
C165  C     C_R   0.435681 0.903016 0.828530 0.618290
C166  C     C_R   0.560173 0.099320 0.170980 0.623963
C167  C     C_R   0.903019 0.828542 0.435600 0.618133
C168  C     C_R   0.099369 0.170980 0.560129 0.623793
C169  C     C_R   0.564858 0.171204 0.096801 0.618729
C170  C     C_R   0.440563 0.828745 0.900283 0.623694
C171  C     C_R   0.099790 0.559369 0.171214 0.623444
C172  C     C_R   0.900252 0.440648 0.828717 0.623664
C173  C     C_R   0.171267 0.096808 0.564719 0.618680
C174  C     C_R   0.828715 0.900260 0.440690 0.624240
C175  C     C_R   0.871656 0.486307 0.720660 0.630084
C176  C     C_R   0.128429 0.513738 0.279338 0.629108
C177  C     C_R   0.486079 0.720671 0.871593 0.629830
C178  C     C_R   0.515057 0.278756 0.126923 0.624183
C179  C     C_R   0.720573 0.871631 0.486454 0.629779
C180  C     C_R   0.278800 0.126922 0.514974 0.624011
C181  C     C_R   0.513771 0.128120 0.279240 0.629300
C182  C     C_R   0.484934 0.873007 0.721137 0.624778
C183  C     C_R   0.278888 0.514621 0.126744 0.624957
C184  C     C_R   0.721127 0.485025 0.873003 0.624624
C185  C     C_R   0.128128 0.279236 0.513706 0.629261
C186  C     C_R   0.873205 0.721086 0.485442 0.625151
C187  C     C_R   0.892482 0.497209 0.669825 -0.263285
C188  C     C_R   0.107591 0.502868 0.330170 -0.262833
C189  C     C_R   0.497016 0.669837 0.892424 -0.262627
C190  C     C_R   0.503063 0.329685 0.106286 -0.260476
C191  C     C_R   0.669756 0.892458 0.497298 -0.263277
C192  C     C_R   0.329716 0.106300 0.503032 -0.260428
C193  C     C_R   0.502799 0.107380 0.330090 -0.263697
C194  C     C_R   0.496900 0.893673 0.670225 -0.259846
C195  C     C_R   0.329795 0.502678 0.106105 -0.261159
C196  C     C_R   0.670225 0.496944 0.893658 -0.259852
C197  C     C_R   0.107373 0.330088 0.502740 -0.263277
C198  C     C_R   0.893892 0.670172 0.497394 -0.260621
C199  C     C_R   0.940905 0.469651 0.648921 -0.247182
C200  C     C_R   0.059105 0.530319 0.351071 -0.246589
C201  C     C_R   0.469629 0.648933 0.940945 -0.246613
C202  C     C_R   0.531477 0.351009 0.058647 -0.245104
C203  C     C_R   0.648911 0.940879 0.469713 -0.247225
C204  C     C_R   0.351019 0.058680 0.531463 -0.245288
C205  C     C_R   0.530422 0.059029 0.351037 -0.247186
C206  C     C_R   0.468528 0.941343 0.648957 -0.245406
C207  C     C_R   0.351070 0.531450 0.058696 -0.245349
C208  C     C_R   0.648940 0.468540 0.941313 -0.245354
C209  C     C_R   0.059031 0.351046 0.530403 -0.247135
C210  C     C_R   0.941311 0.648930 0.468599 -0.245447
H1    H     H_    0.812013 0.432097 0.811304 0.224169
H2    H     H_    0.188108 0.567708 0.188711 0.223924
H3    H     H_    0.431936 0.811342 0.812047 0.224463
H4    H     H_    0.567790 0.187953 0.188747 0.224449
H5    H     H_    0.811188 0.811853 0.432454 0.223718
H6    H     H_    0.187972 0.188769 0.567696 0.224438
H7    H     H_    0.871175 0.528026 0.646555 0.201857
H8    H     H_    0.128942 0.472147 0.353443 0.201839
H9    H     H_    0.527739 0.646566 0.871036 0.201945
H10   H     H_    0.470735 0.352680 0.127056 0.200547
H11   H     H_    0.646452 0.871153 0.528088 0.201876
H12   H     H_    0.352719 0.127063 0.470727 0.200648
H13   H     H_    0.471884 0.128698 0.353338 0.201709
H14   H     H_    0.529180 0.872903 0.647198 0.200792
H15   H     H_    0.352808 0.470142 0.126680 0.200336
H16   H     H_    0.647219 0.529215 0.872898 0.200817
H17   H     H_    0.128672 0.353327 0.471802 0.201759
H18   H     H_    0.873338 0.647129 0.529946 0.200501
H19   H     H_    0.969241 0.394798 0.881626 0.226644
H20   H     H_    0.030691 0.605235 0.118400 0.226912
H21   H     H_    0.394667 0.881798 0.969275 0.226548
H22   H     H_    0.492599 0.168265 0.076993 0.219389
H23   H     H_    0.881678 0.969326 0.394766 0.226605
H24   H     H_    0.168269 0.076954 0.492485 0.219196
H25   H     H_    0.606510 0.030518 0.117165 0.226779
H26   H     H_    0.507805 0.923347 0.831271 0.220621
H27   H     H_    0.168832 0.492536 0.076173 0.220547
H28   H     H_    0.831241 0.507787 0.923511 0.220712
H29   H     H_    0.030581 0.117205 0.606515 0.226792
H30   H     H_    0.923581 0.831215 0.507572 0.220588
N1    N     N_R   0.827669 0.900150 0.830282 -0.160139
N2    N     N_R   0.171546 0.099825 0.168814 -0.152126
N3    N     N_R   0.899668 0.831145 0.827727 -0.157366
N4    N     N_R   0.099814 0.168935 0.171594 -0.152925
N5    N     N_R   0.830260 0.828199 0.899259 -0.155242
N6    N     N_R   0.168866 0.171610 0.099770 -0.151486
O1    O     O_R   0.003330 0.572150 0.937250 -0.631868
O2    O     O_R   0.996670 0.427850 0.062750 -0.631683
O3    O     O_R   0.572150 0.937250 0.003330 -0.612623
O4    O     O_R   0.427850 0.062750 0.996670 -0.622253
O5    O     O_R   0.937250 0.003330 0.572150 -0.612882
O6    O     O_R   0.062750 0.996670 0.427850 -0.622193
O7    O     O_R   0.427850 0.996670 0.062750 -0.621314
O8    O     O_R   0.572150 0.003330 0.937250 -0.612874
O9    O     O_R   0.062750 0.427850 0.996670 -0.605160
O10   O     O_R   0.937250 0.572150 0.003330 -0.604687
O11   O     O_R   0.996670 0.062750 0.427850 -0.621387
O12   O     O_R   0.003330 0.937250 0.572150 -0.612642
O13   O     O_R   0.996560 0.512880 0.063050 -0.586904
O14   O     O_R   0.003440 0.487120 0.936950 -0.587101
O15   O     O_R   0.512880 0.063050 0.996560 -0.587942
O16   O     O_R   0.487120 0.936950 0.003440 -0.587384
O17   O     O_R   0.063050 0.996560 0.512880 -0.587975
O18   O     O_R   0.936950 0.003440 0.487120 -0.587144
O19   O     O_R   0.487120 0.003440 0.936950 -0.578489
O20   O     O_R   0.512880 0.996560 0.063050 -0.578099
O21   O     O_R   0.936950 0.487120 0.003440 -0.578519
O22   O     O_R   0.063050 0.512880 0.996560 -0.578279
O23   O     O_R   0.003440 0.936950 0.487120 -0.578518
O24   O     O_R   0.996560 0.063050 0.512880 -0.578249
O25   O     O_R   0.488820 0.572080 0.003280 -0.606017
O26   O     O_R   0.511180 0.427920 0.996720 -0.604964
O27   O     O_R   0.572080 0.003280 0.488820 -0.605455
O28   O     O_R   0.427920 0.996720 0.511180 -0.605006
O29   O     O_R   0.003280 0.488820 0.572080 -0.605443
O30   O     O_R   0.996720 0.511180 0.427920 -0.605992
O31   O     O_R   0.427920 0.511180 0.996720 -0.604313
O32   O     O_R   0.572080 0.488820 0.003280 -0.604831
O33   O     O_R   0.996720 0.427920 0.511180 -0.605353
O34   O     O_R   0.003280 0.572080 0.488820 -0.604088
O35   O     O_R   0.511180 0.996720 0.427920 -0.605578
O36   O     O_R   0.488820 0.003280 0.572080 -0.604819
O37   O     O_R   0.427880 0.513270 0.062460 -0.616845
O38   O     O_R   0.572120 0.486730 0.937540 -0.616694
O39   O     O_R   0.513270 0.062460 0.427880 -0.617121
O40   O     O_R   0.486730 0.937540 0.572120 -0.616680
O41   O     O_R   0.062460 0.427880 0.513270 -0.617234
O42   O     O_R   0.937540 0.572120 0.486730 -0.616867
O43   O     O_R   0.486730 0.572120 0.937540 -0.616881
O44   O     O_R   0.513270 0.427880 0.062460 -0.616429
O45   O     O_R   0.937540 0.486730 0.572120 -0.617124
O46   O     O_R   0.062460 0.513270 0.427880 -0.616932
O47   O     O_R   0.572120 0.937540 0.486730 -0.617275
O48   O     O_R   0.427880 0.062460 0.513270 -0.616565
Zn1   Zn    Zn3+2 0.044470 0.500000 0.955530 1.096829
Zn2   Zn    Zn3+2 0.955530 0.500000 0.044470 1.096923
Zn3   Zn    Zn3+2 0.500000 0.955530 0.044470 1.098273
Zn4   Zn    Zn3+2 0.500000 0.044470 0.955530 1.098247
Zn5   Zn    Zn3+2 0.955530 0.044470 0.500000 1.098008
Zn6   Zn    Zn3+2 0.044470 0.955530 0.500000 1.097675
Zn7   Zn    Zn3+2 0.500090 0.500090 0.045140 1.042026
Zn8   Zn    Zn3+2 0.499910 0.499910 0.954860 1.042387
Zn9   Zn    Zn3+2 0.500090 0.045140 0.500090 1.041897
Zn10  Zn    Zn3+2 0.499910 0.954860 0.499910 1.041530
Zn11  Zn    Zn3+2 0.045140 0.500090 0.500090 1.041600
Zn12  Zn    Zn3+2 0.954860 0.499910 0.499910 1.041223
F1    F     F_    0.760443 0.975837 0.870337 -0.606275
F2    F     F_    0.240425 0.022057 0.137023 -0.607166
F3    F     F_    0.975452 0.871189 0.760630 -0.605960
F4    F     F_    0.022068 0.137102 0.240451 -0.607530
F5    F     F_    0.862692 0.759997 0.977076 -0.607750
F6    F     F_    0.136535 0.240321 0.022190 -0.606806
F7    F     F_    0.059242 0.256130 0.182886 -0.615780
F8    F     F_    0.940495 0.743533 0.816663 -0.614236
F9    F     F_    0.182951 0.058432 0.255858 -0.616823
F10   F     F_    0.818255 0.932800 0.742222 -0.614458
F11   F     F_    0.255911 0.182980 0.058347 -0.614316
F12   F     F_    0.742215 0.818474 0.931989 -0.612691
F13   F     F_    0.803785 0.437022 0.949947 -0.609697
F14   F     F_    0.196145 0.563394 0.049862 -0.609796
F15   F     F_    0.436944 0.949945 0.803852 -0.609622
F16   F     F_    0.551402 0.055577 0.197021 -0.612945
F17   F     F_    0.950017 0.803914 0.436616 -0.609941
F18   F     F_    0.055626 0.197019 0.551399 -0.613075
F19   F     F_    0.563634 0.195870 0.049866 -0.608796
F20   F     F_    0.449657 0.802562 0.943853 -0.612968
F21   F     F_    0.056225 0.550253 0.197398 -0.613491
F22   F     F_    0.943848 0.449704 0.802523 -0.613177
F23   F     F_    0.195943 0.049873 0.563454 -0.609062
F24   F     F_    0.802557 0.943864 0.449760 -0.612932
C211  C     C_1   0.017554 0.398668 0.658890 0.335842
N7    N     N_1   0.056881 0.373975 0.642399 -0.151399
C212  C     C_1   0.982300 0.601038 0.341076 0.336404
N8    N     N_1   0.942893 0.625629 0.357550 -0.151153
C213  C     C_1   0.398957 0.658922 0.017830 0.336390
N9    N     N_1   0.374412 0.642443 0.057267 -0.151195
C214  C     C_1   0.605117 0.342036 0.983512 0.332941
N10   N     N_1   0.630283 0.359006 0.944797 -0.153480
C215  C     C_1   0.658998 0.017520 0.398743 0.335890
N11   N     N_1   0.642564 0.056843 0.374030 -0.151396
C216  C     C_1   0.342002 0.983574 0.605086 0.332756
N12   N     N_1   0.358949 0.944877 0.630269 -0.153710
C217  C     C_1   0.601575 0.982444 0.341123 0.335694
N13   N     N_1   0.626308 0.943176 0.357644 -0.151452
C218  C     C_1   0.394982 0.016516 0.658004 0.332700
N14   N     N_1   0.369843 0.055255 0.641069 -0.153756
C219  C     C_1   0.342088 0.605783 0.984148 0.331434
N15   N     N_1   0.359056 0.631279 0.945709 -0.154594
C220  C     C_1   0.657941 0.394988 0.016471 0.332654
N16   N     N_1   0.640992 0.369830 0.055201 -0.153857
C221  C     C_1   0.982480 0.341162 0.601626 0.335646
N17   N     N_1   0.943222 0.357697 0.626390 -0.151338
C222  C     C_1   0.015834 0.657975 0.394212 0.331281
N18   N     N_1   0.054280 0.641028 0.368698 -0.154813
F25   F     F_    0.825572 0.515560 0.739655 -0.574200
F26   F     F_    0.174578 0.484564 0.260360 -0.575018
F27   F     F_    0.515208 0.739650 0.825414 -0.574300
F28   F     F_    0.484757 0.259358 0.171976 -0.575785
F29   F     F_    0.739505 0.825543 0.515719 -0.574622
F30   F     F_    0.259429 0.171957 0.484660 -0.575821
F31   F     F_    0.484460 0.174130 0.260218 -0.574761
F32   F     F_    0.515201 0.827924 0.740492 -0.575104
F33   F     F_    0.259490 0.484071 0.171576 -0.575496
F34   F     F_    0.740498 0.515321 0.827935 -0.575196
F35   F     F_    0.174128 0.260199 0.484358 -0.574738
F36   F     F_    0.828360 0.740459 0.516010 -0.575221
F37   F     F_    0.972931 0.378888 0.760458 -0.598711
F38   F     F_    0.026998 0.620863 0.239527 -0.598084
F39   F     F_    0.379013 0.760480 0.973151 -0.598135
F40   F     F_    0.627502 0.240134 0.028075 -0.585764
F41   F     F_    0.760514 0.972894 0.379059 -0.598859
F42   F     F_    0.240130 0.028108 0.627368 -0.585934
F43   F     F_    0.621527 0.026904 0.239540 -0.597973
F44   F     F_    0.372678 0.971903 0.759899 -0.586431
F45   F     F_    0.240175 0.627797 0.028557 -0.587160
F46   F     F_    0.759818 0.372764 0.971866 -0.586480
F47   F     F_    0.026968 0.239571 0.621560 -0.597895
F48   F     F_    0.971339 0.759901 0.372186 -0.587421
F49   F     F_    0.015931 0.409663 0.914352 -0.629820
F50   F     F_    0.983991 0.590262 0.085770 -0.629178
F51   F     F_    0.409532 0.914582 0.015942 -0.629241
F52   F     F_    0.466960 0.138242 0.037048 -0.624717
F53   F     F_    0.914451 0.015977 0.409657 -0.629128
F54   F     F_    0.138200 0.037049 0.466851 -0.625287
F55   F     F_    0.591606 0.984048 0.084053 -0.613167
F56   F     F_    0.533105 0.963459 0.861480 -0.612622
F57   F     F_    0.138613 0.467214 0.036108 -0.612926
F58   F     F_    0.861461 0.533018 0.963662 -0.612637
F59   F     F_    0.984070 0.084142 0.591627 -0.613386
F60   F     F_    0.963716 0.861398 0.532858 -0.612749
C223  C     C_1   0.660101 0.020247 0.909259 0.379151
N19   N     N_1   0.644111 0.061641 0.905164 -0.128477
C224  C     C_1   0.340582 0.977466 0.101606 0.419776
N20   N     N_1   0.356802 0.934995 0.111215 -0.064653
C225  C     C_1   0.020107 0.909480 0.660187 0.378471
N21   N     N_1   0.061523 0.905256 0.644193 -0.129443
C226  C     C_1   0.977497 0.101567 0.340608 0.419375
N22   N     N_1   0.935039 0.111144 0.356839 -0.064631
C227  C     C_1   0.898592 0.659917 0.022019 0.422176
N23   N     N_1   0.889246 0.643913 0.064453 -0.061349
C228  C     C_1   0.101118 0.340489 0.977554 0.423296
N24   N     N_1   0.110526 0.356653 0.935111 -0.061882
C229  C     C_1   0.021880 0.356710 0.145433 0.380394
N25   N     N_1   0.999806 0.379742 0.171671 -0.134761
C230  C     C_1   0.978215 0.642982 0.854439 0.382627
N26   N     N_1   0.000466 0.619814 0.828313 -0.132101
C231  C     C_1   0.145670 0.020754 0.356345 0.403678
N27   N     N_1   0.172089 0.998144 0.379190 -0.076213
C232  C     C_1   0.856657 0.970152 0.641330 0.381229
N28   N     N_1   0.831637 0.988972 0.617546 -0.130993
C233  C     C_1   0.356386 0.145679 0.020792 0.405379
N29   N     N_1   0.379244 0.172102 0.998214 -0.073870
C234  C     C_1   0.641350 0.856642 0.970030 0.381435
N30   N     N_1   0.617595 0.831543 0.989027 -0.130954

loop_
_geom_bond_atom_site_label_1
_geom_bond_atom_site_label_2
_ccdc_geom_bond_type
C89   O39   A    
C126  C127  A    
C90   O36   A    
C104  F8    S    
O6    Zn6   S    
O18   Zn5   S    
C13   C25   A    
C13   C217  S    
C214  N10   T    
C212  N8    T    
C45   C57   A    
C18   C210  A    
C87   O41   A    
C172  F22   S    
C147  C164  A    
C88   O42   A    
C41   C149  S    
C28   C40   A    
C105  C123  A    
O5    Zn5   S    
C116  C224  S    
C113  O17   A    
C114  O18   A    
C111  O15   A    
C163  F13   S    
C164  F14   S    
C89   C205  S    
C91   N1    A    
C155  C167  A    
O4    Zn4   S    
O16   Zn3   S    
C182  C194  A    
C97   C115  A    
C10   C214  S    
C107  F11   S    
C161  H5    S    
C88   C210  S    
O43   Zn8   S    
C149  C168  A    
C191  C203  A    
C109  O22   A    
C110  O21   A    
C198  H18   S    
C176  C188  A    
C145  C166  A    
C156  C173  A    
C22   F40   S    
C82   O48   A    
O26   Zn8   S    
C83   O45   A    
C26   C38   A    
C72   C113  S    
C79   O25   A    
C80   O26   A    
C165  F15   S    
C109  O13   A    
C110  O14   A    
C100  F4    S    
C15   C27   A    
C101  F5    S    
O14   Zn1   S    
C37   C181  A    
C43   H19   S    
C192  C204  A    
O17   Zn6   S    
C14   C26   A    
O47   Zn10  S    
C44   C74   A    
C10   C202  A    
O42   Zn12  S    
C16   C220  S    
C56   F50   S    
O13   Zn2   S    
C7    C19   A    
C14   C206  A    
C176  F26   S    
C85   O31   A    
O25   Zn7   S    
C103  C121  A    
C114  O23   A    
O31   Zn8   S    
C152  C171  A    
C150  C161  A    
C82   O28   A    
C20   F38   S    
C190  C202  A    
C64   F58   S    
C1    C131  S    
C29   F47   S    
C63   F57   S    
C224  N20   T    
C33   C141  S    
C101  C137  A    
C53   C78   A    
C36   C144  S    
C108  C133  A    
C230  N26   T    
C44   C56   A    
C80   O44   A    
C11   C23   A    
C123  C231  S    
C47   C59   A    
C213  N9    T    
C179  C191  A    
C139  C157  A    
C169  F19   S    
C85   O37   A    
C106  C124  A    
C60   C72   A    
C171  F21   S    
C149  C162  A    
C185  C197  A    
C232  N28   T    
C186  F36   S    
C143  C161  A    
O46   Zn11  S    
C189  H9    S    
C47   H23   S    
C43   C73   A    
C14   C218  S    
C220  N16   T    
C221  N17   T    
C97   C133  A    
C6    C130  S    
C9    C21   A    
C228  N24   T    
C95   N3    A    
C162  H6    S    
O19   Zn4   S    
C24   C36   A    
C6    O11   A    
C107  C134  A    
C186  C198  A    
C96   C138  S    
C104  C122  A    
C156  C168  A    
C227  N23   T    
C181  F31   S    
C38   C146  S    
C140  C158  A    
C98   C116  A    
C141  C159  A    
C96   N4    A    
C25   F43   S    
C153  C170  A    
C90   O40   A    
O30   Zn12  S    
C27   F45   S    
O7    Zn3   S    
C191  H11   S    
C1    O10   A    
C52   H28   S    
C54   C77   A    
C46   C58   A    
C30   C42   A    
C83   O29   A    
C35   C179  A    
C22   C34   A    
C95   C137  S    
C193  C205  A    
C195  H15   S    
C33   C177  A    
C170  F20   S    
C175  F25   S    
C107  C125  A    
C1    O1    A    
C184  F34   S    
C79   C201  S    
C56   C68   A    
C125  C233  S    
C196  C208  A    
C99   C117  A    
C119  C227  S    
C75   C153  S    
C67   C110  S    
C2    C132  S    
C84   O46   A    
C193  H13   S    
C160  H4    S    
O45   Zn12  S    
O44   Zn7   S    
C50   H26   S    
C12   C216  S    
C155  C174  A    
C43   C55   A    
C146  C165  A    
C185  F35   S    
C157  H1    S    
C140  C171  A    
C123  C130  A    
C8    C200  A    
C182  F32   S    
C121  C132  A    
C122  C131  A    
C85   C207  S    
C20   C32   A    
O34   Zn11  S    
C63   C68   A    
C86   O38   A    
C153  C165  A    
C46   H22   S    
C92   C134  S    
C3    O3    A    
C93   C135  S    
C190  H10   S    
C54   C66   A    
C188  H8    S    
C65   C72   A    
C12   C24   A    
C38   C182  A    
C108  C126  A    
C39   C147  S    
C192  H12   S    
C93   N1    A    
C226  N22   T    
C95   N5    A    
C78   C156  S    
C117  C225  S    
C76   C154  S    
C148  C157  A    
C86   O32   A    
C198  C210  A    
C48   H24   S    
C175  C187  A    
C60   F54   S    
O32   Zn7   S    
C180  F30   S    
C7    C211  S    
C147  C158  A    
C31   C139  S    
C112  O19   A    
O23   Zn6   S    
C15   C207  A    
C100  C136  A    
O24   Zn5   S    
C61   C70   A    
C234  N30   T    
C159  H3    S    
C17   C29   A    
C36   C180  A    
C51   C74   A    
O15   Zn4   S    
C19   C31   A    
C2    O9    A    
C53   H29   S    
C222  N18   T    
C10   C22   A    
C115  C223  S    
O39   Zn9   S    
O40   Zn10  S    
C32   C140  S    
C17   C209  A    
C178  C190  A    
C69   C112  S    
C104  C137  A    
C2    O2    A    
C90   C206  S    
C80   C202  S    
C183  C195  A    
C19   F37   S    
C181  C193  A    
C29   C41   A    
C5    C129  S    
C120  C132  A    
O20   Zn3   S    
C158  H2    S    
C87   C209  S    
C96   N6    A    
C177  F27   S    
C97   F1    S    
C49   C61   A    
C4    C128  S    
C179  F29   S    
C51   C63   A    
C173  F23   S    
C52   C64   A    
C103  C138  A    
C86   C208  S    
C219  N15   T    
O10   Zn2   S    
C40   C148  S    
C184  C196  A    
C98   F2    S    
C65   F59   S    
C166  F16   S    
C154  C169  A    
C187  C199  A    
C211  N7    T    
C118  C130  A    
O29   Zn11  S    
C66   C71   A    
O38   Zn8   S    
C53   C65   A    
C99   C135  A    
C139  C172  A    
C87   O33   A    
C88   O34   A    
O35   Zn10  S    
C9    C201  A    
O36   Zn9   S    
C142  C169  A    
C62   C69   A    
O9    Zn1   S    
C23   C35   A    
C93   N3    A    
C13   C205  A    
C34   C178  A    
C100  C118  A    
C59   F53   S    
C102  C120  A    
C57   C69   A    
C9    C213  S    
C34   C142  S    
C92   N6    A    
C58   C70   A    
C30   F48   S    
C183  F33   S    
C103  F7    S    
C225  N21   T    
C121  C229  S    
C58   F52   S    
C81   O47   A    
C89   O35   A    
C61   F55   S    
C3    O8    A    
C50   C75   A    
C150  C167  A    
C141  C170  A    
C124  C129  A    
C178  F28   S    
C81   O27   A    
C68   C109  S    
C55   F49   S    
C70   C111  S    
C54   H30   S    
C122  C230  S    
C174  F24   S    
C195  C207  A    
C71   C114  S    
C28   F46   S    
C233  N29   T    
C188  C200  A    
C154  C166  A    
C143  C174  A    
O37   Zn7   S    
C39   C183  A    
C35   C143  S    
C40   C184  A    
C16   C28   A    
O3    Zn3   S    
C217  N13   T    
C91   N5    A    
C5    O5    A    
C229  N25   T    
C105  F9    S    
C46   C76   A    
C106  F10   S    
C223  N19   T    
C81   C203  S    
C31   C175  A    
C216  N12   T    
C84   C200  S    
C32   C176  A    
C108  F12   S    
C8    C20   A    
O8    Zn4   S    
C24   F42   S    
C102  C138  A    
C8    C212  S    
C3    C127  S    
O1    Zn1   S    
C115  C127  A    
O2    Zn2   S    
C168  F18   S    
C126  C234  S    
C48   C78   A    
C44   H20   S    
C94   N4    A    
C25   C37   A    
C77   C155  S    
C92   N2    A    
O11   Zn5   S    
C215  N11   T    
O12   Zn6   S    
C144  C173  A    
C125  C128  A    
C94   C136  S    
C231  N27   T    
C18   C30   A    
C21   C33   A    
C42   C186  A    
C12   C204  A    
C102  F6    S    
C23   F41   S    
C73   C151  S    
C74   C152  S    
C4    O7    A    
O41   Zn11  S    
C48   C60   A    
C194  C206  A    
C196  H16   S    
C177  C189  A    
C15   C219  S    
C101  C119  A    
C64   C67   A    
C26   F44   S    
C113  O24   A    
C52   C73   A    
C180  C192  A    
C27   C39   A    
C145  C160  A    
O33   Zn12  S    
C11   C203  A    
C146  C159  A    
C189  C201  A    
C151  C172  A    
C62   F56   S    
C119  C131  A    
C91   C133  S    
C118  C226  S    
O48   Zn9   S    
C49   C76   A    
C41   C185  A    
C51   H27   S    
C152  C164  A    
C79   O43   A    
C105  C136  A    
C197  H17   S    
C106  C135  A    
C151  C163  A    
C57   F51   S    
C50   C62   A    
C99   F3    S    
C47   C77   A    
C83   C199  S    
C117  C129  A    
C194  H14   S    
C187  H7    S    
C144  C162  A    
C66   F60   S    
C148  C163  A    
O27   Zn9   S    
C111  O20   A    
C142  C160  A    
C16   C208  A    
O28   Zn10  S    
C55   C67   A    
C17   C221  S    
C18   C222  S    
C98   C134  A    
C6    O6    A    
C45   C75   A    
C37   C145  S    
O22   Zn1   S    
C84   O30   A    
C94   N2    A    
C4    O4    A    
C120  C228  S    
C49   H25   S    
C124  C232  S    
C82   C204  S    
C5    O12   A    
C7    C199  A    
O21   Zn2   S    
C42   C150  S    
C197  C209  A    
C21   F39   S    
C116  C128  A    
C112  O16   A    
C45   H21   S    
C11   C215  S    
C218  N14   T    
C167  F17   S    
C59   C71   A    
