data_mof_unit_9395.cif
_audit_creation_date              2012-12-11T15:29:17-0500
_audit_creation_method            fapswitch 2.2
_symmetry_space_group_name_H-M    P1
_symmetry_Int_Tables_number       1
_space_group_crystal_system       triclinic
_cell_length_a                    13.574469
_cell_length_b                    13.695964
_cell_length_c                    27.568307
_cell_angle_alpha                 90.196319
_cell_angle_beta                  89.542704
_cell_angle_gamma                 60.24258
_cell_volume                      4449.21129312

loop_
_atom_site_label
_atom_site_type_symbol
_atom_type_description
_atom_site_fract_x
_atom_site_fract_y
_atom_site_fract_z
_atom_type_partial_charge
C1    C     C_R   0.620178 0.099992 0.569744 0.556203
C2    C     C_1   0.653639 0.687144 0.654342 0.022621
C3    C     C_3   0.676134 0.878099 0.693272 -0.062251
C4    C     C_3   0.266863 0.948472 0.104497 -0.116669
C5    C     C_2   0.336112 0.175156 0.255977 0.190925
C6    C     C_2   0.423138 0.118285 0.354972 0.280604
C7    C     C_2   0.551181 0.341006 0.416430 0.229881
C8    C     C_3   0.973635 0.014081 0.171540 -0.099391
C9    C     C_2   0.587852 0.403811 0.320653 0.268310
C10   C     C_3   0.378937 0.370620 0.202332 -0.103625
C11   C     C_3   0.883675 0.901644 0.361681 -0.084939
C12   C     C_2   0.449788 0.740659 0.733560 0.257960
C13   C     C_3   0.087924 0.131434 0.737506 0.236474
C14   C     C_3   0.523809 0.544544 0.811780 -0.088842
C15   C     C_3   0.106721 0.970293 0.702416 -0.079558
C16   C     C_3   0.425863 0.024564 0.773702 -0.125336
C17   C     C_R   0.600200 0.777367 0.567615 0.541972
C18   C     C_3   0.184774 0.079342 0.774790 -0.137658
C19   C     C_1   0.090869 0.207771 0.899309 0.057058
C20   C     C_1   0.218854 0.143870 0.614799 0.026259
C21   C     C_3   0.028958 0.242169 0.767091 0.028281
C22   C     C_3   0.126746 0.191437 0.803779 0.012254
C23   C     C_3   0.092325 0.289520 0.736531 -0.185914
C24   C     C_3   0.151531 0.177484 0.707525 0.035148
C25   C     C_1   0.634117 0.720771 0.613243 0.027721
C26   C     C_3   0.189511 0.239140 0.773872 0.030903
C27   C     C_3   0.247164 0.128414 0.744947 0.248088
C28   C     C_1   0.112294 0.196519 0.856568 0.058166
C29   C     C_R   0.276806 0.122048 0.568855 0.561736
C30   C     C_1   0.181594 0.161210 0.655709 0.009832
C31   C     C_3   0.664152 0.257022 0.734778 0.047331
C32   C     C_3   0.572592 0.272438 0.772738 -0.082517
C33   C     C_1   0.694195 0.210560 0.900692 0.011575
C34   C     C_1   0.636540 0.129727 0.617545 0.034722
C35   C     C_3   0.760097 0.174430 0.768598 -0.164105
C36   C     C_3   0.651787 0.578095 0.768659 0.305914
C37   C     C_3   0.668019 0.188728 0.806181 0.025747
C38   C     C_3   0.753225 0.075493 0.745037 0.012938
C39   C     C_3   0.658261 0.158589 0.711744 -0.010025
C40   C     C_3   0.663424 0.089780 0.782992 0.272303
C41   C     C_R   0.623954 0.100075 0.432469 0.646330
C42   C     C_3   0.567075 0.172087 0.749353 -0.129944
C43   C     C_1   0.678172 0.201445 0.858416 -0.007656
C44   C     C_1   0.647702 0.145461 0.659584 -0.002513
C45   C     C_R   0.633508 0.718788 0.383246 -0.039594
C46   C     C_R   0.739395 0.685570 0.360354 -0.013629
C47   C     C_3   0.698577 0.635028 0.802076 0.019285
C48   C     C_R   0.747046 0.675636 0.309234 0.231345
C49   C     C_R   0.648267 0.706397 0.281932 0.033040
C50   C     C_R   0.545172 0.738462 0.305789 0.305393
C51   C     C_R   0.543413 0.725250 0.355217 0.271946
C52   C     C_R   0.613325 0.618290 0.210804 0.244314
C53   C     C_R   0.602138 0.775035 0.431036 0.618335
C54   C     C_R   0.631491 0.587393 0.162813 -0.167899
C55   C     C_R   0.719026 0.702311 0.147486 0.029594
C56   C     C_R   0.702236 0.734038 0.197196 0.294955
C57   C     C_R   0.654470 0.687173 0.229116 0.050466
C58   C     C_3   0.573578 0.691130 0.744228 0.004739
C59   C     C_R   0.683983 0.626829 0.131097 -0.076897
C60   C     C_R   0.239696 0.131270 0.380884 0.020852
C61   C     C_R   0.140271 0.127932 0.368861 -0.020993
C62   C     C_R   0.112459 0.130884 0.319904 -0.171415
C63   C     C_R   0.178345 0.141885 0.283206 -0.042247
C64   C     C_R   0.274298 0.151032 0.294967 -0.017663
C65   C     C_R   0.280302 0.119466 0.430974 0.631514
C66   C     C_R   0.309172 0.137058 0.343589 -0.021115
C67   C     C_R   0.038304 0.247402 0.221812 -0.140262
C68   C     C_R   0.013519 0.282917 0.174314 -0.000784
C69   C     C_3   0.669258 0.665047 0.706665 0.009981
C70   C     C_R   0.184355 0.114786 0.146295 0.250346
C71   C     C_R   0.213442 0.085728 0.194940 -0.128408
C72   C     C_R   0.140588 0.153041 0.232707 -0.047721
C73   C     C_R   0.085987 0.216672 0.136045 0.086678
C74   C     C_R   0.650720 0.138714 0.387265 0.025796
C75   C     C_R   0.604812 0.254698 0.377427 -0.084856
C76   C     C_R   0.614626 0.287795 0.330004 0.005161
C77   C     C_3   0.748037 0.551093 0.730802 -0.119116
C78   C     C_R   0.663237 0.206407 0.292903 0.026080
C79   C     C_R   0.713398 0.092622 0.303955 -0.123038
C80   C     C_3   0.620177 0.749329 0.778322 -0.200631
C81   C     C_R   0.713053 0.057867 0.350925 0.264208
C82   C     C_R   0.781876 0.185207 0.222901 -0.157468
C83   C     C_R   0.800171 0.177392 0.173047 0.246318
C84   C     C_R   0.595690 0.289465 0.161558 -0.192197
C85   C     C_R   0.576787 0.287894 0.212223 0.305778
C86   C     C_R   0.672524 0.233759 0.242260 0.055232
C87   C     C_R   0.705998 0.231755 0.141986 -0.004972
C88   C     C_R   0.048541 0.236452 0.947916 0.553407
C89   C     C_3   0.793206 0.610484 0.764821 0.028417
C90   C     C_R   0.713473 0.559995 0.946089 0.541888
C91   C     C_3   0.714712 0.723188 0.740440 0.247607
C92   C     C_R   0.723681 0.225295 0.948890 0.554144
C93   C     C_R   0.046111 0.244838 0.086317 0.593787
C94   C     C_R   0.707386 0.574152 0.083236 0.524780
C95   C     C_R   0.726354 0.237596 0.089953 0.570456
C96   C     C_1   0.705191 0.598940 0.897341 0.031258
C97   C     C_2   0.915168 0.570277 0.775637 0.256491
C98   C     C_2   0.246044 0.301949 0.792251 0.249210
C99   C     C_2   0.906736 0.309001 0.781059 0.249052
C100  C     C_2   0.663817 0.345468 0.702923 0.290287
C101  C     C_3   0.758783 0.931503 0.831262 -0.102226
C102  C     C_1   0.703759 0.618924 0.854762 0.041515
C103  C     C_2   0.857697 0.969190 0.729719 0.273384
C104  C     C_2   0.844057 0.652840 0.388468 0.276297
C105  C     C_3   0.462290 0.587669 0.223053 -0.041814
C106  C     C_3   0.904590 0.520913 0.281163 -0.095974
C107  C     C_3   0.637688 0.915634 0.220116 -0.048062
C108  C     C_2   0.770965 0.747441 0.112892 0.295279
C109  C     C_3   0.374434 0.884208 0.285169 -0.105713
C110  C     C_3   0.464198 0.636701 0.397984 -0.066235
C111  C     C_2   0.062680 0.121573 0.405476 0.240515
C112  C     C_2   0.914321 0.393420 0.166764 0.217486
Cr1   Cr    Cr6+3 0.417550 0.169090 0.500530 1.089622
Cr2   Cr    Cr6+3 0.669180 0.913420 0.499920 1.113239
Cr3   Cr    Cr6+3 0.413260 0.917540 0.499520 1.103616
Cr4   Cr    Cr6+3 0.909770 0.175810 0.018240 1.058489
Cr5   Cr    Cr6+3 0.913300 0.427650 0.016090 1.094082
Cr6   Cr    Cr6+3 0.657770 0.431010 0.016900 1.022745
H1    H     H_    0.053821 0.374030 0.719986 0.102624
H2    H     H_    0.853749 0.147585 0.247060 0.111169
H3    H     H_    0.577914 0.822550 0.802869 0.112503
H4    H     H_    0.526216 0.333429 0.136766 0.108409
H5    H     H_    0.755467 0.029424 0.275859 0.127348
H6    H     H_    0.221663 0.993906 0.790464 0.086632
H7    H     H_    0.971742 0.566864 0.746874 0.107139
H8    H     H_    0.287240 0.330869 0.766842 0.100338
H9    H     H_    0.843519 0.326383 0.754084 0.109578
H10   H     H_    0.740709 0.328947 0.683774 0.096354
H11   H     H_    0.805875 0.973024 0.844956 0.101062
H12   H     H_    0.497479 0.352814 0.784191 0.138349
H13   H     H_    0.812760 0.863106 0.805415 0.174240
H14   H     H_    0.741395 0.891856 0.862726 0.150294
H15   H     H_    0.922748 0.921411 0.756059 0.093051
H16   H     H_    0.918242 0.647201 0.370680 0.133689
H17   H     H_    0.477140 0.521902 0.196036 0.105970
H18   H     H_    0.409959 0.672296 0.206684 0.120998
H19   H     H_    0.411808 0.580911 0.253303 0.163807
H20   H     H_    0.850413 0.493672 0.261961 0.140653
H21   H     H_    0.929111 0.479560 0.317134 0.115203
H22   H     H_    0.983406 0.491908 0.259342 0.163053
H23   H     H_    0.487735 0.172794 0.739814 0.142962
H24   H     H_    0.599407 0.923470 0.256661 0.164652
H25   H     H_    0.572769 0.935331 0.191545 0.109027
H26   H     H_    0.663922 0.980169 0.217206 0.168915
H27   H     H_    0.770466 0.732826 0.074235 0.092907
H28   H     H_    0.413095 0.931097 0.268441 0.116511
H29   H     H_    0.351418 0.910158 0.323713 0.187819
H30   H     H_    0.294620 0.905530 0.266264 0.128778
H31   H     H_    0.445745 0.652187 0.437404 0.160013
H32   H     H_    0.552106 0.564430 0.393338 0.124648
H33   H     H_    0.403686 0.612430 0.383151 0.111112
H34   H     H_    0.842588 0.165556 0.778471 0.150167
H35   H     H_    0.993624 0.109053 0.393586 0.101045
H36   H     H_    0.831386 0.408282 0.177909 0.104801
H37   H     H_    0.590195 0.886753 0.692267 0.120350
H38   H     H_    0.715362 0.857522 0.656507 0.165494
H39   H     H_    0.661654 0.961592 0.703264 0.166927
H40   H     H_    0.296417 0.898435 0.138327 0.098754
H41   H     H_    0.184169 0.958182 0.093062 0.129654
H42   H     H_    0.329913 0.900007 0.075574 0.146692
H43   H     H_    0.290731 0.221554 0.224225 0.118626
H44   H     H_    0.444412 0.183379 0.347738 0.137967
H45   H     H_    0.799367 0.474187 0.708722 0.089877
H46   H     H_    0.480230 0.422904 0.408201 0.064533
H47   H     H_    0.922438 0.971048 0.174722 0.150795
H48   H     H_    0.013244 0.013086 0.206765 0.103919
H49   H     H_    0.043249 0.964477 0.145337 0.133005
H50   H     H_    0.501059 0.471866 0.323207 0.102355
H51   H     H_    0.391623 0.299178 0.178709 0.143589
H52   H     H_    0.365082 0.443985 0.180357 0.089127
H53   H     H_    0.300128 0.397776 0.223903 0.144554
H54   H     H_    0.905893 0.951620 0.386779 0.111816
H55   H     H_    0.918961 0.898425 0.324789 0.109784
H56   H     H_    0.611762 0.523549 0.151104 0.150602
H57   H     H_    0.925187 0.814744 0.375694 0.143947
H58   H     H_    0.388966 0.764472 0.763195 0.060803
H59   H     H_    0.452653 0.564363 0.786830 0.144888
H60   H     H_    0.506489 0.621257 0.832650 0.078587
H61   H     H_    0.527215 0.482457 0.838413 0.148117
H62   H     H_    0.136737 0.913875 0.734323 0.116913
H63   H     H_    0.180337 0.964335 0.681768 0.160149
H64   H     H_    0.063421 0.939804 0.677854 0.196570
H65   H     H_    0.407219 0.961358 0.789854 0.102442
H66   H     H_    0.411984 0.089747 0.801189 0.161637
H67   H     H_    0.982784 0.299205 0.250949 0.110019
H68   H     H_    0.515898 0.982864 0.763332 0.194188
H69   H     H_    0.037344 0.126815 0.310057 0.107206
H70   H     H_    0.295770 0.015270 0.202821 0.114094
O1    O     O_R   0.301780 0.195490 0.553940 -0.502268
O2    O     O_R   0.636050 0.541380 0.962520 -0.516992
O3    O     O_R   0.666480 0.323610 0.968170 -0.490036
O4    O     O_R   0.522450 0.158840 0.550250 -0.485424
O5    O     O_R   0.817280 0.156800 0.072180 -0.452636
O6    O     O_R   0.005110 0.187160 0.067410 -0.482377
O7    O     O_R   0.026450 0.340060 0.069950 -0.476227
O8    O     O_R   0.808300 0.527240 0.065170 -0.466519
O9    O     O_R   0.634070 0.548770 0.069460 -0.533496
O10   O     O_R   0.664650 0.330470 0.067300 -0.520052
O11   O     O_3   0.826940 0.344820 0.017080 -0.274674
O12   O     O_R   0.658840 0.818280 0.449970 -0.432761
O13   O     O_R   0.694460 0.003360 0.553820 -0.504541
O14   O     O_R   0.657750 0.819520 0.549120 -0.506252
O15   O     O_R   0.501990 0.803120 0.552700 -0.491698
O16   O     O_R   0.318230 0.023430 0.549370 -0.485486
O17   O     O_R   0.302950 0.194150 0.446980 -0.516768
O18   O     O_R   0.523540 0.157600 0.451100 -0.479055
O19   O     O_R   0.695630 0.002030 0.446860 -0.459393
O20   O     O_2   0.951235 0.542253 0.816612 -0.456692
O21   O     O_2   0.246014 0.320960 0.835512 -0.479588
O22   O     O_2   0.877559 0.342201 0.822646 -0.470110
O23   O     O_R   0.503160 0.801780 0.445740 -0.484745
O24   O     O_2   0.576129 0.433834 0.696420 -0.460439
O25   O     O_3   0.654560 0.006509 0.809647 -0.588303
O26   O     O_2   0.871371 0.936927 0.687626 -0.496814
O27   O     O_2   0.851168 0.625529 0.430959 -0.499297
O28   O     O_3   0.566817 0.570989 0.241340 -0.496590
O29   O     O_3   0.850198 0.638884 0.285849 -0.534393
O30   O     O_3   0.734909 0.808494 0.214501 -0.489886
O31   O     O_2   0.815092 0.801282 0.126828 -0.460472
O32   O     O_3   0.447747 0.768264 0.279948 -0.549664
O33   O     O_3   0.443835 0.737325 0.375311 -0.530167
O34   O     O_R   0.319320 0.022190 0.450230 -0.452692
O35   O     O_2   0.072619 0.132159 0.448845 -0.482646
O36   O     O_2   0.926971 0.470299 0.151943 -0.480710
O37   O     O_3   0.751585 0.799132 0.726805 -0.559059
O38   O     O_3   0.259812 0.054280 0.109198 -0.571836
O39   O     O_2   0.437549 0.142222 0.257973 -0.538911
O40   O     O_2   0.494752 0.027489 0.370692 -0.511142
O41   O     O_2   0.587379 0.322163 0.457758 -0.481181
O42   O     O_3   0.910053 0.125339 0.154306 -0.547842
O43   O     O_2   0.664537 0.423460 0.311871 -0.485855
O44   O     O_3   0.469821 0.338325 0.234706 -0.556897
O45   O     O_3   0.499990 0.000010 0.499990 -0.289190
O46   O     O_3   0.765407 0.943793 0.360104 -0.514780
O47   O     O_2   0.416466 0.756015 0.691830 -0.478519
O48   O     O_3   0.627001 0.495234 0.785394 -0.525753
O49   O     O_3   0.028582 0.081252 0.717191 -0.593646
O50   O     O_3   0.362386 0.070585 0.731613 -0.591793
O51   O     O_R   0.819250 0.149410 0.965240 -0.509996
O52   O     O_R   0.006940 0.180310 0.968270 -0.510233
O53   O     O_R   0.028420 0.332670 0.963010 -0.477116
O54   O     O_R   0.810130 0.520390 0.966030 -0.483980

loop_
_geom_bond_atom_site_label_1
_geom_bond_atom_site_label_2
_ccdc_geom_bond_type
C77   H45   S    
C12   O47   D    
C83   C87   A    
C55   C56   A    
C92   O51   A    
C41   O19   A    
C96   C102  T    
C112  O36   D    
Cr3   O34   S    
C69   C77   S    
C109  H28   S    
C84   C87   A    
C73   C93   S    
C71   H70   S    
C110  H31   S    
C1    O13   A    
C56   O30   S    
C16   H65   S    
C20   C30   T    
C85   C86   A    
Cr2   O19   S    
C10   H51   S    
Cr1   O45   S    
Cr4   O51   S    
C77   C89   S    
C26   C27   S    
C62   C63   A    
C100  H10   S    
C104  H16   S    
C13   C18   S    
C94   O8    A    
C35   C37   S    
C76   C78   A    
C37   C40   S    
C55   C59   A    
C36   C77   S    
C7    O41   D    
C38   C39   S    
C21   C99   S    
C15   H62   S    
C106  H20   S    
C4    H41   S    
C65   O17   A    
C61   C62   A    
C45   C51   A    
C84   H4    S    
C88   O52   A    
C15   H64   S    
C52   O28   S    
C49   C57   S    
C56   C57   A    
C36   C47   S    
C67   C72   A    
C68   C112  S    
C23   C26   S    
C41   O18   A    
C17   O15   A    
Cr2   O45   S    
Cr5   O53   S    
C93   O6    A    
C41   C74   S    
C108  O31   D    
C8    O42   S    
C4    H40   S    
C6    H44   S    
C101  O25   S    
C31   C100  S    
C6    O40   D    
C40   O25   S    
C23   C24   S    
Cr2   O14   S    
C70   C71   A    
C59   C94   S    
C82   H2    S    
C89   C91   S    
C2    C69   S    
C3    O37   S    
C14   H61   S    
Cr5   O11   S    
C92   O3    A    
C58   C80   S    
C48   O29   S    
Cr4   O6    S    
Cr5   O54   S    
C78   C86   S    
C11   O46   S    
C40   C42   S    
C60   C66   A    
C11   H54   S    
C95   O5    A    
C105  O28   S    
Cr2   O12   S    
C21   C22   S    
C91   O37   S    
C47   C89   S    
C109  H29   S    
C85   O44   S    
C47   C80   S    
C70   C73   A    
Cr6   O11   S    
C32   H12   S    
C65   O34   A    
C52   C54   A    
C1    C34   S    
C39   C42   S    
C54   C59   A    
C98   O21   D    
C46   C48   A    
C11   H55   S    
C74   C75   A    
C67   C68   A    
C33   C43   T    
C35   C38   S    
C34   C44   T    
C84   C85   A    
C97   H7    S    
C19   C88   S    
C8    H47   S    
C33   C92   S    
C88   O53   A    
C79   C81   A    
Cr4   O11   S    
C78   C79   A    
C7    C75   S    
C112  H36   S    
C10   H53   S    
C82   C86   A    
C46   C104  S    
C100  O24   D    
Cr5   O8    S    
C5    O39   D    
C5    C64   S    
Cr3   O15   S    
C60   C61   A    
C5    H43   S    
Cr1   O17   S    
C37   C43   S    
C75   C76   A    
C101  H14   S    
C38   C103  S    
Cr5   O7    S    
C8    H49   S    
C107  O30   S    
Cr6   O3    S    
C106  H22   S    
C31   C32   S    
C98   H8    S    
C53   O23   A    
C24   C27   S    
Cr3   O16   S    
C42   H23   S    
C3    H37   S    
C50   C51   A    
Cr2   O13   S    
C13   C21   S    
C111  O35   D    
C32   C37   S    
C107  H24   S    
C19   C28   T    
C111  H35   S    
C103  O26   D    
C10   O44   S    
C14   H60   S    
C8    H48   S    
C26   C98   S    
C105  H18   S    
C99   H9    S    
Cr4   O5    S    
C101  H13   S    
C48   C49   A    
C9    C76   S    
C60   C65   S    
C110  H33   S    
C4    O38   S    
C80   H3    S    
C90   O54   A    
C29   O16   A    
C31   C35   S    
C109  H30   S    
C36   O48   S    
C35   H34   S    
C74   C81   A    
C107  H25   S    
C61   C111  S    
Cr6   O10   S    
C14   O48   S    
Cr3   O45   S    
C108  H27   S    
C90   O2    A    
C47   C102  S    
Cr1   O4    S    
Cr4   O52   S    
C87   C95   S    
C18   C22   S    
C53   O12   A    
C11   H57   S    
C16   O50   S    
C9    H50   S    
C93   O7    A    
C18   C27   S    
C70   O38   S    
C104  O27   D    
C110  H32   S    
C13   O49   S    
C16   H66   S    
C58   C69   S    
C90   C96   S    
C39   C44   S    
C83   O42   S    
Cr3   O23   S    
C10   H52   S    
Cr1   O1    S    
C7    H46   S    
C15   O49   S    
C36   C58   S    
C12   H58   S    
C55   C108  S    
C9    O43   D    
C94   O9    A    
C17   C25   S    
Cr1   O18   S    
C54   H56   S    
C80   C91   S    
C21   C23   S    
C68   C73   A    
C12   C58   S    
C71   C72   A    
C109  O32   S    
C16   H68   S    
C38   C40   S    
Cr6   O2    S    
C106  H21   S    
C4    H42   S    
C79   H5    S    
C51   O33   S    
C95   O10   A    
C45   C53   S    
C15   H63   S    
C50   O32   S    
C3    H38   S    
C31   C39   S    
C2    C25   T    
C29   O1    A    
C97   O20   D    
C103  H15   S    
C17   O14   A    
C24   C30   S    
C14   H59   S    
C52   C57   A    
C105  H17   S    
C105  H19   S    
C63   C64   A    
C1    O4    A    
C45   C46   A    
C6    C66   S    
C106  O29   S    
C63   C72   S    
C13   C24   S    
C20   C29   S    
C18   H6    S    
C49   C50   A    
C22   C26   S    
C89   C97   S    
C110  O33   S    
C3    H39   S    
C32   C42   S    
C81   O46   S    
C23   H1    S    
C22   C28   S    
C82   C83   A    
C107  H26   S    
C69   C91   S    
Cr6   O9    S    
C67   H67   S    
C27   O50   S    
C64   C66   A    
C62   H69   S    
C99   O22   D    
C101  H11   S    
