data_mof_unit_25191.cif
_audit_creation_date              2012-12-11T17:01:18-0500
_audit_creation_method            fapswitch 2.2
_symmetry_space_group_name_H-M    P1
_symmetry_Int_Tables_number       1
_space_group_crystal_system       triclinic
_cell_length_a                    19.396414
_cell_length_b                    7.090364
_cell_length_c                    17.595074
_cell_angle_alpha                 89.999979
_cell_angle_beta                  108.539896
_cell_angle_gamma                 90.0
_cell_volume                      2294.22684459

loop_
_atom_site_label
_atom_site_type_symbol
_atom_type_description
_atom_site_fract_x
_atom_site_fract_y
_atom_site_fract_z
_atom_type_partial_charge
O1    O     O_R   0.413720 0.494330 0.415730 -0.535259
O2    O     O_R   0.586280 0.994330 0.584270 -0.535259
O3    O     O_R   0.560210 0.819300 0.430070 -0.538773
O4    O     O_R   0.439790 0.319300 0.569930 -0.538774
C1    C     C_R   0.581538 0.655278 0.414496 0.717155
C2    C     C_R   0.418462 0.155278 0.585504 0.717156
O5    O     O_R   0.412670 0.823730 0.406310 -0.545193
O6    O     O_R   0.587330 0.323730 0.593690 -0.545193
O7    O     O_R   0.437690 0.998790 0.560340 -0.541609
O8    O     O_R   0.562310 0.498790 0.439660 -0.541609
C3    C     C_R   0.385549 0.654972 0.383062 0.697790
C4    C     C_R   0.614451 0.154972 0.616938 0.697790
O9    O     O_3   0.508380 0.662350 0.550560 -0.375644
O10   O     O_3   0.491620 0.162350 0.449440 -0.375644
V1    V     V_3+5 0.498450 0.935370 0.490620 1.415883
V2    V     V_3+5 0.501550 0.435370 0.509380 1.415883
C5    C     C_R   0.718169 0.972231 0.710405 0.100777
C6    C     C_R   0.281831 0.472231 0.289595 0.100777
C7    C     C_R   0.680853 0.143244 0.688087 -0.098590
C8    C     C_R   0.319147 0.643244 0.311913 -0.098590
C9    C     C_R   0.707481 0.300587 0.737935 -0.185790
C10   C     C_R   0.292519 0.800587 0.262065 -0.185790
H1    H     H_    0.678853 0.433906 0.726084 0.131602
H2    H     H_    0.321147 0.933906 0.273915 0.131602
C11   C     C_R   0.773022 0.289282 0.802402 -0.178772
C12   C     C_R   0.226978 0.789282 0.197598 -0.178772
H3    H     H_    0.792421 0.414474 0.838004 0.130933
H4    H     H_    0.207579 0.914474 0.161996 0.130933
C13   C     C_R   0.813924 0.120428 0.818824 -0.100413
C14   C     C_R   0.186076 0.620428 0.181176 -0.100413
C15   C     C_R   0.782759 0.960978 0.773990 0.093726
C16   C     C_R   0.217241 0.460978 0.226010 0.093726
C17   C     C_3   0.815004 0.823509 0.730560 -0.396042
C18   C     C_3   0.184996 0.323509 0.269440 -0.396041
C19   C     C_3   0.744411 0.835765 0.661092 -0.383147
C20   C     C_3   0.255589 0.335765 0.338908 -0.383147
H5    H     H_    0.862612 0.882135 0.716241 0.184852
H6    H     H_    0.137388 0.382135 0.283759 0.184852
H7    H     H_    0.712744 0.702304 0.650484 0.170035
H8    H     H_    0.287256 0.202304 0.349516 0.170035
H9    H     H_    0.751035 0.901528 0.606438 0.200283
H10   H     H_    0.248965 0.401528 0.393562 0.200282
C21   C     C_R   0.322499 0.991825 0.628872 -0.167919
C22   C     C_R   0.677501 0.491825 0.371128 -0.167919
C23   C     C_R   0.369084 0.147056 0.634798 -0.099644
C24   C     C_R   0.630916 0.647056 0.365202 -0.099644
C25   C     C_R   0.367194 0.296486 0.686582 -0.168102
C26   C     C_R   0.632806 0.796486 0.313418 -0.168102
C27   C     C_R   0.319939 0.291376 0.732527 0.144908
C28   C     C_R   0.680061 0.791376 0.267473 0.144908
C29   C     C_R   0.273054 0.135503 0.726126 0.020731
C30   C     C_R   0.726946 0.635503 0.273873 0.020731
C31   C     C_R   0.273691 0.984884 0.673476 0.029767
C32   C     C_R   0.726309 0.484884 0.326524 0.029766
C33   C     C_R   0.318154 0.441143 0.784069 -0.153887
C34   C     C_R   0.681846 0.941143 0.215931 -0.153886
C35   C     C_R   0.270095 0.437720 0.828759 -0.193553
C36   C     C_R   0.729905 0.937720 0.171241 -0.193553
C37   C     C_R   0.223410 0.283649 0.823311 0.113321
C38   C     C_R   0.776589 0.783650 0.176689 0.113320
C39   C     C_R   0.225006 0.131565 0.772003 0.059858
C40   C     C_R   0.774994 0.631565 0.227997 0.059858
C41   C     C_R   0.178467 0.975940 0.766434 0.034553
C42   C     C_R   0.821533 0.475940 0.233566 0.034553
C43   C     C_R   0.178724 0.828255 0.713552 -0.195233
C44   C     C_R   0.821276 0.328255 0.286448 -0.195233
C45   C     C_R   0.224940 0.832689 0.666485 0.264774
C46   C     C_R   0.775060 0.332689 0.333515 0.264774
C47   C     C_R   0.175396 0.278845 0.868536 -0.215037
C48   C     C_R   0.824604 0.778845 0.131464 -0.215037
C49   C     C_R   0.129832 0.122178 0.864557 -0.080540
C50   C     C_R   0.870168 0.622178 0.135443 -0.080540
C51   C     C_R   0.131846 0.971219 0.813274 -0.189134
C52   C     C_R   0.868154 0.471219 0.186726 -0.189134
H11   H     H_    0.324015 0.878339 0.588358 0.172139
H12   H     H_    0.675985 0.378339 0.411642 0.172139
H13   H     H_    0.402799 0.416894 0.691408 0.124511
H14   H     H_    0.597201 0.916894 0.308592 0.124510
H15   H     H_    0.353464 0.562175 0.789180 0.122635
H16   H     H_    0.646536 0.062176 0.210820 0.122635
H17   H     H_    0.269429 0.555855 0.867598 0.124240
H18   H     H_    0.730571 0.055855 0.132402 0.124240
H19   H     H_    0.096472 0.850586 0.809074 0.132091
H20   H     H_    0.903528 0.350586 0.190926 0.132091
H21   H     H_    0.142283 0.709476 0.708070 0.169195
H22   H     H_    0.857717 0.209475 0.291930 0.169195
O11   O     O_R   0.937800 0.775460 0.060470 -0.536416
O12   O     O_R   0.062200 0.275460 0.939530 -0.536416
O13   O     O_R   0.087350 0.441340 0.093710 -0.540075
O14   O     O_R   0.912650 0.941340 0.906290 -0.540075
C53   C     C_R   0.115143 0.610205 0.116010 0.691555
C54   C     C_R   0.884857 0.110205 0.883990 0.691556
O15   O     O_R   0.939820 0.446010 0.069950 -0.544874
O16   O     O_R   0.060180 0.946010 0.930050 -0.544875
O17   O     O_R   0.913690 0.271230 0.915700 -0.538768
O18   O     O_R   0.086310 0.771230 0.084300 -0.538768
C55   C     C_R   0.918890 0.614386 0.085296 0.704099
C56   C     C_R   0.081110 0.114386 0.914704 0.704099
O19   O     O_3   0.991670 0.603050 0.949510 -0.372747
O20   O     O_3   0.008330 0.103050 0.050490 -0.372748
V3    V     V_3+5 0.001550 0.329940 0.009370 1.403230
V4    V     V_3+5 0.998450 0.829940 0.990630 1.403230
H23   H     H_    0.174578 0.395556 0.908059 0.123064
H24   H     H_    0.825422 0.895557 0.091941 0.123064
Br1   Br    Br    0.216595 0.629853 0.591565 -0.576989
Br2   Br    Br    0.783404 0.129853 0.408435 -0.576989
H25   H     H_    0.823990 0.682917 0.759937 0.174446
H26   H     H_    0.176010 0.182917 0.240063 0.174446

loop_
_geom_bond_atom_site_label_1
_geom_bond_atom_site_label_2
_ccdc_geom_bond_type
C44   C46   A    
C41   C43   A    
C2    C23   S    
O18   V4    S    
C20   H10   S    
O1    C3    A    
O2    C4    A    
C2    O7    A    
O12   V3    S    
C25   C27   A    
O5    C3    A    
C7    C9    A    
C36   H18   S    
C48   H24   S    
C35   C37   A    
C32   C46   A    
O16   C56   A    
C36   C38   A    
C38   C40   A    
C26   H14   S    
C47   C49   A    
O14   V4    S    
C40   C42   A    
C17   C19   S    
C53   O18   A    
C21   C31   A    
C22   C24   A    
C27   C29   A    
C17   H25   S    
C28   C30   A    
C15   C17   S    
O13   C53   A    
C18   C20   S    
O5    V1    S    
O6    V2    S    
C11   C13   A    
C46   Br2   S    
C19   H9    S    
C30   C32   A    
C50   C55   S    
C23   C25   A    
C21   H11   S    
C49   C56   S    
C24   C26   A    
C3    C8    S    
C37   C39   A    
C20   H8    S    
C50   C52   A    
O15   V3    S    
C49   C51   A    
C45   Br1   S    
C41   C51   A    
C43   C45   A    
C27   C33   A    
C54   O17   A    
C28   C34   A    
C29   C31   A    
C42   C44   A    
O4    V2    S    
C19   H7    S    
O11   V4    S    
C33   H15   S    
O14   C54   A    
C38   C48   A    
O6    C4    A    
O20   V4    S    
O1    V2    S    
O2    V1    S    
C21   C23   A    
C37   C47   A    
O4    C2    A    
O19   V3    S    
C8    C10   A    
C12   C14   A    
C33   C35   A    
C5    C15   A    
C10   H2    S    
C6    C16   A    
C25   H13   S    
O15   C55   A    
O3    V1    S    
C9    C11   A    
O13   V3    S    
C18   H6    S    
C47   H23   S    
C39   C41   A    
C52   H20   S    
C14   C53   S    
O3    C1    A    
C44   H22   S    
C48   C50   A    
C43   H21   S    
C11   H3    S    
C1    C24   S    
C12   H4    S    
C34   H16   S    
C18   H26   S    
C9    H1    S    
O7    V1    S    
C1    O8    A    
C13   C15   A    
C30   C40   A    
C14   C16   A    
C29   C39   A    
C4    C7    S    
C26   C28   A    
O20   V3    S    
C5    C7    A    
C34   C36   A    
C6    C8    A    
C31   C45   A    
C35   H17   S    
C17   H5    S    
C22   C32   A    
O19   V4    S    
O16   V4    S    
C10   C12   A    
O9    V2    S    
C42   C52   A    
O10   V1    S    
O8    V2    S    
C5    C19   S    
C22   H12   S    
C6    C20   S    
C51   H19   S    
C13   C54   S    
O12   C56   A    
O17   V3    S    
C16   C18   S    
O11   C55   A    
