data_mof_unit_31475.cif
_audit_creation_date              2012-12-10T19:45:48-0500
_audit_creation_method            fapswitch 2.2
_symmetry_space_group_name_H-M    P1
_symmetry_Int_Tables_number       1
_space_group_crystal_system       triclinic
_cell_length_a                    10.799146
_cell_length_b                    14.637894
_cell_length_c                    14.717402
_cell_angle_alpha                 65.120504
_cell_angle_beta                  103.688167
_cell_angle_gamma                 102.856966
_cell_volume                      2030.5732958

loop_
_atom_site_label
_atom_site_type_symbol
_atom_type_description
_atom_site_fract_x
_atom_site_fract_y
_atom_site_fract_z
_atom_type_partial_charge
C1    C     C_R   0.473874 0.119888 0.312145 0.859355
C2    C     C_R   0.523197 0.879817 0.688450 0.840661
C3    C     C_R   0.870392 0.003747 0.492972 -0.068961
C4    C     C_R   0.129063 0.999953 0.502318 -0.070285
C5    C     C_R   0.906142 0.967733 0.428829 0.013294
C6    C     C_R   0.093216 0.038955 0.563700 -0.001767
C7    C     C_R   0.438517 0.188059 0.205633 -0.269127
C8    C     C_R   0.533904 0.811906 0.797662 -0.267475
C9    C     C_R   0.300763 0.225118 0.041767 -0.295377
C10   C     C_R   0.588879 0.785276 0.976458 -0.293218
C11   C     C_R   0.340358 0.155081 0.139197 0.418523
C12   C     C_R   0.584817 0.850704 0.874275 0.419237
C13   C     C_R   0.491979 0.291377 0.174702 0.392758
C14   C     C_R   0.493725 0.706176 0.826108 0.361438
C15   C     C_R   0.433782 0.364234 0.084773 -0.021923
C16   C     C_R   0.485278 0.642514 0.928713 -0.029413
C17   C     C_R   0.343944 0.328979 0.015194 0.024990
C18   C     C_R   0.542273 0.681809 0.004078 0.030162
C19   C     C_R   0.464885 0.470731 0.060143 0.065270
C20   C     C_R   0.430774 0.538518 0.958788 0.076602
C21   C     C_R   0.339548 0.501124 0.891965 -0.152298
C22   C     C_R   0.521493 0.512139 0.133938 -0.120837
C23   C     C_R   0.262696 0.999384 0.501833 0.776178
C24   C     C_R   0.737067 0.001516 0.496851 0.774604
C25   C     C_R   0.295719 0.397974 0.920386 -0.204313
C26   C     C_R   0.555401 0.616542 0.106356 -0.206519
C27   C     C_R   0.752222 0.304424 0.631218 0.406707
C28   C     C_R   0.276138 0.713737 0.334837 0.412149
C29   C     C_R   0.699874 0.212939 0.619672 0.005488
C30   C     C_R   0.312588 0.795069 0.366176 -0.004819
C31   C     C_R   0.512847 0.282461 0.515448 0.091424
C32   C     C_R   0.488559 0.718410 0.482651 0.099947
C33   C     C_R   0.561906 0.379605 0.519255 -0.074605
C34   C     C_R   0.463977 0.636904 0.449292 -0.076239
C35   C     C_R   0.682643 0.388096 0.581023 -0.027345
C36   C     C_R   0.353292 0.634903 0.375646 -0.041035
C37   C     C_R   0.495713 0.467400 0.465353 -0.059918
C38   C     C_R   0.542768 0.556835 0.487958 -0.055397
C39   C     C_R   0.669746 0.566013 0.542717 0.453923
C40   C     C_R   0.388950 0.471328 0.385854 0.452934
C41   C     C_R   0.736587 0.481155 0.588171 -0.262717
C42   C     C_R   0.321583 0.555481 0.341889 -0.245686
C43   C     C_R   0.345794 0.043314 0.790145 -0.068227
C44   C     C_R   0.631250 0.969241 0.212659 -0.087300
C45   C     C_R   0.257963 0.008013 0.721464 -0.125934
C46   C     C_R   0.724042 0.001243 0.281329 -0.121004
C47   C     C_R   0.186976 0.075695 0.636594 0.132706
C48   C     C_R   0.812224 0.936713 0.351426 0.108860
C49   C     C_R   0.204679 0.178745 0.621637 -0.174678
C50   C     C_R   0.810660 0.842297 0.347205 -0.090384
C51   C     C_R   0.293548 0.213899 0.689927 -0.170625
C52   C     C_R   0.717616 0.810424 0.278591 -0.129444
C53   C     C_R   0.364076 0.146224 0.774135 -0.095535
C54   C     C_R   0.627031 0.873371 0.212165 -0.126374
C55   C     C_R   0.963814 0.040265 0.558195 -0.256958
C56   C     C_R   0.035804 0.964256 0.436341 -0.265192
Cu1   Cu    Cu3+1 0.466270 0.918260 0.475690 0.974728
Cu2   Cu    Cu3+1 0.533730 0.081740 0.524310 0.977374
H1    H     H_    0.231231 0.198597 0.988557 0.166147
H2    H     H_    0.630645 0.815658 0.034290 0.157934
H3    H     H_    0.563450 0.721843 0.544242 0.195076
H4    H     H_    0.417874 0.265899 0.477975 0.191902
H5    H     H_    0.244962 0.928190 0.734429 0.102142
H6    H     H_    0.725656 0.075416 0.281316 0.093358
H7    H     H_    0.150346 0.231772 0.556809 0.115377
H8    H     H_    0.879641 0.792363 0.398603 0.149177
H9    H     H_    0.307608 0.293557 0.677604 0.129288
H10   H     H_    0.715221 0.736535 0.277657 0.125464
H11   H     H_    0.935734 0.067270 0.607645 0.143617
H12   H     H_    0.064584 0.936814 0.387629 0.135900
H13   H     H_    0.224652 0.372043 0.867472 0.146916
H14   H     H_    0.596890 0.645756 0.165107 0.138949
N1    N     N_R   0.584450 0.204570 0.560790 -0.218196
N2    N     N_R   0.415550 0.795430 0.439210 -0.224196
O1    O     O_R   0.455540 0.022090 0.338120 -0.549268
O2    O     O_R   0.544460 0.977910 0.661880 -0.538248
O3    O     O_R   0.512510 0.160150 0.379180 -0.529055
O4    O     O_R   0.487490 0.839850 0.620820 -0.537847
O5    O     O_R   0.291160 0.930970 0.479480 -0.592896
O6    O     O_R   0.708840 0.069030 0.520520 -0.597805
O7    O     O_R   0.348130 0.069020 0.520540 -0.588078
O8    O     O_R   0.651870 0.930980 0.479460 -0.570960
H15   H     H_    0.432474 0.173431 0.827186 0.133653
H16   H     H_    0.553800 0.848059 0.160148 0.136636
H17   H     H_    0.295966 0.551393 0.818947 0.191219
H18   H     H_    0.534460 0.465585 0.214032 0.238070
H19   H     H_    0.834224 0.488202 0.627235 0.192504
H20   H     H_    0.243953 0.559461 0.279108 0.198980
H21   H     H_    0.258712 0.858487 0.332256 0.163961
H22   H     H_    0.752703 0.148688 0.655994 0.136835
O9    O     O_3   0.867863 0.311067 0.695132 -0.590181
C57   C     C_3   0.969106 0.308884 0.650868 -0.374808
H23   H     H_    0.967561 0.367283 0.571952 0.161199
H24   H     H_    0.966617 0.232058 0.652151 0.161618
H25   H     H_    0.061870 0.326553 0.696308 0.193419
O10   O     O_3   0.171214 0.714705 0.259238 -0.578238
C58   C     C_3   0.057327 0.698722 0.298311 -0.359024
H26   H     H_    0.048340 0.765113 0.313332 0.143533
H27   H     H_    0.051704 0.627900 0.368244 0.160091
H28   H     H_    0.973711 0.689682 0.240697 0.196899
O11   O     O_3   0.733258 0.662868 0.533386 -0.599846
C59   C     C_3   0.830198 0.664120 0.616458 -0.409931
H29   H     H_    0.922658 0.652061 0.605434 0.183722
H30   H     H_    0.803496 0.607761 0.690518 0.154481
H31   H     H_    0.845268 0.740634 0.618837 0.201056
O12   O     O_3   0.367802 0.403632 0.338232 -0.595631
C60   C     C_3   0.236003 0.364672 0.322145 -0.382348
H32   H     H_    0.187673 0.414250 0.247488 0.182649
H33   H     H_    0.184807 0.354072 0.384060 0.146666
H34   H     H_    0.228708 0.288847 0.319772 0.192576
H35   H     H_    0.399317 0.990827 0.856006 0.161677
H36   H     H_    0.561958 0.018471 0.160425 0.149336
O13   O     O_3   0.472183 0.664005 0.754422 -0.571304
C61   C     C_3   0.584963 0.626447 0.761103 -0.312743
H37   H     H_    0.615460 0.570148 0.838510 0.156860
H38   H     H_    0.664607 0.689971 0.737825 0.155667
H39   H     H_    0.564910 0.586270 0.708871 0.181991
O14   O     O_3   0.603184 0.319160 0.232329 -0.563640
C62   C     C_3   0.709393 0.327580 0.187663 -0.337898
H40   H     H_    0.707851 0.391900 0.112245 0.165522
H41   H     H_    0.713313 0.255634 0.180420 0.142551
H42   H     H_    0.798911 0.343326 0.237348 0.189298
O15   O     O_3   0.629932 0.952903 0.850173 -0.564571
C63   C     C_3   0.765145 0.966831 0.859224 -0.297209
H43   H     H_    0.801450 0.048624 0.841052 0.192043
H44   H     H_    0.794794 0.944881 0.804496 0.143841
H45   H     H_    0.811091 0.924023 0.938046 0.157891
O16   O     O_3   0.285398 0.054128 0.168486 -0.558312
C64   C     C_3   0.157214 0.046420 0.180925 -0.303273
H46   H     H_    0.153167 0.077186 0.237528 0.141379
H47   H     H_    0.115113 0.965132 0.209356 0.175995
H48   H     H_    0.096057 0.085147 0.107642 0.162057

loop_
_geom_bond_atom_site_label_1
_geom_bond_atom_site_label_2
_ccdc_geom_bond_type
O11   C59   S    
C27   C29   A    
C1    O3    A    
Cu1   O5    S    
C5    C56   A    
C36   C42   A    
C19   C20   A    
C18   C26   A    
C6    C55   A    
O16   C64   S    
C54   H16   S    
C61   H37   S    
Cu2   O2    S    
O15   C63   S    
C39   C41   A    
C15   C19   A    
C49   H7    S    
C40   O12   S    
C16   C20   A    
C32   H3    S    
O13   C61   S    
C37   C40   A    
C32   N2    A    
C38   C39   A    
C30   N2    A    
C31   N1    A    
C29   N1    A    
O12   C60   S    
C58   H26   S    
C26   H14   S    
C59   H31   S    
C45   C47   A    
C24   O8    A    
O14   C62   S    
Cu2   O3    S    
C24   O6    A    
C3    C55   A    
C43   C53   A    
C52   C54   A    
C49   C51   A    
C50   C52   A    
C60   H32   S    
C31   C33   A    
C27   O9    S    
C25   H13   S    
C52   H10   S    
Cu2   O6    S    
C64   H48   S    
C40   C42   A    
C1    C7    S    
C4    C56   A    
C60   H33   S    
C31   H4    S    
C3    C24   S    
C43   H35   S    
C30   H21   S    
C29   H22   S    
C58   H27   S    
C44   C46   A    
C39   O11   S    
C21   H17   S    
C62   H41   S    
C41   H19   S    
C5    C48   S    
C46   C48   A    
C6    C47   S    
C1    O1    A    
C13   O14   S    
C19   C22   A    
C4    C6    A    
Cu2   O7    S    
O9    C57   S    
C4    C23   S    
C27   C35   A    
C45   H5    S    
C57   H25   S    
C33   C37   A    
C46   H6    S    
C51   C53   A    
C32   C34   A    
Cu1   N2    S    
C10   H2    S    
C37   C38   A    
C2    O4    A    
C43   C45   A    
C7    C11   A    
C8    C12   A    
O10   C58   S    
C57   H24   S    
C51   H9    S    
C59   H30   S    
C9    C11   A    
C55   H11   S    
C10   C12   A    
C63   H45   S    
C44   H36   S    
C9    C17   A    
C56   H12   S    
C13   C15   A    
C60   H34   S    
C14   C16   A    
C42   H20   S    
C58   H28   S    
C2    O2    A    
C63   H44   S    
C64   H46   S    
C62   H42   S    
C15   C17   A    
C21   C25   A    
C8    C14   A    
C23   O7    A    
C34   C38   A    
Cu1   O4    S    
C2    C8    S    
C3    C5    A    
C61   H38   S    
C62   H40   S    
C50   H8    S    
C47   C49   A    
C14   O13   S    
C53   H15   S    
C28   O10   S    
C17   C25   A    
Cu1   O1    S    
C28   C30   A    
C11   O16   S    
Cu1   Cu2   S    
C12   O15   S    
C10   C18   A    
C48   C50   A    
C57   H23   S    
C33   C35   A    
C34   C36   A    
C22   H18   S    
C59   H29   S    
C35   C41   A    
C61   H39   S    
C44   C54   A    
C7    C13   A    
C20   C21   A    
C28   C36   A    
C16   C18   A    
C22   C26   A    
Cu1   O8    S    
C23   O5    A    
C9    H1    S    
Cu2   N1    S    
C63   H43   S    
C64   H47   S    
