data_mof_unit_17467.cif
_audit_creation_date              2012-12-10T16:44:15-0500
_audit_creation_method            fapswitch 2.2
_symmetry_space_group_name_H-M    P1
_symmetry_Int_Tables_number       1
_space_group_crystal_system       triclinic
_cell_length_a                    7.428667
_cell_length_b                    8.715833
_cell_length_c                    13.382168
_cell_angle_alpha                 94.047073
_cell_angle_beta                  77.31877
_cell_angle_gamma                 103.103306
_cell_volume                      823.112534813

loop_
_atom_site_label
_atom_site_type_symbol
_atom_type_description
_atom_site_fract_x
_atom_site_fract_y
_atom_site_fract_z
_atom_type_partial_charge
C1    C     C_R   0.545311 0.799877 0.503154 0.802191
C2    C     C_R   0.417714 0.510038 0.975526 0.063345
C3    C     C_R   0.464033 0.560388 0.872593 -0.018418
C4    C     C_R   0.559413 0.546998 0.035358 -0.004395
C5    C     C_R   0.738023 0.644960 0.995062 -0.071526
C6    C     C_R   0.770893 0.709631 0.898649 -0.237064
C7    C     C_R   0.634723 0.671928 0.839244 0.571650
C8    C     C_R   0.528811 0.489867 0.134482 -0.209350
C9    C     C_R   0.840592 0.629565 0.153750 -0.276885
C10   C     C_R   0.336490 0.499059 0.806909 -0.077092
C11   C     C_2   0.572476 0.967147 0.504971 0.449677
C12   C     C_R   0.399506 0.499281 0.694504 0.848830
C13   C     C_2   0.431132 0.032317 0.495802 -0.490288
C14   C     C_R   0.455063 0.199889 0.497107 0.912476
C15   C     C_R   0.601802 0.510997 0.305733 0.806416
C16   C     C_R   0.878719 0.682344 0.053739 0.642576
C17   C     C_R   0.663156 0.537445 0.195356 -0.139874
C18   C     C_R   0.152801 0.417034 0.848755 -0.170111
C19   C     C_R   0.099351 0.385053 0.952403 -0.106264
C20   C     C_R   0.230440 0.427011 0.014881 -0.092351
Cu1   Cu    Cu3+1 0.321300 0.483160 0.488710 0.989841
Cu2   Cu    Cu3+1 0.678700 0.516840 0.511290 1.047293
H1    H     H_    0.946109 0.667055 0.200027 0.181809
H2    H     H_    0.294591 0.961240 0.487090 0.165871
H3    H     H_    0.398934 0.410736 0.167874 0.158304
H4    H     H_    0.051773 0.372557 0.800620 0.168837
H5    H     H_    0.178713 0.396079 0.094134 0.120333
H6    H     H_    0.956775 0.322363 0.984029 0.146218
N1    N     N_2   0.947230 0.542220 0.528320 -0.198918
N2    N     N_2   0.052770 0.457780 0.471680 -0.198707
O1    O     O_R   0.383920 0.714220 0.492660 -0.634821
O2    O     O_R   0.685730 0.742660 0.511730 -0.507463
O3    O     O_R   0.275440 0.478800 0.636790 -0.598655
O4    O     O_R   0.577250 0.507240 0.655860 -0.533510
O5    O     O_R   0.314270 0.257340 0.488270 -0.567099
O6    O     O_R   0.616080 0.285780 0.507340 -0.520350
O7    O     O_R   0.422750 0.492760 0.344140 -0.586000
O8    O     O_R   0.724560 0.521200 0.363210 -0.604548
H7    H     H_    0.010886 0.617598 0.579350 0.243855
H8    H     H_    0.989059 0.382374 0.420687 0.245559
H9    H     H_    0.901561 0.792730 0.869408 0.223291
F1    F     F_    0.050575 0.774960 0.015798 -0.669270
F2    F     F_    0.665209 0.755882 0.753147 -0.650404
F3    F     F_    0.744818 0.053704 0.516075 -0.625011

loop_
_geom_bond_atom_site_label_1
_geom_bond_atom_site_label_2
_ccdc_geom_bond_type
C2    C4    A    
C15   O8    A    
C6    C7    A    
Cu1   O5    S    
C20   H5    S    
C7    F2    S    
Cu1   O1    S    
Cu1   N2    S    
Cu2   O2    S    
C19   C20   A    
C18   H4    S    
C4    C8    A    
N1    H7    S    
C2    C3    A    
N2    H8    S    
C11   F3    S    
C3    C10   A    
Cu1   Cu2   S    
C8    H3    S    
C11   C13   D    
N1    N2    D    
C10   C12   S    
Cu2   O6    S    
C10   C18   A    
C9    C17   A    
Cu2   N1    S    
C9    C16   A    
C3    C7    A    
C14   O6    A    
C5    C6    A    
Cu2   O4    S    
Cu1   O3    S    
C12   O4    A    
C19   H6    S    
Cu2   O8    S    
C16   F1    S    
C1    O1    A    
Cu1   O7    S    
C18   C19   A    
C14   O5    A    
C15   C17   S    
C15   O7    A    
C5    C16   A    
C12   O3    A    
C13   C14   S    
C2    C20   A    
C1    O2    A    
C9    H1    S    
C8    C17   A    
C13   H2    S    
C4    C5    A    
C6    H9    S    
C1    C11   S    
