data_mof_unit_51712.cif
_audit_creation_date              2012-10-26T20:02:58-0400
_audit_creation_method            fapswitch 2.2
_symmetry_space_group_name_H-M    P1
_symmetry_Int_Tables_number       1
_space_group_crystal_system       triclinic
_cell_length_a                    10.844861
_cell_length_b                    12.381314
_cell_length_c                    13.33998
_cell_angle_alpha                 116.842121
_cell_angle_beta                  76.394385
_cell_angle_gamma                 101.56962
_cell_volume                      1544.14426709

loop_
_atom_site_label
_atom_site_type_symbol
_atom_type_description
_atom_site_fract_x
_atom_site_fract_y
_atom_site_fract_z
_atom_type_partial_charge
C1    C     C_R   0.518496 0.854775 0.286924 0.532125
C2    C     C_R   0.567477 0.557235 0.030125 0.045339
C3    C     C_R   0.499853 0.648550 0.124623 0.013437
C4    C     C_R   0.740680 0.994005 0.490659 0.600811
C5    C     C_R   0.507086 0.435075 0.984665 0.042265
C6    C     C_R   0.394576 0.404044 0.051065 0.009308
C7    C     C_R   0.333244 0.494451 0.147151 -0.097673
C8    C     C_R   0.380300 0.615481 0.178058 -0.087364
C9    C     C_R   0.544628 0.345920 0.872139 0.228890
C10   C     C_R   0.379359 0.196254 0.909516 -0.133575
C11   C     C_R   0.555568 0.771054 0.167231 0.016584
C12   C     C_3   0.121664 0.998079 0.501549 -0.055817
C13   C     C_R   0.689337 0.344508 0.319675 -0.091452
C14   C     C_R   0.328342 0.763013 0.648714 0.045132
C15   C     C_R   0.289076 0.668307 0.683371 -0.009705
C16   C     C_R   0.487349 0.145124 0.712734 0.626242
C17   C     C_R   0.352358 0.562705 0.627160 -0.082365
C18   C     C_R   0.453269 0.550994 0.535920 -0.015825
C19   C     C_R   0.487680 0.650636 0.504146 0.177896
C20   C     C_R   0.522288 0.445192 0.474555 -0.005495
C21   C     C_R   0.617798 0.441867 0.380966 0.005341
C22   C     C_R   0.644680 0.537115 0.349041 -0.165914
C23   C     C_3   0.046229 0.064685 0.625660 0.174394
C24   C     C_R   0.584767 0.640975 0.412828 -0.079498
C25   C     C_R   0.502181 0.342221 0.500270 0.066740
C26   C     C_R   0.668690 0.247606 0.349287 0.165928
C27   C     C_R   0.260199 0.000246 0.501186 0.557366
C28   C     C_3   0.971698 0.047878 0.408224 -0.155434
C29   C     C_3   0.110323 0.066982 0.430908 -0.237385
C30   C     C_3   0.908743 0.076731 0.613660 0.137057
C31   C     C_3   0.912972 0.860782 0.453218 -0.112232
C32   C     C_3   0.879540 0.992613 0.488955 -0.026463
C33   C     C_2   0.084335 0.766429 0.470903 0.211281
C34   C     C_3   0.058956 0.862789 0.439272 -0.147353
C35   C     C_2   0.051381 0.001320 0.699314 0.316830
C36   C     C_2   0.963361 0.974368 0.282270 0.297203
C37   C     C_2   0.749977 0.148247 0.281653 0.234591
C38   C     C_2   0.181622 0.681505 0.778503 0.248090
C39   C     C_2   0.869988 0.758334 0.346159 0.188425
C40   C     C_R   0.338052 0.283860 0.016614 -0.114886
C41   C     C_R   0.475074 0.228490 0.834169 0.058697
C42   C     C_R   0.670641 0.803310 0.108171 -0.084229
C43   C     C_R   0.742364 0.713425 0.023138 -0.072400
C44   C     C_R   0.695042 0.591510 0.990459 -0.045820
Cl1   Cl    Cl    0.783040 0.070232 0.727528 -0.469832
Cl2   Cl    Cl    0.663028 0.382364 0.770851 -0.569456
Cl3   Cl    Cl    0.122715 0.216457 0.697715 -0.606383
Cu1   Cu    Cu3+1 0.529690 0.098270 0.475420 1.008323
Cu2   Cu    Cu3+1 0.470310 0.901730 0.524580 1.003017
H1    H     H_    0.944497 0.139220 0.431125 0.129963
H2    H     H_    0.762805 0.344978 0.248748 0.166812
H3    H     H_    0.429273 0.336717 0.568889 0.155232
H4    H     H_    0.280381 0.844786 0.691976 0.100778
H5    H     H_    0.320959 0.490758 0.654976 0.174963
H6    H     H_    0.617505 0.713759 0.389655 0.224329
H7    H     H_    0.181313 0.038672 0.351134 0.194578
H8    H     H_    0.138003 0.166275 0.477083 0.177439
H9    H     H_    0.908145 0.171569 0.625406 0.199938
H10   H     H_    0.864484 0.834899 0.523942 0.168214
H11   H     H_    0.101107 0.833309 0.347202 0.188240
H12   H     H_    0.327301 0.106075 0.881595 0.134823
H13   H     H_    0.052100 0.770963 0.555539 0.163979
H14   H     H_    0.140392 0.011048 0.728034 0.111962
H15   H     H_    0.872668 0.952065 0.254524 0.149558
H16   H     H_    0.736208 0.071439 0.299559 0.136108
H17   H     H_    0.134101 0.763900 0.820616 0.116280
H18   H     H_    0.897486 0.668427 0.318803 0.145121
H19   H     H_    0.243877 0.472086 0.194383 0.165539
H20   H     H_    0.255676 0.259336 0.069471 0.151177
H21   H     H_    0.713213 0.896515 0.136874 0.137878
H22   H     H_    0.762069 0.525872 0.938847 0.205376
H23   H     H_    0.838377 0.738028 0.987610 0.170142
H24   H     H_    0.323275 0.683438 0.245744 0.188726
H25   H     H_    0.715609 0.532472 0.275295 0.138993
N1    N     N_R   0.574690 0.246280 0.438200 -0.262697
N2    N     N_R   0.426100 0.754320 0.561190 -0.238257
O1    O     O_R   0.537340 0.972510 0.318130 -0.539195
O2    O     O_2   0.960551 0.938086 0.726124 -0.476488
O3    O     O_2   0.056404 0.937239 0.209640 -0.491954
O4    O     O_2   0.834717 0.151397 0.203991 -0.521767
O5    O     O_2   0.144670 0.600943 0.810986 -0.440968
O6    O     O_2   0.807457 0.772619 0.289045 -0.563480
O7    O     O_R   0.487200 0.806530 0.359650 -0.518558
O8    O     O_R   0.707380 0.082980 0.479220 -0.533800
O9    O     O_R   0.657240 0.917000 0.520740 -0.468570
O10   O     O_R   0.512800 0.193470 0.640350 -0.434941
O11   O     O_R   0.462660 0.027490 0.681870 -0.507420
O12   O     O_R   0.342760 0.083000 0.479260 -0.495202
O13   O     O_R   0.292620 0.917020 0.520780 -0.514340
O14   O     O_2   0.138593 0.678968 0.399316 -0.533268

loop_
_geom_bond_atom_site_label_1
_geom_bond_atom_site_label_2
_ccdc_geom_bond_type
C34   H11   S    
C43   H23   S    
C12   C29   S    
C1    O1    A    
Cu2   O11   S    
C30   Cl1   S    
C1    C11   S    
C7    C8    A    
C24   H6    S    
C12   C23   S    
C11   C42   A    
C28   C29   S    
C5    C6    A    
C20   C25   A    
C42   H21   S    
C44   H22   S    
C10   C40   A    
C18   C19   A    
C31   H10   S    
C7    H19   S    
C13   H2    S    
C28   H1    S    
C38   H17   S    
C2    C44   A    
C33   H13   S    
C37   H16   S    
C16   O11   A    
Cu1   O12   S    
C27   O13   A    
C18   C20   A    
C9    Cl2   S    
C21   C22   A    
C10   C41   A    
C16   O10   A    
Cu1   N1    S    
C26   N1    A    
C37   O4    D    
Cu2   N2    S    
C23   Cl3   S    
C40   H20   S    
C12   C27   S    
C23   C30   S    
Cu2   O9    S    
C28   C32   S    
C33   C34   S    
C3    C8    A    
Cu1   O10   S    
C4    O9    A    
Cu1   O8    S    
C25   N1    A    
C14   N2    A    
Cu1   O1    S    
C43   C44   A    
C15   C38   S    
C5    C9    A    
C31   C32   S    
C4    O8    A    
C17   C18   A    
C31   C34   S    
C13   C21   A    
C4    C32   S    
Cu1   Cu2   S    
C29   H8    S    
C23   C35   S    
C38   O5    D    
C22   C24   A    
C13   C26   A    
C10   H12   S    
C42   C43   A    
C22   H25   S    
C12   C34   S    
C15   C17   A    
C19   N2    A    
C39   H18   S    
C39   O6    D    
Cu2   O13   S    
C36   O3    D    
C26   C37   S    
C6    C7    A    
C29   H7    S    
C1    O7    A    
C35   O2    D    
C9    C41   A    
Cu2   O7    S    
C2    C3    A    
C25   H3    S    
C33   O14   D    
C30   C32   S    
C30   H9    S    
C8    H24   S    
C31   C39   S    
C19   C24   A    
C6    C40   A    
C27   O12   A    
C3    C11   A    
C2    C5    A    
C14   H4    S    
C20   C21   A    
C28   C36   S    
C14   C15   A    
C35   H14   S    
C36   H15   S    
C17   H5    S    
C16   C41   S    
