data_mof_unit_9606.cif
_audit_creation_date              2013-03-05T16:15:05-0500
_audit_creation_method            fapswitch 2.2
_symmetry_space_group_name_H-M    P1
_symmetry_Int_Tables_number       1
_space_group_crystal_system       triclinic
_cell_length_a                    23.513175
_cell_length_b                    10.629374
_cell_length_c                    9.534139
_cell_angle_alpha                 88.964308
_cell_angle_beta                  89.782487
_cell_angle_gamma                 89.613368
_cell_volume                      2382.41089299

loop_
_atom_site_label
_atom_site_type_symbol
_atom_site_description
_atom_site_fract_x
_atom_site_fract_y
_atom_site_fract_z
_atom_type_partial_charge
O1    O     O_R   0.500030 0.316850 0.620870 -0.537410
O2    O     O_R   0.499970 0.683150 0.379130 -0.527013
O3    O     O_R   0.500000 0.316860 0.379090 -0.568390
O4    O     O_R   0.500000 0.683140 0.620910 -0.572359
C1    C     C_R   0.500385 0.259985 0.500631 0.863900
C2    C     C_R   0.500111 0.739925 0.499376 0.865184
O5    O     O_R   0.417890 0.499960 0.620920 -0.572148
O6    O     O_R   0.582110 0.500040 0.379080 -0.559485
O7    O     O_R   0.417870 0.499970 0.379140 -0.549460
O8    O     O_R   0.582130 0.500030 0.620860 -0.534895
C3    C     C_R   0.391191 0.498615 0.500213 0.835784
C4    C     C_R   0.608811 0.499908 0.499664 0.859565
Cu1   Cu    Cu3+1 0.500010 0.499990 0.643150 1.062707
Cu2   Cu    Cu3+1 0.499990 0.500010 0.356850 1.079412
C5    C     C_R   0.880088 0.610236 0.497074 0.656427
C6    C     C_R   0.119939 0.393702 0.432614 0.668935
N1    N     N_R   0.851909 0.501395 0.470523 -0.440833
N2    N     N_R   0.148129 0.500261 0.468471 -0.443217
C7    C     C_R   0.880237 0.392471 0.439533 0.668250
C8    C     C_R   0.119762 0.608816 0.500717 0.651839
C9    C     C_R   0.940209 0.390830 0.428888 -0.132736
C10   C     C_R   0.059817 0.615193 0.491972 -0.129552
C11   C     C_R   0.969937 0.502451 0.460309 -0.036634
C12   C     C_R   0.030084 0.503687 0.460155 -0.037138
C13   C     C_R   0.939610 0.612782 0.493424 -0.073534
C14   C     C_R   0.060419 0.392763 0.429551 -0.076570
C15   C     C_R   0.971593 0.281697 0.391700 0.333242
C16   C     C_R   0.028455 0.727142 0.517643 0.338075
C17   C     C_R   0.030974 0.283498 0.395166 -0.145483
C18   C     C_R   0.969066 0.723730 0.520836 -0.138377
O9    O     O_2   0.850421 0.715379 0.527958 -0.466429
O10   O     O_2   0.149617 0.288876 0.400515 -0.465039
O11   O     O_2   0.850132 0.286498 0.421694 -0.430916
O12   O     O_2   0.149736 0.708374 0.544323 -0.428954
H1    H     H_    0.054094 0.198851 0.367665 0.239013
H2    H     H_    0.945923 0.809879 0.541957 0.240578
C19   C     C_R   0.242103 0.555686 0.368627 0.324334
C20   C     C_R   0.758180 0.549442 0.364732 0.332618
C21   C     C_R   0.301301 0.556242 0.382138 -0.242674
C22   C     C_R   0.698910 0.550198 0.377021 -0.208863
H3    H     H_    0.326614 0.601146 0.300524 0.236825
H4    H     H_    0.673737 0.588510 0.291293 0.239630
C23   C     C_R   0.328422 0.498688 0.497714 -0.136289
C24   C     C_R   0.671563 0.501286 0.496907 -0.097400
C25   C     C_R   0.295168 0.438894 0.603256 0.123073
C26   C     C_R   0.704303 0.452770 0.609392 0.074720
C27   C     C_R   0.235604 0.439568 0.591653 0.185277
C28   C     C_R   0.764217 0.453734 0.599578 0.111309
C29   C     C_R   0.209134 0.497467 0.475112 0.189026
C30   C     C_R   0.790907 0.500843 0.477439 0.217518
C31   C     C_3   0.541211 0.039240 0.589777 -0.212729
C32   C     C_3   0.460303 0.960547 0.410359 -0.193486
C33   C     C_3   0.550704 0.958602 0.459272 0.346892
C34   C     C_3   0.450795 0.040771 0.540577 0.363273
H5    H     H_    0.575012 0.073015 0.660449 0.231824
H6    H     H_    0.425519 0.929026 0.341508 0.237171
C35   C     C_3   0.500189 0.876512 0.499580 -0.185586
C36   C     C_3   0.501146 0.123226 0.500419 -0.177937
C37   C     C_3   0.489429 0.955830 0.631451 -0.150952
C38   C     C_3   0.512041 0.043811 0.368579 -0.150942
H7    H     H_    0.479429 0.919331 0.738486 0.247951
H8    H     H_    0.522116 0.080046 0.261494 0.242136
C39   C     C_3   0.498050 0.612671 0.046426 0.276579
C40   C     C_3   0.502097 0.387108 0.953582 0.257762
C41   C     C_3   0.454921 0.552850 0.950446 0.289902
C42   C     C_3   0.545261 0.446948 0.050121 0.304797
N3    N     N_3   0.500040 0.499970 0.858290 -0.280280
N4    N     N_3   0.499960 0.500030 0.141710 -0.280219
C43   C     C_3   0.543174 0.559753 0.948492 0.026481
C44   C     C_3   0.456967 0.440386 0.051680 0.018614
N5    N     N_R   0.944573 0.169774 0.344110 0.175676
O13   O     O_R   0.915152 0.173936 0.228766 -0.237582
O14   O     O_R   0.959606 0.060786 0.396651 -0.280911
N6    N     N_R   0.055502 0.846505 0.534204 0.180134
O15   O     O_R   0.085707 0.893743 0.431687 -0.232456
O16   O     O_R   0.039966 0.919066 0.636119 -0.273952
N7    N     N_R   0.404678 0.618396 0.896799 0.151898
O17   O     O_R   0.410703 0.713158 0.810112 -0.295546
O18   O     O_R   0.356335 0.604048 0.961657 -0.303738
N8    N     N_R   0.595655 0.385415 0.108550 0.173930
O19   O     O_R   0.645978 0.429164 0.080354 -0.351638
O20   O     O_R   0.590721 0.282674 0.183488 -0.302133
N9    N     N_R   0.492321 0.740467 0.096944 0.165687
O21   O     O_R   0.443153 0.778915 0.142609 -0.308214
O22   O     O_R   0.532067 0.822225 0.071420 -0.315482
N10   N     N_R   0.503779 0.259142 0.901779 0.151899
O23   O     O_R   0.551224 0.195632 0.902911 -0.306185
O24   O     O_R   0.456780 0.203366 0.868737 -0.334459
N11   N     N_3   0.591536 0.626399 0.887817 -0.469020
H9    H     H_    0.615405 0.661133 0.970643 0.276631
H10   H     H_    0.575615 0.704451 0.832187 0.260669
N12   N     N_3   0.408606 0.373738 0.112333 -0.461764
H11   H     H_    0.383234 0.344420 0.029521 0.259850
H12   H     H_    0.424346 0.292364 0.162009 0.262385
N13   N     N_R   0.216323 0.613944 0.246567 0.163121
O25   O     O_R   0.168007 0.574305 0.198807 -0.312938
O26   O     O_R   0.243439 0.700279 0.175153 -0.241978
N14   N     N_R   0.784196 0.597901 0.237725 0.162784
O27   O     O_R   0.833817 0.557683 0.196750 -0.315433
O28   O     O_R   0.756216 0.675339 0.155732 -0.272117
N15   N     N_3   0.320399 0.374025 0.720851 -0.529340
H13   H     H_    0.351021 0.310843 0.684874 0.291915
H14   H     H_    0.340289 0.439570 0.783444 0.277075
N16   N     N_3   0.676684 0.400402 0.731301 -0.501998
H15   H     H_    0.688974 0.306175 0.743306 0.254296
H16   H     H_    0.689888 0.449654 0.819082 0.280439
N17   N     N_3   0.201081 0.382168 0.698997 -0.517547
H17   H     H_    0.210059 0.425100 0.794137 0.275061
H18   H     H_    0.212469 0.287117 0.707940 0.289948
N18   N     N_3   0.798905 0.407268 0.712885 -0.530867
H19   H     H_    0.788955 0.312948 0.732804 0.263212
H20   H     H_    0.789668 0.459018 0.802405 0.264842
N19   N     N_R   0.605835 0.909726 0.415064 0.140237
O29   O     O_R   0.609764 0.839606 0.305116 -0.291617
O30   O     O_R   0.651274 0.934458 0.486538 -0.301319
N20   N     N_R   0.394916 0.087440 0.580921 0.130159
O31   O     O_R   0.364424 0.150623 0.490141 -0.366999
O32   O     O_R   0.372815 0.054283 0.701117 -0.253307

loop_
_geom_bond_atom_site_label_1
_geom_bond_atom_site_label_2
_geom_bond_distance
_ccdc_geom_bond_type
C42   N4    1.489336 S    
C39   C41   1.518844 S    
N15   H13   1.042618 S    
C15   C17   1.397007 A    
C28   N18   1.434620 S    
N13   O25   1.301086 A    
C20   N14   1.442873 S    
C16   N6    1.434577 S    
N16   H16   1.044465 S    
C21   H3    1.083707 S    
N7    O17   1.299489 A    
O5    C3    1.313373 A    
N6    O16   1.301173 A    
C1    C36   1.453696 S    
O1    C1    1.305567 A    
C7    C9    1.413411 A    
C12   C14   1.408388 A    
Cu1   N3    2.051173 S    
N10   O24   1.300071 A    
C35   C37   1.545504 S    
C42   C43   1.528574 S    
C36   C38   1.546341 S    
C41   C44   1.523418 S    
N20   O31   1.300537 A    
C19   N13   1.442021 S    
C38   H8    1.109961 S    
C25   C27   1.405277 A    
O4    Cu1   1.954467 S    
N18   H19   1.044924 S    
C32   C38   1.555637 S    
C39   C43   1.522286 S    
C24   C26   1.410530 A    
C41   N3    1.488659 S    
C34   N20   1.454174 S    
C11   C12   1.414401 A    
C3    C23   1.476157 S    
C40   C44   1.524785 S    
N11   H10   1.044596 S    
C31   H5    1.109594 S    
C8    O12   1.348185 S    
C28   C30   1.406499 A    
C9    C15   1.420281 A    
N15   H14   1.040092 S    
C10   C16   1.420200 A    
Cu1   Cu2   2.729623 S    
N17   H18   1.045545 S    
C2    C35   1.451884 S    
O2    C2    1.305222 A    
C43   N11   1.456247 S    
C40   N10   1.455699 S    
N16   H15   1.044976 S    
C33   C38   1.536543 S    
C32   C34   1.533646 S    
C34   C37   1.535469 S    
N7    O18   1.300501 A    
C6    C14   1.400012 A    
C19   C21   1.398424 A    
C26   C28   1.411628 A    
C37   H7    1.110093 S    
C41   N7    1.457151 S    
N6    O15   1.301409 A    
C40   N3    1.492338 S    
N8    O20   1.299779 A    
C7    O11   1.348121 S    
N5    O14   1.301060 A    
C33   C35   1.522583 S    
N10   O23   1.300010 A    
C25   N15   1.433872 S    
C21   C23   1.403875 A    
C26   N16   1.434674 S    
C39   N9    1.454664 S    
N3    C43   1.485639 S    
C40   C42   1.522768 S    
O7    Cu2   1.941761 S    
C19   C29   1.411516 A    
C33   N19   1.456934 S    
N9    O21   1.299747 A    
O5    Cu1   1.943304 S    
O6    C4    1.311986 A    
N12   H12   1.044813 S    
C31   C36   1.541916 S    
O7    C3    1.311574 A    
O3    Cu2   1.954467 S    
O8    C4    1.312747 A    
O4    C2    1.296791 A    
N9    O22   1.299776 A    
C8    C10   1.413379 A    
C27   N17   1.434008 S    
C9    C11   1.418326 A    
C10   C12   1.418227 A    
O1    Cu1   1.962030 S    
N17   H17   1.045614 S    
C15   N5    1.434140 S    
N19   O29   1.299794 A    
C34   C36   1.521457 S    
C13   C18   1.400819 A    
C5    N1    1.365179 A    
C39   N4    1.490337 S    
O6    Cu2   1.943299 S    
C6    N2    1.365653 A    
C44   N12   1.456151 S    
N8    O19   1.299654 A    
O3    C1    1.297310 A    
O8    Cu1   1.941759 S    
N1    C30   1.435660 S    
N13   O26   1.301639 A    
C5    O9    1.349866 S    
C20   C30   1.412282 A    
C6    O10   1.349951 S    
C42   N8    1.457235 S    
C17   H1    1.083836 S    
N14   O28   1.301844 A    
C18   H2    1.083651 S    
C16   C18   1.397348 A    
N5    O13   1.301335 A    
C23   C25   1.416168 A    
C27   C29   1.405722 A    
C20   C22   1.398078 A    
C22   H4    1.082869 S    
N12   H11   1.044686 S    
N1    C7    1.368184 A    
N20   O32   1.300319 A    
N2    C8    1.368103 A    
C11   C13   1.408516 A    
O2    Cu2   1.962030 S    
N18   H20   1.045068 S    
C5    C13   1.400286 A    
C32   C35   1.538929 S    
C22   C24   1.402748 A    
C31   C37   1.557089 S    
C14   C17   1.400741 A    
N4    C44   1.481733 S    
N14   O27   1.300976 A    
Cu2   N4    2.051173 S    
C4    C24   1.475797 S    
C31   C33   1.538351 S    
N11   H9    1.044791 S    
C32   H6    1.108077 S    
N2    C29   1.436153 S    
N19   O30   1.300307 A    
