data_mof_unit_63986.cif
_audit_creation_date              2012-12-10T16:50:35-0500
_audit_creation_method            fapswitch 2.2
_symmetry_space_group_name_H-M    P1
_symmetry_Int_Tables_number       1
_space_group_crystal_system       triclinic
_cell_length_a                    18.892915
_cell_length_b                    18.65779
_cell_length_c                    18.927781
_cell_angle_alpha                 109.131049
_cell_angle_beta                  109.76488
_cell_angle_gamma                 109.229721
_cell_volume                      5154.17954664

loop_
_atom_site_label
_atom_site_type_symbol
_atom_type_description
_atom_site_fract_x
_atom_site_fract_y
_atom_site_fract_z
_atom_type_partial_charge
C1    C     C_R   0.383242 0.380388 0.501809 0.924755
C2    C     C_R   0.599528 0.338129 0.613762 -0.143071
C3    C     C_2   0.258040 0.252273 0.577218 -0.153935
C4    C     C_R   0.619257 0.499822 0.619110 0.871811
C5    C     C_2   0.181714 0.193375 0.505366 -0.332409
C6    C     C_2   0.319594 0.324597 0.577308 -0.149715
C7    C     C_2   0.324016 0.311775 0.505560 -0.340411
C8    C     C_2   0.172780 0.422208 0.181045 -0.164843
C9    C     C_2   0.184709 0.494339 0.175231 -0.267616
C10   C     C_2   0.245557 0.422166 0.242150 -0.156281
C11   C     C_2   0.306244 0.495082 0.317301 -0.321115
C12   C     C_R   0.758638 0.580686 0.752972 0.073734
C13   C     C_2   0.743284 0.822353 0.497151 -0.156024
C14   C     C_2   0.818671 0.824625 0.512500 -0.325189
C15   C     C_2   0.682088 0.760995 0.508262 -0.158092
C16   C     C_R   0.616995 0.619156 0.497931 0.926157
C17   C     C_2   0.676823 0.683284 0.490206 -0.333885
C18   C     C_R   0.995236 0.380925 0.876144 0.906280
C19   C     C_R   0.877803 0.500268 0.877536 0.868345
C20   C     C_R   0.995933 0.619867 0.114155 0.930464
C21   C     C_R   0.116689 0.497678 0.114326 1.016621
C22   C     C_R   0.997048 0.116634 0.618340 0.923125
C23   C     C_R   0.812682 0.500281 0.811321 -0.198539
C24   C     C_R   0.118527 0.121156 0.501641 0.933802
C25   C     C_R   0.996283 0.876763 0.382388 0.925362
C26   C     C_R   0.881519 0.883415 0.502849 0.925941
C27   C     C_2   0.919866 0.179620 0.673049 -0.150439
C28   C     C_R   0.378120 0.498271 0.380612 0.931229
C29   C     C_2   0.992313 0.175805 0.685740 -0.328544
C30   C     C_2   0.919391 0.240612 0.745010 -0.161944
C31   C     C_2   0.991302 0.317185 0.804593 -0.322647
C32   C     C_2   0.042521 0.773983 0.332684 -0.195358
C33   C     C_2   0.981957 0.797561 0.318615 -0.343914
C34   C     C_R   0.744102 0.419547 0.738158 0.077939
C35   C     C_2   0.034894 0.702024 0.263317 0.351272
C36   C     C_2   0.001029 0.689464 0.181787 0.173946
C37   C     C_R   0.773331 0.661531 0.755714 -0.142508
C38   C     C_R   0.840325 0.740450 0.828971 -0.135802
C39   C     C_R   0.893767 0.740647 0.900588 -0.147210
C40   C     C_R   0.883302 0.661908 0.897172 -0.134374
C41   C     C_R   0.818656 0.580882 0.821176 0.077347
C42   C     C_3   0.025319 0.801933 0.148322 0.075970
C43   C     C_3   0.104131 0.879421 0.234307 -0.351176
C44   C     C_3   0.159726 0.947584 0.220105 -0.952503
C45   C     C_R   0.675649 0.419271 0.678313 0.072619
C46   C     C_R   0.685415 0.499906 0.684391 -0.202620
C47   C     C_R   0.741620 0.338824 0.723412 -0.140368
C48   C     C_R   0.668333 0.259842 0.656517 -0.145688
C49   C     C_R   0.596380 0.259475 0.603286 -0.136218
H1    H     H_    0.538386 0.198124 0.552896 0.139387
H2    H     H_    0.838424 0.787137 0.540126 0.159936
H3    H     H_    0.639170 0.777917 0.527374 0.168226
H4    H     H_    0.734116 0.665086 0.701561 0.152218
H5    H     H_    0.712557 0.662586 0.461535 0.164202
H6    H     H_    0.860360 0.135887 0.611176 0.163348
H7    H     H_    0.048625 0.212125 0.750045 0.156720
H8    H     H_    0.859621 0.224307 0.747058 0.156356
H9    H     H_    0.047804 0.337605 0.796827 0.159971
H10   H     H_    0.101363 0.810977 0.395139 0.212412
H11   H     H_    0.920387 0.758588 0.258758 0.214717
H12   H     H_    0.161906 0.201959 0.449100 0.160729
H13   H     H_    0.849932 0.801574 0.830561 0.138449
H14   H     H_    0.944330 0.801927 0.958475 0.124508
H15   H     H_    0.926050 0.665687 0.954839 0.142331
H16   H     H_    0.796005 0.335466 0.762590 0.143278
H17   H     H_    0.666958 0.198803 0.646879 0.133176
H18   H     H_    0.541494 0.334092 0.571076 0.149735
H19   H     H_    0.273929 0.249356 0.636632 0.167955
H20   H     H_    0.157927 0.649392 0.414211 0.385456
H21   H     H_    0.987947 0.827716 0.115754 0.168530
H22   H     H_    0.046066 0.771701 0.104245 0.150622
H23   H     H_    0.363093 0.386930 0.636701 0.169269
H24   H     H_    0.081989 0.910609 0.276517 0.231204
H25   H     H_    0.144603 0.856372 0.267526 0.226050
H26   H     H_    0.183884 0.918472 0.179037 0.267361
H27   H     H_    0.216128 0.002660 0.283297 0.268151
H28   H     H_    0.121587 0.973389 0.188529 0.261011
H29   H     H_    0.287697 0.246927 0.449382 0.157027
H30   H     H_    0.110976 0.362086 0.138115 0.164512
H31   H     H_    0.248885 0.551234 0.211116 0.161394
H32   H     H_    0.247288 0.361556 0.226988 0.165502
H33   H     H_    0.299083 0.552736 0.336813 0.176158
H34   H     H_    0.727815 0.867253 0.479355 0.165028
O1    O     O_R   0.409870 0.358470 0.449260 -0.635189
O2    O     O_R   0.948030 0.090450 0.538510 -0.618081
O3    O     O_R   0.141850 0.090470 0.551380 -0.616168
O4    O     O_R   0.409230 0.460600 0.550770 -0.609798
O5    O     O_R   0.039050 0.090460 0.448590 -0.619099
O6    O     O_R   0.051970 0.909550 0.461490 -0.610939
O7    O     O_R   0.949170 0.909540 0.358700 -0.615514
O8    O     O_R   0.960950 0.909540 0.551410 -0.620668
O9    O     O_R   0.858150 0.909530 0.448620 -0.620903
O10   O     O_R   0.591360 0.448940 0.540280 -0.622979
O11   O     O_R   0.590720 0.551070 0.641790 -0.625884
O12   O     O_R   0.048480 0.460610 0.906920 -0.624176
O13   O     O_R   0.590770 0.539400 0.449230 -0.615351
O14   O     O_R   0.590130 0.641530 0.550740 -0.625794
O15   O     O_R   0.409280 0.448930 0.358210 -0.615696
O16   O     O_R   0.408640 0.551060 0.459720 -0.618007
O17   O     O_R   0.946350 0.358500 0.906960 -0.633801
O18   O     O_2   0.023070 0.549122 0.246725 -0.284454
O19   O     O_2   0.159169 0.659962 0.274827 -0.355043
O20   O     O_3   0.127813 0.681956 0.401540 -0.555392
O21   O     O_3   0.968811 0.741200 0.160327 -0.682625
O22   O     O_R   0.854760 0.448970 0.905840 -0.628317
O23   O     O_R   0.956890 0.551080 0.905790 -0.631015
O24   O     O_R   0.945260 0.539450 0.086770 -0.583139
O25   O     O_R   0.047380 0.641560 0.086730 -0.648657
O26   O     O_R   0.036850 0.448980 0.087900 -0.587619
O27   O     O_R   0.138970 0.551100 0.087860 -0.619829
O28   O     O_R   0.050830 0.090460 0.641300 -0.627098
S1    S     S_3+6 0.086874 0.645155 0.294906 -0.004046
Zn1   Zn    Zn3+2 0.500430 0.431810 0.432220 0.959852
Zn2   Zn    Zn3+2 0.499570 0.568190 0.567780 0.962411
Zn3   Zn    Zn3+2 0.928680 0.431850 0.996880 1.007471
Zn4   Zn    Zn3+2 0.065060 0.568210 0.996820 0.967526
Zn5   Zn    Zn3+2 0.068640 0.000010 0.568630 0.972399
Zn6   Zn    Zn3+2 0.931360 0.999990 0.431370 0.966410

loop_
_geom_bond_atom_site_label_1
_geom_bond_atom_site_label_2
_ccdc_geom_bond_type
C1    O4    A    
C43   H24   S    
O1    Zn1   S    
C22   C29   S    
C27   C29   D    
O19   S1    D    
C3    H19   S    
C3    C6    S    
C34   C47   A    
O16   Zn2   S    
C21   O27   A    
O11   Zn2   S    
C4    C46   S    
C45   C46   A    
O18   S1    D    
C6    H23   S    
C25   O7    A    
C37   C38   A    
O7    Zn6   S    
C31   H9    S    
C44   H28   S    
C30   C31   D    
C27   H6    S    
C16   O14   A    
C26   O9    A    
C30   H8    S    
C42   H21   S    
C22   O2    A    
C12   C37   A    
C44   H27   S    
O9    Zn6   S    
O4    Zn2   S    
C14   H2    S    
C8    C9    D    
C8    H30   S    
O8    Zn5   S    
C23   C41   A    
C20   O24   A    
C37   H4    S    
C43   H25   S    
C11   H33   S    
C13   C14   D    
C27   C30   S    
C18   O12   A    
O17   Zn3   S    
C18   O17   A    
H20   O20   S    
C2    C45   A    
C16   O13   A    
C32   C35   S    
C12   C46   A    
C2    H18   S    
C39   C40   A    
C16   C17   S    
O15   Zn1   S    
C26   O8    A    
C38   H13   S    
O23   Zn4   S    
O20   S1    S    
C1    O1    A    
C9    H31   S    
C44   H26   S    
C19   C23   S    
C43   C44   S    
C12   C41   A    
C2    C49   A    
C47   C48   A    
O12   Zn4   S    
C23   C34   A    
C5    H12   S    
C34   C45   A    
O10   Zn1   S    
C15   H3    S    
C14   C26   S    
C24   O5    A    
O24   Zn3   S    
C7    H29   S    
C4    O11   A    
C19   O22   A    
C28   O16   A    
C48   C49   A    
O6    Zn5   S    
C22   O28   A    
C33   H11   S    
C13   C15   S    
O13   Zn1   S    
C42   C43   S    
O5    Zn6   S    
O27   Zn4   S    
C28   O15   A    
C15   C17   D    
C40   C41   A    
C1    C7    S    
O22   Zn3   S    
C3    C5    D    
C42   O21   S    
C21   O26   A    
C6    C7    D    
C18   C31   S    
C29   H7    S    
C39   H14   S    
C13   H34   S    
C10   H32   S    
C25   O6    A    
C40   H15   S    
O28   Zn5   S    
C36   O21   S    
C32   C33   D    
O25   Zn4   S    
C9    C21   S    
C38   C39   A    
C5    C24   S    
C11   C28   S    
C42   H22   S    
O3    Zn5   S    
O2    Zn6   S    
C10   C11   D    
O26   Zn3   S    
C4    O10   A    
C20   C36   S    
C19   O23   A    
C8    C10   S    
C49   H1    S    
C35   C36   D    
C32   H10   S    
C48   H17   S    
O14   Zn2   S    
C24   O3    A    
C17   H5    S    
C47   H16   S    
C35   S1    S    
C25   C33   S    
C20   O25   A    
