data_mof_unit_7943.cif
_audit_creation_date              2012-12-10T17:00:02-0500
_audit_creation_method            fapswitch 2.2
_symmetry_space_group_name_H-M    P1
_symmetry_Int_Tables_number       1
_space_group_crystal_system       triclinic
_cell_length_a                    23.576084
_cell_length_b                    10.918736
_cell_length_c                    9.702802
_cell_angle_alpha                 89.829379
_cell_angle_beta                  90.235411
_cell_angle_gamma                 90.520088
_cell_volume                      2497.5705724

loop_
_atom_site_label
_atom_site_type_symbol
_atom_type_description
_atom_site_fract_x
_atom_site_fract_y
_atom_site_fract_z
_atom_type_partial_charge
C1    C     C_R   0.497083 0.265313 0.500248 0.728629
C2    C     C_R   0.968614 0.306228 0.597888 -0.144937
C3    C     C_R   0.027567 0.306661 0.604597 0.384132
C4    C     C_R   0.058766 0.407251 0.549294 -0.084171
C5    C     C_R   0.029287 0.511278 0.500351 -0.119030
C6    C     C_R   0.059694 0.615592 0.454147 -0.172092
C7    C     C_R   0.029732 0.717677 0.401861 0.413154
C8    C     C_R   0.970401 0.712820 0.389432 0.319002
C9    C     C_R   0.118243 0.405932 0.536612 0.542326
C10   C     C_R   0.119499 0.613832 0.460094 0.601857
C11   C     C_R   0.238866 0.541098 0.379678 -0.198351
C12   C     C_R   0.390911 0.499392 0.499603 0.837684
C13   C     C_R   0.298193 0.542033 0.380282 0.350785
C14   C     C_R   0.328105 0.500443 0.498166 -0.271963
C15   C     C_R   0.297067 0.460626 0.614831 0.395072
C16   C     C_R   0.238118 0.470871 0.616128 -0.181688
C17   C     C_R   0.208536 0.508134 0.498131 0.203808
C18   C     C_R   0.760359 0.508063 0.374641 -0.104242
C19   C     C_R   0.701258 0.505640 0.374932 -0.200802
C20   C     C_R   0.671464 0.502406 0.500161 -0.045543
C21   C     C_R   0.701939 0.501738 0.625003 -0.207538
C22   C     C_R   0.761096 0.504052 0.624398 -0.091175
C23   C     C_R   0.501650 0.734525 0.499828 0.804595
C24   C     C_R   0.790487 0.507155 0.499237 0.345486
C25   C     C_2   0.498942 0.933548 0.387598 -0.146280
C26   C     C_2   0.507558 0.866139 0.500956 -0.223487
C27   C     C_2   0.504024 0.067092 0.391714 -0.182709
C28   C     C_2   0.487932 0.132942 0.501445 0.264032
C29   C     C_2   0.460917 0.447930 0.923922 -0.028455
C30   C     C_2   0.466596 0.428042 0.079962 0.576646
C31   C     C_R   0.608989 0.500534 0.500153 0.797212
C32   C     C_R   0.879556 0.610665 0.452501 0.563639
C33   C     C_R   0.879751 0.407378 0.543347 0.559640
C34   C     C_R   0.939138 0.407112 0.545825 -0.062296
C35   C     C_R   0.969294 0.510591 0.497437 -0.064110
C36   C     C_R   0.939439 0.612321 0.444904 -0.166766
Cu1   Cu    Cu3+1 0.500010 0.500020 0.638630 0.986581
Cu2   Cu    Cu3+1 0.499990 0.499980 0.361370 1.005224
H1    H     H_    0.945894 0.227500 0.638774 0.208830
H2    H     H_    0.678984 0.506337 0.277109 0.171209
H3    H     H_    0.680159 0.499447 0.723037 0.168422
H4    H     H_    0.784167 0.503625 0.721129 0.145111
H5    H     H_    0.490116 0.890652 0.288826 0.156524
H6    H     H_    0.520561 0.907720 0.597625 0.201145
H7    H     H_    0.521145 0.111939 0.300611 0.146615
H8    H     H_    0.422676 0.417440 0.872675 0.115810
H9    H     H_    0.513736 0.578658 0.108792 0.207256
H10   H     H_    0.216401 0.567753 0.286888 0.184841
H11   H     H_    0.215039 0.445593 0.708375 0.177674
H12   H     H_    0.782843 0.510075 0.277550 0.141722
N1    N     N_R   0.851341 0.508437 0.498361 -0.466165
N2    N     N_R   0.147366 0.509478 0.498119 -0.435696
N3    N     N_2   0.499380 0.498660 0.846910 -0.030549
N4    N     N_2   0.499370 0.498630 0.153040 -0.284730
O1    O     O_R   0.500010 0.321960 0.617040 -0.585138
O2    O     O_2   0.850483 0.307432 0.585784 -0.528217
O3    O     O_2   0.146867 0.301018 0.557371 -0.560632
O4    O     O_2   0.149804 0.715463 0.428833 -0.522693
O5    O     O_R   0.499990 0.321920 0.382900 -0.538999
O6    O     O_R   0.417890 0.499980 0.617100 -0.565292
O7    O     O_R   0.417870 0.499940 0.382950 -0.502861
O8    O     O_R   0.500010 0.678080 0.617100 -0.578090
O9    O     O_R   0.499990 0.678040 0.382960 -0.597508
O10   O     O_R   0.582130 0.500060 0.617050 -0.584276
O11   O     O_R   0.582110 0.500020 0.382900 -0.575521
O12   O     O_2   0.849576 0.711219 0.419193 -0.506033
O13   O     O_3   0.459693 0.076988 0.610044 -0.745494
H13   H     H_    0.449274 0.139453 0.678920 0.315125
O14   O     O_3   0.550327 0.516228 0.906256 -0.672891
H14   H     H_    0.571678 0.569894 0.842548 0.367191
O15   O     O_3   0.435821 0.338859 0.152264 -0.539316
C37   C     C_3   0.401573 0.263062 0.068329 0.015296
H15   H     H_    0.427094 0.218913 0.986228 0.129846
H16   H     H_    0.366192 0.316827 0.023157 0.176866
C38   C     C_3   0.375501 0.162108 0.156649 -0.749768
H17   H     H_    0.350349 0.202684 0.241362 0.254618
H18   H     H_    0.347158 0.103673 0.092394 0.199493
H19   H     H_    0.409369 0.104206 0.201568 0.241841
O16   O     O_3   0.052642 0.209470 0.671174 -0.720797
H20   H     H_    0.082799 0.243300 0.731863 0.352880
O17   O     O_3   0.058579 0.815719 0.343509 -0.523389
C39   C     C_3   0.058067 0.915138 0.436280 0.153419
H21   H     H_    0.077296 0.889230 0.537278 0.151971
H22   H     H_    0.014123 0.948100 0.453477 0.182806
C40   C     C_3   0.092764 0.020080 0.375468 -0.666061
H23   H     H_    0.092742 0.099212 0.446715 0.255588
H24   H     H_    0.137228 0.990795 0.359240 0.257945
H25   H     H_    0.074222 0.048953 0.275233 0.241862
O18   O     O_3   0.944613 0.805987 0.317191 -0.667379
H26   H     H_    0.917499 0.767451 0.251739 0.357649
O19   O     O_3   0.326523 0.578675 0.262501 -0.546785
C41   C     C_3   0.334052 0.707070 0.266643 0.104225
H27   H     H_    0.355506 0.736587 0.363883 0.131444
H28   H     H_    0.292436 0.753913 0.257242 0.156291
C42   C     C_3   0.371242 0.747013 0.146602 -0.758239
H29   H     H_    0.350935 0.720493 0.047469 0.252793
H30   H     H_    0.377271 0.847999 0.148451 0.191800
H31   H     H_    0.413377 0.702834 0.154544 0.246176
O20   O     O_3   0.323816 0.411715 0.729197 -0.580115
C43   C     C_3   0.331678 0.284403 0.709417 0.072653
H32   H     H_    0.371877 0.258526 0.760746 0.136860
H33   H     H_    0.336193 0.257041 0.599160 0.134923
C44   C     C_3   0.283890 0.210865 0.776580 -0.797501
H34   H     H_    0.243524 0.224623 0.719726 0.272311
H35   H     H_    0.294224 0.111869 0.774544 0.218233
H36   H     H_    0.278502 0.239683 0.885367 0.249002

loop_
_geom_bond_atom_site_label_1
_geom_bond_atom_site_label_2
_ccdc_geom_bond_type
C4    C9    A    
C19   C20   A    
C10   N2    A    
C25   H5    S    
C30   O15   S    
C42   H31   S    
C26   H6    S    
C7    C8    A    
C40   H23   S    
C30   N4    D    
Cu1   Cu2   S    
C18   C24   A    
C32   C36   A    
C10   O4    S    
C18   C19   A    
C1    O5    A    
C5    C6    A    
C15   C16   A    
C34   C35   A    
C8    C36   A    
C23   C26   S    
C43   H32   S    
C2    H1    S    
C23   O8    A    
C42   H29   S    
C16   C17   A    
C1    C28   S    
Cu2   O7    S    
Cu1   N3    S    
C2    C34   A    
C24   N1    S    
C23   O9    A    
N3    O14   S    
C21   C22   A    
C13   O19   S    
C11   H10   S    
C9    N2    A    
C37   C38   S    
C17   N2    S    
C43   H33   S    
O17   C39   S    
C40   H24   S    
O13   H13   S    
C28   O13   S    
C16   H11   S    
C37   H16   S    
O19   C41   S    
C37   H15   S    
C25   C26   D    
C43   C44   S    
Cu2   O5    S    
C35   C36   A    
Cu1   O1    S    
C38   H17   S    
C32   N1    A    
C29   C30   S    
O20   C43   S    
Cu2   N4    S    
Cu2   O11   S    
C41   H28   S    
C33   C34   A    
C44   H35   S    
C38   H18   S    
C3    O16   S    
H9    N4    S    
C21   H3    S    
C7    O17   S    
C12   C14   S    
C39   H22   S    
C22   C24   A    
C33   N1    A    
C3    C4    A    
C27   C28   D    
Cu1   O10   S    
C18   H12   S    
C32   O12   S    
Cu2   O9    S    
C40   H25   S    
C31   O11   A    
C11   C17   A    
C31   O10   A    
C15   O20   S    
C4    C5    A    
C6    C10   A    
C42   H30   S    
C6    C7    A    
C25   C27   S    
C39   C40   S    
C29   H8    S    
C2    C3    A    
C1    O1    A    
O15   C37   S    
C12   O7    A    
C11   C13   A    
C27   H7    S    
C22   H4    S    
C29   N3    D    
C33   O2    S    
C5    C35   A    
C41   H27   S    
C44   H36   S    
C9    O3    S    
C41   C42   S    
O14   H14   S    
C38   H19   S    
Cu1   O6    S    
C19   H2    S    
O16   H20   S    
C12   O6    A    
C20   C21   A    
C39   H21   S    
C44   H34   S    
Cu1   O8    S    
C14   C15   A    
C8    O18   S    
O18   H26   S    
C13   C14   A    
C20   C31   S    
