data_mof_unit_31995.cif
_audit_creation_date              2012-10-26T19:35:12-0400
_audit_creation_method            fapswitch 2.2
_symmetry_space_group_name_H-M    P1
_symmetry_Int_Tables_number       1
_space_group_crystal_system       triclinic
_cell_length_a                    10.884892
_cell_length_b                    10.809322
_cell_length_c                    9.643523
_cell_angle_alpha                 91.192108
_cell_angle_beta                  89.702973
_cell_angle_gamma                 90.880547
_cell_volume                      1134.24757208

loop_
_atom_site_label
_atom_site_type_symbol
_atom_type_description
_atom_site_fract_x
_atom_site_fract_y
_atom_site_fract_z
_atom_type_partial_charge
C1    C     C_R   0.497616 0.262910 0.498341 0.567036
C2    C     C_R   0.565506 0.935004 0.398882 -0.159502
C3    C     C_R   0.497329 0.871322 0.499828 -0.022744
C4    C     C_R   0.262236 0.500616 0.500954 0.556870
C5    C     C_R   0.413404 0.937484 0.581091 0.013569
C6    C     C_3   0.388626 0.940211 0.733478 0.154327
C7    C     C_3   0.376660 0.080432 0.724741 0.145785
C8    C     C_R   0.574836 0.579533 0.074935 0.238331
C9    C     C_R   0.434852 0.414176 0.072509 0.040943
C10   C     C_R   0.434784 0.414266 0.924389 0.025929
C11   C     C_R   0.574406 0.579704 0.927979 0.181760
C12   C     C_R   0.057884 0.500402 0.627527 -0.041120
C13   C     C_3   0.566189 0.716478 0.927578 -0.279973
C14   C     C_3   0.570850 0.716960 0.083933 -0.259453
C15   C     C_R   0.499877 0.737497 0.500992 0.540549
C16   C     C_R   0.737396 0.508202 0.499598 0.561548
C17   C     C_R   0.106366 0.469850 0.756599 -0.045311
C18   C     C_R   0.055335 0.519316 0.877376 0.318025
C19   C     C_R   0.950940 0.593785 0.869236 0.322450
C20   C     C_R   0.886169 0.595454 0.745250 -0.083417
C21   C     C_R   0.935604 0.539310 0.625083 -0.072991
C22   C     C_3   0.119348 0.656272 0.301127 -0.217930
C23   C     C_R   0.127635 0.508422 0.503158 -0.002989
C24   C     C_3   0.141240 0.772150 0.393261 -0.325771
C25   C     C_3   0.190846 0.879947 0.308686 -0.396754
C26   C     C_R   0.066828 0.549197 0.384166 0.045580
C27   C     C_R   0.940925 0.524066 0.375609 0.248456
C28   C     C_R   0.871472 0.525655 0.499356 -0.015877
C29   C     C_R   0.408572 0.064671 0.575314 0.016858
C30   C     C_R   0.490541 0.129780 0.491647 -0.011827
C31   C     C_R   0.562314 0.063977 0.394810 -0.145193
Cl1   Cl    Cl    0.224912 0.139662 0.744985 -0.533830
Cl2   Cl    Cl    0.131058 0.489621 0.031527 -0.577073
Cl3   Cl    Cl    0.903761 0.693860 0.003714 -0.582437
Cl4   Cl    Cl    0.880700 0.474427 0.214385 -0.473705
Cl5   Cl    Cl    0.252368 0.853800 0.776086 -0.525066
Cu1   Cu    Cu3+1 0.499990 0.499980 0.640670 0.989613
Cu2   Cu    Cu3+1 0.500010 0.500020 0.359330 1.012473
H1    H     H_    0.471190 0.917092 0.793255 0.071755
H2    H     H_    0.803312 0.649117 0.740610 0.151439
H3    H     H_    0.621224 0.112188 0.322152 0.158903
H4    H     H_    0.625980 0.885840 0.328327 0.137736
H5    H     H_    0.281087 0.856217 0.261660 0.165487
H6    H     H_    0.203405 0.962820 0.377397 0.190999
H7    H     H_    0.125394 0.902576 0.225275 0.209685
H8    H     H_    0.053464 0.799634 0.443812 0.195849
H9    H     H_    0.208691 0.752608 0.475665 0.206218
H10   H     H_    0.205837 0.632078 0.247322 0.227722
H11   H     H_    0.053670 0.681389 0.219936 0.259429
H12   H     H_    0.447818 0.132722 0.785079 0.097712
H13   H     H_    0.379581 0.346089 0.126131 0.160230
H14   H     H_    0.379584 0.346243 0.868533 0.156423
H15   H     H_    0.646872 0.762130 0.878215 0.156180
H16   H     H_    0.474745 0.742586 0.889677 0.187591
H17   H     H_    0.657449 0.757806 0.126111 0.180950
H18   H     H_    0.485094 0.752304 0.132536 0.151951
H19   H     H_    0.185275 0.411744 0.765876 0.198722
N1    N     N_R   0.500790 0.500930 0.147930 -0.243086
N2    N     N_R   0.500790 0.500890 0.852020 -0.244498
O1    O     O_R   0.500000 0.319640 0.618810 -0.506017
O2    O     O_R   0.500010 0.319680 0.381230 -0.502751
O3    O     O_R   0.319640 0.499980 0.618820 -0.500496
O4    O     O_R   0.319650 0.500020 0.381230 -0.498587
O5    O     O_R   0.499990 0.680320 0.618770 -0.499899
O6    O     O_R   0.500000 0.680360 0.381190 -0.527380
O7    O     O_R   0.680350 0.499980 0.618770 -0.513432
O8    O     O_R   0.680360 0.500020 0.381180 -0.435979

loop_
_geom_bond_atom_site_label_1
_geom_bond_atom_site_label_2
_ccdc_geom_bond_type
C12   C17   A    
C16   C28   S    
C14   H17   S    
C14   H18   S    
C15   O5    A    
C24   C25   S    
C29   C30   A    
C7    C29   S    
C4    O3    A    
C9    C10   A    
C22   H10   S    
C19   C20   A    
C9    H13   S    
Cu2   O6    S    
C30   C31   A    
Cu2   O2    S    
C10   H14   S    
Cu1   O7    S    
C25   H5    S    
C12   C23   A    
C2    C3    A    
C24   H8    S    
C16   O8    A    
Cu2   N1    S    
C13   C14   S    
C20   C21   A    
C11   C13   S    
C4    O4    A    
C26   C27   A    
Cu1   N2    S    
C2    H4    S    
C8    C11   A    
C11   N2    A    
C25   H6    S    
C1    C30   S    
Cu1   Cu2   S    
C6    Cl5   S    
C13   H16   S    
C6    C7    S    
C13   H15   S    
C22   H11   S    
C5    C6    S    
C20   H2    S    
C18   Cl2   S    
C22   C24   S    
C23   C26   A    
Cu1   O1    S    
C16   O7    A    
C15   O6    A    
C5    C29   A    
C25   H7    S    
Cu1   O5    S    
C3    C15   S    
Cu2   O8    S    
C17   C18   A    
C18   C19   A    
C22   C26   S    
C1    O1    A    
C27   C28   A    
C4    C23   S    
Cu1   O3    S    
C6    H1    S    
C9    N1    A    
C8    N1    A    
C8    C14   S    
C7    Cl1   S    
C31   H3    S    
C27   Cl4   S    
Cu2   O4    S    
C24   H9    S    
C10   N2    A    
C12   C21   A    
C21   C28   A    
C7    H12   S    
C17   H19   S    
C2    C31   A    
C3    C5    A    
C19   Cl3   S    
C1    O2    A    
