data_mof_unit_35993.cif
_audit_creation_date              2012-12-11T14:45:27-0500
_audit_creation_method            fapswitch 2.2
_symmetry_space_group_name_H-M    P1
_symmetry_Int_Tables_number       1
_space_group_crystal_system       triclinic
_cell_length_a                    24.659278
_cell_length_b                    7.170648
_cell_length_c                    14.47118
_cell_angle_alpha                 90.0082
_cell_angle_beta                  102.154921
_cell_angle_gamma                 89.995952
_cell_volume                      2501.47308483

loop_
_atom_site_label
_atom_site_type_symbol
_atom_type_description
_atom_site_fract_x
_atom_site_fract_y
_atom_site_fract_z
_atom_type_partial_charge
O1    O     O_R   0.319150 0.364170 0.330530 -0.537840
O2    O     O_R   0.680850 0.635830 0.669470 -0.539134
O3    O     O_R   0.180850 0.864170 0.169470 -0.537828
O4    O     O_R   0.819150 0.135830 0.830530 -0.539137
O5    O     O_R   0.210330 0.696850 0.354180 -0.536230
O6    O     O_R   0.789670 0.303150 0.645820 -0.540586
O7    O     O_R   0.289670 0.196850 0.145820 -0.536220
O8    O     O_R   0.710330 0.803150 0.854180 -0.540569
C1    C     C_R   0.196695 0.525621 0.377927 0.677541
C2    C     C_R   0.803413 0.474934 0.622309 0.678222
C3    C     C_R   0.303305 0.025593 0.122077 0.677516
C4    C     C_R   0.696589 0.974958 0.877694 0.678235
O9    O     O_R   0.320550 0.694110 0.341970 -0.544079
O10   O     O_R   0.679450 0.305890 0.658030 -0.542433
O11   O     O_R   0.179450 0.194110 0.158030 -0.544066
O12   O     O_R   0.820550 0.805890 0.841970 -0.542439
O13   O     O_R   0.291860 0.861000 0.157170 -0.536170
O14   O     O_R   0.708140 0.139000 0.842830 -0.531674
O15   O     O_R   0.208140 0.361000 0.342830 -0.536161
O16   O     O_R   0.791860 0.639000 0.657170 -0.531661
C5    C     C_R   0.341652 0.526674 0.363144 0.688633
C6    C     C_R   0.658203 0.473228 0.637280 0.686825
C7    C     C_R   0.158351 0.026665 0.136851 0.688622
C8    C     C_R   0.841799 0.973231 0.862710 0.686801
O17   O     O_3   0.240460 0.529330 0.189380 -0.374448
O18   O     O_3   0.759540 0.470670 0.810620 -0.374311
O19   O     O_3   0.259540 0.029330 0.310620 -0.374460
O20   O     O_3   0.740460 0.970670 0.689380 -0.374307
V1    V     V_3+5 0.251770 0.805510 0.261240 1.412197
V2    V     V_3+5 0.748230 0.194490 0.738760 1.412712
V3    V     V_3+5 0.248230 0.305510 0.238760 1.412201
V4    V     V_3+5 0.751770 0.694490 0.761240 1.412712
C9    C     C_R   0.103047 0.029375 0.072181 -0.061950
C10   C     C_R   0.897411 0.969873 0.926408 -0.057367
C11   C     C_R   0.396961 0.529424 0.427799 -0.061922
C12   C     C_R   0.602595 0.469869 0.573569 -0.057390
C13   C     C_R   0.966232 0.793210 0.038819 -0.210660
C14   C     C_R   0.034561 0.203909 0.958054 -0.193472
C15   C     C_R   0.533767 0.293172 0.461174 -0.210714
C16   C     C_R   0.465465 0.704099 0.541854 -0.193475
C17   C     C_R   0.911942 0.817516 0.988315 -0.164464
C18   C     C_R   0.088718 0.180808 0.009592 -0.169078
C19   C     C_R   0.588057 0.317457 0.511683 -0.164432
C20   C     C_R   0.411305 0.680972 0.490336 -0.169058
C21   C     C_R   0.938262 0.101280 0.918070 -0.245886
C22   C     C_R   0.062314 0.897144 0.079735 -0.241153
C23   C     C_R   0.561755 0.601372 0.581867 -0.245999
C24   C     C_R   0.437686 0.397133 0.420267 -0.241130
C25   C     C_R   0.993266 0.076663 0.968278 0.159800
C26   C     C_R   0.007428 0.921018 0.028955 0.156680
C27   C     C_R   0.506750 0.576761 0.531663 0.159856
C28   C     C_R   0.492577 0.421033 0.471024 0.156663
H1    H     H_    0.072742 0.780621 0.127856 0.120755
H2    H     H_    0.927873 0.217542 0.869666 0.116355
H3    H     H_    0.427249 0.280524 0.372183 0.120671
H4    H     H_    0.572150 0.717699 0.630246 0.116396
H5    H     H_    0.119392 0.284532 0.001865 0.130046
H6    H     H_    0.881303 0.713868 0.996299 0.130151
H7    H     H_    0.380641 0.784770 0.498035 0.130054
H8    H     H_    0.618690 0.213755 0.503719 0.130165
H9    H     H_    0.976071 0.673090 0.084736 0.115825
H10   H     H_    0.024835 0.323035 0.911401 0.116837
H11   H     H_    0.523922 0.173031 0.415260 0.115885
H12   H     H_    0.475202 0.823315 0.588463 0.116797
C29   C     C_R   0.664007 0.989669 0.951046 -0.034196
C30   C     C_R   0.335775 0.022492 0.048150 -0.034133
C31   C     C_R   0.835998 0.489574 0.548960 -0.034118
C32   C     C_R   0.164231 0.522620 0.451866 -0.034199
C33   C     C_R   0.659053 0.078573 0.110020 -0.151801
C34   C     C_R   0.340644 0.073325 0.885041 -0.152734
C35   C     C_R   0.840922 0.578046 0.389913 -0.151768
C36   C     C_R   0.159355 0.574165 0.614940 -0.152745
C37   C     C_R   0.690422 0.032638 0.043674 -0.170903
C38   C     C_R   0.309302 0.047833 0.953750 -0.171017
C39   C     C_R   0.809564 0.532226 0.456284 -0.170924
C40   C     C_R   0.190701 0.548467 0.546245 -0.170960
C41   C     C_R   0.606017 0.993832 0.925036 -0.201336
C42   C     C_R   0.393792 0.024795 0.073495 -0.203382
C43   C     C_R   0.893993 0.493951 0.574991 -0.201260
C44   C     C_R   0.106210 0.524667 0.426525 -0.203403
C45   C     C_R   0.573930 0.062070 0.987792 0.076976
C46   C     C_R   0.425911 0.073915 0.007145 0.078195
C47   C     C_R   0.926060 0.562067 0.512188 0.076892
C48   C     C_R   0.074079 0.574021 0.492836 0.078214
C49   C     C_R   0.601072 0.093738 0.082803 0.107892
C50   C     C_R   0.398729 0.086280 0.910989 0.108646
C51   C     C_R   0.898904 0.593396 0.417139 0.107913
C52   C     C_R   0.101263 0.586862 0.588986 0.108648
C53   C     C_R   0.515624 0.093680 0.960196 0.005574
C54   C     C_R   0.484289 0.104724 0.032693 0.006110
C55   C     C_R   0.984362 0.593862 0.539770 0.005502
C56   C     C_R   0.015691 0.604662 0.467257 0.006136
C57   C     C_R   0.512637 0.162727 0.125021 0.133450
C58   C     C_R   0.487385 0.131765 0.864926 0.127209
C59   C     C_R   0.987325 0.662335 0.374874 0.133460
C60   C     C_R   0.012594 0.632376 0.635016 0.127190
C61   C     C_R   0.570629 0.149811 0.148827 -0.241665
C62   C     C_R   0.429298 0.121263 0.842075 -0.241880
C63   C     C_R   0.929333 0.649304 0.351073 -0.241648
C64   C     C_R   0.070687 0.622076 0.657875 -0.241852
H13   H     H_    0.592618 0.188269 0.219286 0.117694
H14   H     H_    0.407348 0.145410 0.769869 0.117320
H15   H     H_    0.907331 0.687514 0.280575 0.117657
H16   H     H_    0.092633 0.646557 0.730060 0.117324
H17   H     H_    0.413063 0.985053 0.144525 0.101805
H18   H     H_    0.586770 0.940439 0.856490 0.098355
H19   H     H_    0.086947 0.484613 0.355526 0.101872
H20   H     H_    0.913261 0.440768 0.643583 0.098254
H21   H     H_    0.264428 0.049026 0.933472 0.101969
H22   H     H_    0.735285 0.032760 0.064201 0.102254
H23   H     H_    0.235576 0.549909 0.566516 0.101981
H24   H     H_    0.764696 0.532180 0.435736 0.102232
H25   H     H_    0.680274 0.108450 0.181974 0.112980
H26   H     H_    0.319362 0.088900 0.811893 0.113157
H27   H     H_    0.819688 0.607672 0.317924 0.112956
H28   H     H_    0.180639 0.590127 0.688074 0.113144
C65   C     C_3   0.485507 0.274661 0.193034 -0.350953
C66   C     C_3   0.455293 0.447828 0.146420 -0.710154
H29   H     H_    0.483681 0.533714 0.113630 0.226451
H30   H     H_    0.418380 0.409462 0.091664 0.233434
H31   H     H_    0.441018 0.533366 0.200730 0.206792
H32   H     H_    0.457940 0.190465 0.227185 0.156370
H33   H     H_    0.517603 0.326415 0.253367 0.179847
C67   C     C_3   0.514822 0.223381 0.790926 -0.339433
C68   C     C_3   0.544953 0.403765 0.827593 -0.712396
H34   H     H_    0.516262 0.500116 0.853826 0.224215
H35   H     H_    0.581339 0.375547 0.885331 0.232571
H36   H     H_    0.560064 0.473692 0.769439 0.205691
H37   H     H_    0.542578 0.129397 0.762270 0.161822
H38   H     H_    0.482976 0.262610 0.727382 0.177593
C69   C     C_3   0.014433 0.774033 0.306760 -0.350894
C70   C     C_3   0.044652 0.947356 0.353234 -0.710168
H39   H     H_    0.016273 0.033365 0.385994 0.226455
H40   H     H_    0.081585 0.909177 0.407988 0.233413
H41   H     H_    0.058899 0.032710 0.298840 0.206765
H42   H     H_    0.041988 0.689666 0.272641 0.156312
H43   H     H_    0.982320 0.825636 0.246418 0.179819
C71   C     C_3   0.985128 0.724209 0.708935 -0.339271
C72   C     C_3   0.954984 0.904523 0.672140 -0.712296
H44   H     H_    0.918674 0.876218 0.614259 0.232566
H45   H     H_    0.983712 0.000937 0.646074 0.224163
H46   H     H_    0.939754 0.974428 0.730185 0.205598
H47   H     H_    0.957367 0.630285 0.737608 0.161849
H48   H     H_    0.016958 0.763612 0.772491 0.177550

loop_
_geom_bond_atom_site_label_1
_geom_bond_atom_site_label_2
_ccdc_geom_bond_type
O17   V3    S    
C24   H3    S    
C63   H15   S    
O1    C5    A    
O19   V1    S    
O13   V1    S    
O3    C7    A    
C64   H16   S    
C44   C48   A    
O15   V3    S    
C38   H21   S    
O4    V2    S    
C37   H22   S    
C14   C25   A    
C2    C31   S    
C34   H26   S    
O7    C3    A    
C44   H19   S    
C33   H25   S    
C39   H24   S    
C42   H17   S    
C9    C18   A    
O9    V1    S    
C41   H18   S    
C17   H6    S    
C14   C18   A    
C71   H47   S    
C40   H23   S    
C60   C71   S    
O4    C8    A    
C72   H46   S    
C59   C63   A    
C58   C62   A    
C20   H7    S    
C30   C38   A    
O1    V3    S    
C29   C37   A    
C12   C23   A    
O2    V4    S    
C53   C58   A    
O3    V1    S    
C66   H29   S    
C55   C60   A    
C1    O15   A    
C2    O16   A    
C70   H39   S    
C7    C9    S    
O2    C6    A    
C68   H36   S    
C33   C37   A    
O14   V2    S    
C21   C25   A    
C16   C20   A    
O5    V1    S    
C3    C30   S    
C36   C40   A    
C45   C53   A    
O11   C7    A    
C15   C28   A    
O12   C8    A    
C59   C69   S    
C9    C22   A    
C10   C17   A    
C57   C65   S    
O10   V2    S    
C11   C24   A    
C18   H5    S    
C36   C52   A    
C45   C49   A    
C51   C63   A    
C30   C42   A    
O7    V3    S    
C35   H27   S    
C27   C28   A    
O8    V4    S    
C31   C43   A    
C69   H42   S    
C55   C56   A    
O18   V4    S    
C15   C19   A    
C46   C50   A    
C56   C59   A    
C8    C10   S    
C43   H20   S    
C66   H31   S    
C65   H32   S    
C34   C38   A    
C69   H43   S    
C29   C41   A    
C42   C46   A    
C13   H9    S    
C6    C12   S    
C41   C45   A    
O8    C4    A    
C67   H38   S    
C10   C21   A    
C32   C40   A    
C11   C20   A    
C52   C64   A    
C19   H8    S    
C35   C51   A    
O6    V2    S    
C21   H2    S    
C68   H34   S    
C31   C39   A    
C32   C44   A    
C34   C50   A    
C57   C61   A    
C33   C49   A    
C54   C57   A    
O16   V4    S    
C36   H28   S    
C3    O13   A    
C48   C52   A    
O5    C1    A    
C46   C54   A    
C47   C51   A    
O6    C2    A    
C23   C27   A    
C72   H44   S    
O11   V3    S    
C5    C11   S    
O12   V4    S    
C16   C27   A    
C15   H11   S    
C4    C29   S    
C22   C26   A    
C16   H12   S    
O10   C6    A    
O20   V2    S    
C65   H33   S    
C1    C32   S    
C62   H14   S    
C65   C66   S    
O9    C5    A    
C35   C39   A    
C13   C26   A    
C72   H45   S    
C70   H41   S    
C60   C64   A    
C22   H1    S    
C67   H37   S    
C47   C55   A    
C13   C17   A    
C50   C62   A    
C66   H30   S    
C49   C61   A    
C71   C72   S    
C43   C47   A    
C24   C28   A    
C70   H40   S    
C25   C26   A    
C4    O14   A    
C68   H35   S    
C67   C68   S    
C12   C19   A    
C71   H48   S    
C48   C56   A    
C53   C54   A    
C61   H13   S    
C69   C70   S    
C23   H4    S    
C14   H10   S    
C58   C67   S    
