data_mof_unit_34070.cif
_audit_creation_date              2012-12-11T17:00:25-0500
_audit_creation_method            fapswitch 2.2
_symmetry_space_group_name_H-M    P1
_symmetry_Int_Tables_number       1
_space_group_crystal_system       triclinic
_cell_length_a                    6.966118
_cell_length_b                    13.677671
_cell_length_c                    20.238429
_cell_angle_alpha                 103.173902
_cell_angle_beta                  89.815293
_cell_angle_gamma                 90.483733
_cell_volume                      1877.50636083

loop_
_atom_site_label
_atom_site_type_symbol
_atom_type_description
_atom_site_fract_x
_atom_site_fract_y
_atom_site_fract_z
_atom_type_partial_charge
O1    O     O_R   0.506770 0.599700 0.449550 -0.542029
O2    O     O_R   0.179980 0.595740 0.587960 -0.517072
O3    O     O_R   0.004580 0.400300 0.550450 -0.543211
C1    C     C_R   0.347881 0.617029 0.615268 0.704515
O4    O     O_R   0.177380 0.611700 0.452380 -0.532853
O5    O     O_R   0.001970 0.416370 0.413900 -0.546631
C2    C     C_R   0.347045 0.637544 0.435764 0.712025
O6    O     O_R   0.509390 0.583630 0.586100 -0.543997
O7    O     O_3   0.337530 0.435890 0.487530 -0.381326
V1    V     V_3+5 0.064660 0.511890 0.502310 1.484484
O8    O     O_R   0.671950 0.404260 0.412040 -0.544744
C3    C     C_R   0.840649 0.384729 0.384162 0.680638
O9    O     O_R   0.674540 0.388300 0.547620 -0.545066
C4    C     C_R   0.843062 0.362241 0.564571 0.684430
V2    V     V_3+5 0.564030 0.488110 0.497690 1.431511
O10   O     O_3   0.841030 0.564110 0.512470 -0.343918
C5    C     C_R   0.927247 0.116124 0.611291 -0.165227
H1    H     H_    0.912047 0.164744 0.517892 0.110604
H2    H     H_    0.994335 0.996897 0.694849 0.136075
H3    H     H_    0.962245 0.039793 0.585746 0.118160
C6    C     C_R   0.853630 0.285621 0.604356 -0.025255
C7    C     C_R   0.808518 0.312979 0.930991 -0.168912
C8    C     C_R   0.781520 0.387688 0.895615 -0.120148
C9    C     C_R   0.800925 0.366520 0.825233 -0.161706
C10   C     C_R   0.850630 0.269116 0.788169 0.077427
C11   C     C_R   0.883846 0.193608 0.825141 0.073462
C12   C     C_R   0.866051 0.243719 0.715752 0.074636
C13   C     C_R   0.914585 0.143816 0.682333 0.146741
C14   C     C_R   0.952393 0.072373 0.719921 -0.218528
C15   C     C_R   0.937924 0.096796 0.790120 -0.208962
C16   C     C_R   0.836164 0.313869 0.675077 -0.219116
C17   C     C_R   0.897715 0.186741 0.572584 -0.181889
C18   C     C_R   0.859569 0.216149 0.896573 -0.072068
H4    H     H_    0.803792 0.391522 0.696589 0.088561
H5    H     H_    0.787904 0.330488 0.985515 0.097649
H6    H     H_    0.774641 0.428020 0.801508 0.103732
H7    H     H_    0.742251 0.462490 0.922883 0.116943
H8    H     H_    0.969920 0.038849 0.816872 0.123897
C19   C     C_R   0.697025 0.200476 0.220913 0.109342
C20   C     C_R   0.861549 0.194464 0.180592 -0.069355
C21   C     C_R   0.016366 0.258174 0.206513 -0.115433
H9    H     H_    0.136895 0.264122 0.174099 0.118470
C22   C     C_R   0.011914 0.318516 0.273058 -0.172487
H10   H     H_    0.130165 0.369404 0.290451 0.123036
C23   C     C_R   0.850633 0.318201 0.315177 -0.108024
C24   C     C_R   0.692776 0.259417 0.287500 0.118316
C25   C     C_3   0.499551 0.299338 0.278545 -0.407726
C26   C     C_3   0.509535 0.242309 0.205712 -0.452294
H11   H     H_    0.497862 0.382229 0.284460 0.161835
H12   H     H_    0.390787 0.268938 0.308995 0.189249
H13   H     H_    0.523402 0.291903 0.169299 0.163174
H14   H     H_    0.397860 0.184637 0.192504 0.203052
C27   C     C_R   0.492636 0.760510 0.702017 0.010570
C28   C     C_R   0.350014 0.687095 0.682938 -0.093314
C29   C     C_R   0.196391 0.687933 0.728902 -0.120037
H15   H     H_    0.079019 0.634821 0.715748 0.114129
C30   C     C_R   0.198577 0.752891 0.794072 -0.196367
H16   H     H_    0.083353 0.747929 0.829138 0.120893
C31   C     C_R   0.355282 0.818134 0.815303 -0.093562
C32   C     C_R   0.496337 0.823085 0.766647 0.092103
C33   C     C_3   0.709985 0.821086 0.769936 -0.465848
C34   C     C_3   0.705938 0.753938 0.698389 -0.156738
H17   H     H_    0.760289 0.781703 0.808892 0.169695
H18   H     H_    0.774275 0.896542 0.773502 0.164991
H19   H     H_    0.759014 0.676582 0.695225 0.140609
C35   C     C_R   0.415632 0.889446 0.396072 0.158338
H20   H     H_    0.413193 0.831707 0.486691 0.110771
H21   H     H_    0.386673 0.017223 0.313841 0.152890
C36   C     C_R   0.361193 0.715343 0.397876 -0.058256
C37   C     C_R   0.358583 0.687113 0.072636 -0.154999
C38   C     C_R   0.367152 0.611908 0.108168 -0.125242
C39   C     C_R   0.373925 0.635851 0.178617 -0.148002
C40   C     C_R   0.368162 0.736912 0.216070 0.091408
C41   C     C_R   0.360697 0.815050 0.179678 0.002880
C42   C     C_R   0.371844 0.762114 0.288703 0.049100
C43   C     C_R   0.393646 0.864114 0.324219 0.078738
C44   C     C_R   0.383588 0.938818 0.287814 -0.189593
C45   C     C_R   0.355146 0.916118 0.217968 -0.050763
C46   C     C_R   0.350269 0.689063 0.327389 -0.225746
C47   C     C_R   0.398988 0.813799 0.431875 -0.180350
C48   C     C_R   0.356808 0.788059 0.106933 -0.071621
H22   H     H_    0.320159 0.611251 0.304552 0.093512
H23   H     H_    0.357299 0.666434 0.017638 0.097054
H24   H     H_    0.389074 0.573210 0.202166 0.100990
H25   H     H_    0.372032 0.534097 0.080774 0.114203
O11   O     O_R   0.203450 0.916320 0.913910 -0.542569
O12   O     O_R   0.535520 0.888300 0.047620 -0.542346
O13   O     O_R   0.710860 0.083650 0.086100 -0.550738
C49   C     C_R   0.366189 0.861698 0.064354 0.659254
O14   O     O_R   0.532860 0.904250 0.912040 -0.541034
O15   O     O_R   0.708190 0.099710 0.949550 -0.537645
C50   C     C_R   0.364382 0.883012 0.884719 0.697130
O16   O     O_R   0.206120 0.900260 0.050460 -0.533707
O17   O     O_3   0.375280 0.064080 0.012470 -0.378568
V3    V     V_3+5 0.648180 0.988110 0.997690 1.413982
O18   O     O_R   0.038220 0.111740 0.952370 -0.545340
C51   C     C_R   0.869726 0.138036 0.935608 0.675781
O19   O     O_R   0.040880 0.095790 0.087940 -0.531195
C52   C     C_R   0.871530 0.121800 0.113536 0.722041
V4    V     V_3+5 0.148800 0.011950 0.002300 1.427503
O20   O     O_3   0.871820 0.935920 0.987530 -0.370119
C53   C     C_2   0.785795 0.804394 0.645486 0.399737
H26   H     H_    0.729878 0.876248 0.640499 0.035376
O21   O     O_2   0.914166 0.765156 0.607797 -0.523166
C54   C     C_3   0.457972 0.995177 0.436549 -0.371562
C55   C     C_3   0.273138 0.053882 0.456202 -0.746746
H27   H     H_    0.191571 0.061040 0.410560 0.229240
H28   H     H_    0.181327 0.015052 0.487319 0.227598
H29   H     H_    0.308241 0.130316 0.486504 0.223580
H30   H     H_    0.536261 0.992505 0.483928 0.183115
H31   H     H_    0.555622 0.035773 0.408342 0.171309
C56   C     C_2   0.301231 0.001715 0.190020 0.355680
H32   H     H_    0.385126 0.022496 0.150338 0.059283
O22   O     O_2   0.163597 0.052439 0.213755 -0.542296

loop_
_geom_bond_atom_site_label_1
_geom_bond_atom_site_label_2
_ccdc_geom_bond_type
C54   H30   S    
C40   C42   A    
C40   C41   A    
C28   C29   A    
C1    O6    A    
C20   C52   S    
C56   O22   D    
O14   V3    S    
C25   H11   S    
C44   C45   A    
C7    H5    S    
C6    C16   A    
C9    H6    S    
C4    C6    S    
C13   C14   A    
O5    C3    A    
C30   C31   A    
C55   H27   S    
V2    O10   S    
C5    H3    S    
C15   H8    S    
C21   H9    S    
C33   H17   S    
C37   C48   A    
C38   H25   S    
O8    V2    S    
C26   H13   S    
O12   V3    S    
C8    C9    A    
C37   C38   A    
O1    V2    S    
O11   V4    S    
O7    V1    S    
C48   C49   S    
C54   H31   S    
O13   V3    S    
C31   C32   A    
O9    C4    A    
C21   C22   A    
C53   H26   S    
C56   H32   S    
C27   C32   A    
C25   H12   S    
C6    C17   A    
C12   C16   A    
C43   C44   A    
C19   C20   A    
O4    C2    A    
C3    C23   S    
C10   C11   A    
C23   C24   A    
O15   C51   A    
C32   C33   S    
C33   H18   S    
O2    C1    A    
C42   C43   A    
O5    V1    S    
C14   C15   A    
C8    H7    S    
C27   C34   S    
C11   C18   A    
O14   C50   A    
C25   C26   S    
O9    V2    S    
O17   V4    S    
C35   C43   A    
O18   C51   A    
C29   H15   S    
C16   H4    S    
O17   V3    S    
C9    C10   A    
C53   O21   D    
C37   H23   S    
C22   C23   A    
O16   V4    S    
C39   H24   S    
O3    C4    A    
C19   C24   A    
C20   C21   A    
C11   C15   A    
O6    V2    S    
O19   V4    S    
O12   C49   A    
C22   H10   S    
C36   C46   A    
H1    C17   S    
C35   C54   S    
O2    V1    S    
H21   C44   S    
C7    C18   A    
C24   C25   S    
C34   H19   S    
C1    C28   S    
O1    C2    A    
C5    C13   A    
H20   C47   S    
C39   C40   A    
C2    C36   S    
C46   H22   S    
C45   C56   S    
O8    C3    A    
C27   C28   A    
C10   C12   A    
C35   C47   A    
C54   C55   S    
C29   C30   A    
O7    V2    S    
O4    V1    S    
O3    V1    S    
O11   C50   A    
C30   H16   S    
C55   H28   S    
O18   V4    S    
V4    O20   S    
C18   C51   S    
C31   C50   S    
C49   O16   A    
C33   C34   S    
O13   C52   A    
O15   V3    S    
C26   H14   S    
C38   C39   A    
O19   C52   A    
C41   C45   A    
C12   C13   A    
C5    C17   A    
C7    C8    A    
C36   C47   A    
V1    O10   S    
C41   C48   A    
C42   C46   A    
V3    O20   S    
C19   C26   S    
C34   C53   S    
C55   H29   S    
H2    C14   S    
