data_mof_unit_14649.cif
_audit_creation_date              2012-12-10T17:17:25-0500
_audit_creation_method            fapswitch 2.2
_symmetry_space_group_name_H-M    P1
_symmetry_Int_Tables_number       1
_space_group_crystal_system       triclinic
_cell_length_a                    21.641601
_cell_length_b                    21.778771
_cell_length_c                    21.745754
_cell_angle_alpha                 90.181115
_cell_angle_beta                  88.671782
_cell_angle_gamma                 93.504211
_cell_volume                      10227.4437747

loop_
_atom_site_label
_atom_site_type_symbol
_atom_type_description
_atom_site_fract_x
_atom_site_fract_y
_atom_site_fract_z
_atom_type_partial_charge
C1    C     C_R   0.502206 0.120259 0.003965 0.955474
C2    C     C_R   0.500340 0.999814 0.879633 0.897619
C3    C     C_R   0.264196 0.367426 0.120003 -0.032378
C4    C     C_R   0.905565 0.636877 0.726251 -0.075862
C5    C     C_R   0.724671 0.579556 0.158696 -0.083543
C6    C     C_R   0.122843 0.609995 0.265448 -0.052362
C7    C     C_R   0.281039 0.600300 0.878975 -0.027093
C8    C     C_R   0.607597 0.736775 0.870564 -0.014627
C9    C     C_R   0.601508 0.137151 0.733099 -0.088881
C10   C     C_R   0.640088 0.300570 0.100880 -0.088009
C11   C     C_R   0.660432 0.963226 0.278928 -0.053844
C12   C     C_R   0.378252 0.266157 0.892958 -0.087340
C13   C     C_R   0.992767 0.500094 0.120225 0.916439
C14   C     C_R   0.375172 0.874761 0.734701 -0.063363
C15   C     C_R   0.400118 0.699703 0.140265 -0.139257
C16   C     C_R   0.333923 0.038806 0.290265 0.025600
C17   C     C_R   0.286926 0.102019 0.626109 -0.086520
C18   C     C_R   0.889636 0.251982 0.622339 -0.044650
C19   C     C_R   0.706940 0.850636 0.585604 -0.090725
C20   C     C_R   0.153284 0.741764 0.564834 -0.043122
C21   C     C_R   0.730908 0.174384 0.499791 -0.053186
C22   C     C_R   0.075880 0.297843 0.343504 -0.011758
C23   C     C_R   0.262554 0.843450 0.416407 -0.053297
C24   C     C_R   0.498647 0.997745 0.120537 0.983785
C25   C     C_R   0.874407 0.712530 0.383187 -0.153505
C26   C     C_R   0.459545 0.954652 0.721347 -0.043008
C27   C     C_R   0.278677 0.946870 0.461722 0.021614
C28   C     C_R   0.553198 0.994015 0.280946 0.056036
C29   C     C_R   0.714819 0.955696 0.545640 0.090476
C30   C     C_R   0.445358 0.025389 0.284491 0.001477
C31   C     C_R   0.282259 0.027868 0.541521 0.111675
C32   C     C_R   0.534465 0.044031 0.719400 0.036128
C33   C     C_R   0.721797 0.062984 0.515432 0.001777
C34   C     C_R   0.035458 0.285164 0.447113 -0.041338
C35   C     C_R   0.002585 0.619996 0.494072 0.932064
C36   C     C_R   0.040152 0.527994 0.277578 0.073725
C37   C     C_R   0.055550 0.722760 0.511631 -0.015066
C38   C     C_R   0.036147 0.459562 0.718782 0.069191
C39   C     C_R   0.966131 0.714484 0.445198 0.094391
C40   C     C_R   0.964161 0.439205 0.281424 -0.054150
C41   C     C_R   0.962162 0.274370 0.535250 -0.020772
C42   C     C_R   0.970660 0.548345 0.719836 0.047957
C43   C     C_R   0.718821 0.545593 0.050677 0.068695
C44   C     C_R   0.456826 0.713728 0.043512 0.115331
C45   C     C_R   0.276597 0.458731 0.054334 -0.058060
C46   C     C_R   0.501480 0.620358 0.000276 0.895725
C47   C     C_R   0.553437 0.286384 0.031201 0.077534
C48   C     C_R   0.278985 0.526082 0.962974 0.009089
C49   C     C_R   0.535468 0.724043 0.959436 -0.007304
C50   C     C_R   0.721631 0.491419 0.950830 -0.022720
C51   C     C_R   0.460998 0.276586 0.967682 0.054404
C52   C     C_R   0.956596 0.446321 0.217575 0.087649
C53   C     C_R   0.774395 0.463803 0.969227 -0.062137
C54   C     C_R   0.047726 0.471816 0.780350 0.047225
C55   C     C_R   0.211952 0.463252 0.056769 0.093718
C56   C     C_R   0.958639 0.536929 0.781924 0.067214
C57   C     C_R   0.998238 0.379387 0.497722 0.887903
C58   C     C_R   0.783468 0.540667 0.051222 0.009558
C59   C     C_R   0.015834 0.546421 0.222509 0.026724
C60   C     C_R   0.224406 0.548933 0.984910 -0.043306
C61   C     C_R   0.517225 0.783177 0.950228 0.093549
C62   C     C_R   0.550034 0.026496 0.777598 -0.004040
C63   C     C_R   0.547498 0.222938 0.043172 0.022012
C64   C     C_R   0.546178 0.974672 0.220382 0.046509
C65   C     C_R   0.475113 0.216522 0.956513 0.066534
C66   C     C_R   0.447531 0.972927 0.781288 -0.050779
C67   C     C_R   0.454543 0.777957 0.047004 -0.018730
C68   C     C_R   0.501705 0.380016 0.999995 0.985753
C69   C     C_R   0.443243 0.020204 0.220169 0.131963
C70   C     C_R   0.223076 0.043654 0.528526 0.007129
C71   C     C_R   0.989144 0.219832 0.548508 -0.044410
C72   C     C_R   0.774699 0.948166 0.522462 0.060937
C73   C     C_R   0.037580 0.779338 0.532807 -0.046123
C74   C     C_R   0.781972 0.057794 0.491010 -0.050851
C75   C     C_R   0.037030 0.220546 0.443946 0.105985
C76   C     C_R   0.214629 0.953771 0.458085 -0.052727
C77   C     C_R   0.968797 0.779016 0.443714 -0.058841
C78   C     C_R   0.497461 0.999100 0.686644 -0.174847
C79   C     C_R   0.379157 0.493451 0.000942 0.937569
C80   C     C_R   0.312970 0.989785 0.499639 -0.094385
C81   C     C_R   0.499265 0.007835 0.314335 -0.102118
C82   C     C_R   0.685355 0.008332 0.528499 -0.175571
C83   C     C_R   0.995519 0.312393 0.491357 -0.113379
C84   C     C_R   0.003394 0.483879 0.312690 -0.226313
C85   C     C_R   0.009912 0.685844 0.480782 -0.174049
C86   C     C_R   0.000899 0.502141 0.686774 -0.098745
C87   C     C_R   0.687421 0.521349 0.997768 -0.195088
C88   C     C_R   0.499427 0.686958 0.001893 -0.102097
C89   C     C_R   0.310998 0.489435 0.004353 -0.211839
C90   C     C_R   0.379855 0.997339 0.496885 0.898842
C91   C     C_R   0.504850 0.313627 0.000243 -0.091622
C92   C     C_R   0.982807 0.500456 0.187691 -0.214654
C93   C     C_R   0.811521 0.497178 0.011859 -0.144391
C94   C     C_R   0.001555 0.502133 0.813572 -0.106652
C95   C     C_R   0.185644 0.508270 0.020672 -0.173308
C96   C     C_R   0.487940 0.813018 0.999915 -0.111268
C97   C     C_R   0.499912 0.999174 0.813058 -0.248133
C98   C     C_R   0.508637 0.186929 0.002062 -0.106323
C99   C     C_R   0.495039 0.995910 0.187664 -0.073859
C100  C     C_R   0.187075 0.001692 0.492245 -0.150810
C101  C     C_R   0.620057 0.509066 0.999327 0.831749
C102  C     C_R   0.015393 0.187428 0.498386 -0.170570
C103  C     C_R   0.810634 0.001073 0.499819 -0.136530
C104  C     C_R   0.998874 0.811808 0.494036 -0.223524
C105  C     C_2   0.693224 0.131637 0.802773 0.641278
C106  C     C_2   0.206461 0.180495 0.636852 0.554934
C107  C     C_2   0.273667 0.004083 0.195326 0.564072
C108  C     C_2   0.814696 0.221334 0.430044 0.526713
C109  C     C_2   0.695651 0.891593 0.195276 0.513162
C110  C     C_2   0.153040 0.804377 0.390880 0.538077
C111  C     C_2   0.290034 0.891700 0.813449 0.656717
C112  C     C_R   0.005394 0.120411 0.499575 0.841280
C113  C     C_R   0.619215 0.002184 0.510669 0.848476
C114  C     C_2   0.782347 0.774552 0.545670 0.481954
C115  C     C_2   0.919617 0.180736 0.706581 0.608073
C116  C     C_2   0.904086 0.285513 0.167035 0.544898
C117  C     C_2   0.851770 0.803448 0.317968 0.681740
C118  C     C_2   0.829933 0.644127 0.816335 0.514686
C119  C     C_2   0.157038 0.815173 0.655035 0.609044
C120  C     C_2   0.106878 0.699188 0.194499 0.580249
C121  C     C_2   0.068500 0.205923 0.271392 0.563168
C122  C     C_2   0.185366 0.375281 0.807421 0.529876
C123  C     C_2   0.769966 0.327026 0.859321 0.555002
C124  C     C_R   0.498258 0.001085 0.380232 0.908445
C125  C     C_2   0.595746 0.823578 0.796075 0.433098
C126  C     C_2   0.229119 0.699552 0.895889 0.602624
C127  C     C_2   0.377842 0.179523 0.816629 0.511754
C128  C     C_2   0.155689 0.313641 0.124812 0.608066
C129  C     C_2   0.374613 0.791701 0.204884 0.590048
C130  C     C_2   0.830150 0.594092 0.206453 0.553943
C131  C     C_2   0.663262 0.216341 0.174600 0.507685
C132  C     C_2   0.186608 0.635719 0.277758 0.598574
C133  C     C_2   0.691619 0.586763 0.219131 0.529572
C134  C     C_2   0.883560 0.694099 0.698993 0.548287
C135  C     C_R   0.000643 0.491439 0.380037 0.893169
C136  C     C_2   0.305545 0.623091 0.818311 0.614087
C137  C     C_2   0.140746 0.327525 0.688678 0.534429
C138  C     C_2   0.698124 0.415187 0.794261 0.627383
C139  C     C_2   0.914713 0.269112 0.301415 0.612712
C140  C     C_2   0.292535 0.317921 0.154577 0.611955
C141  C     C_2   0.384000 0.654649 0.190473 0.552214
C142  C     C_2   0.345983 0.813017 0.719928 0.567758
C143  C     C_2   0.324015 0.291381 0.863212 0.538522
C144  C     C_2   0.277083 0.051904 0.326177 0.573927
C145  C     C_2   0.686645 0.343250 0.130993 0.503641
C146  C     C_R   0.498644 0.999790 0.620216 0.892905
C147  C     C_2   0.617895 0.203515 0.722130 0.592611
C148  C     C_2   0.654725 0.709578 0.828842 0.565747
C149  C     C_2   0.720954 0.960905 0.309681 0.509463
C150  C     C_2   0.288191 0.782676 0.403016 0.558440
C151  C     C_2   0.098294 0.340078 0.293630 0.567884
C152  C     C_2   0.705402 0.235727 0.508127 0.556363
C153  C     C_2   0.814143 0.678193 0.372227 0.581579
C154  C     C_2   0.670683 0.801135 0.619920 0.539885
C155  C     C_2   0.826451 0.254566 0.650353 0.554915
C156  C     C_2   0.321495 0.130797 0.677752 0.534439
C157  C     C_R   0.999822 0.500903 0.620233 0.977226
C158  C     C_2   0.220663 0.733826 0.570168 0.560922
C159  C     C_2   0.355673 0.014939 0.834518 0.449981
C160  C     C_2   0.152238 0.940771 0.363331 0.527009
C161  C     C_2   0.572963 0.889966 0.146571 0.391663
C162  C     C_2   0.845371 0.872306 0.477900 0.365620
C163  C     C_2   0.383590 0.082720 0.144108 0.503514
C164  C     C_2   0.159718 0.135560 0.517999 0.410123
C165  C     C_2   0.646927 0.000360 0.827741 0.505741
C166  C     C_2   0.852139 0.097217 0.404511 0.466429
C167  C     C_2   0.091625 0.136826 0.380448 0.413993
C168  C     C_R   0.386112 0.962406 0.804611 -0.064446
C169  C     C_2   0.981192 0.642025 0.174097 0.476400
C170  C     C_2   0.020549 0.824901 0.636329 0.467000
C171  C     C_2   0.132585 0.484174 0.858130 0.375604
C172  C     C_2   0.980669 0.846093 0.349740 0.559608
C173  C     C_2   0.882492 0.412883 0.134619 0.376465
C174  C     C_2   0.040356 0.173260 0.637494 0.418019
C175  C     C_2   0.871251 0.528192 0.859409 0.374122
C176  C     C_2   0.848211 0.635133 0.070260 0.467546
C177  C     C_2   0.382059 0.857487 0.089121 0.453275
C178  C     C_2   0.126606 0.448514 0.136641 0.410423
C179  C     C_R   0.180589 0.913340 0.418028 -0.177531
C180  C     C_2   0.574488 0.137715 0.116968 0.361862
C181  C     C_2   0.176227 0.646269 0.014138 0.442405
C182  C     C_2   0.484541 0.851970 0.866473 0.388397
C183  C     C_2   0.817280 0.360754 0.980647 0.420956
C184  C     C_2   0.495066 0.145753 0.868036 0.414867
C185  C     C_2   0.904426 0.385288 0.368315 0.443782
C186  C     C_2   0.675349 0.534476 0.857257 0.389122
C187  C     C_2   0.027108 0.372873 0.643228 0.377862
C188  C     C_2   0.350048 0.444333 0.141138 0.518042
C189  C     C_2   0.984301 0.632828 0.640511 0.363976
C190  C     C_R   0.590335 0.934508 0.195651 -0.078074
C191  C     C_2   0.632357 0.605215 0.103076 0.377067
C192  C     C_2   0.142222 0.516040 0.327043 0.461838
C193  C     C_2   0.323340 0.494683 0.861616 0.419317
C194  C     C_2   0.631092 0.664562 0.954492 0.415251
C195  C     C_2   0.501567 0.141647 0.674208 0.508144
C196  C     C_2   0.636859 0.368613 0.009723 0.366399
C197  C     C_2   0.629793 0.040332 0.357120 0.420246
C198  C     C_2   0.371948 0.344220 0.976630 0.340630
C199  C     C_2   0.460628 0.856513 0.659074 0.452867
C200  C     C_2   0.371858 0.631238 0.053458 0.424160
C201  C     C_R   0.794725 0.887308 0.519919 -0.103706
C202  C     C_2   0.403025 0.101195 0.360208 0.454621
C203  C     C_2   0.350260 0.010214 0.630232 0.391840
C204  C     C_2   0.863770 0.331791 0.547000 0.523887
C205  C     C_2   0.637436 0.928074 0.630585 0.421399
C206  C     C_2   0.147431 0.667176 0.474955 0.547661
C207  C     C_2   0.651836 0.128829 0.576054 0.421361
C208  C     C_2   0.129770 0.353124 0.427600 0.569140
C209  C     C_2   0.365603 0.894132 0.402875 0.379714
C210  C     C_2   0.942279 0.628142 0.371100 0.454812
C211  C     C_R   0.386497 0.034699 0.192385 -0.079567
C212  C     C_R   0.497084 0.879652 0.003185 0.930366
C213  C     C_R   0.203420 0.100443 0.552669 -0.094532
C214  C     C_R   0.609010 0.046752 0.798475 -0.044694
C215  C     C_R   0.810039 0.108921 0.457706 -0.141785
C216  C     C_R   0.060945 0.195489 0.386838 -0.049863
C217  C     C_R   0.030455 0.607847 0.202978 -0.084567
C218  C     C_R   0.063669 0.801912 0.588065 -0.100588
C219  C     C_R   0.102458 0.450849 0.806118 -0.085281
C220  C     C_R   0.941006 0.805705 0.391625 -0.090075
C221  C     C_R   0.922730 0.398726 0.185549 -0.056823
C222  C     C_R   0.984633 0.198556 0.610090 -0.081040
C223  C     C_R   0.998618 0.879184 0.499098 0.849573
C224  C     C_R   0.905710 0.561879 0.809485 -0.075099
C225  C     C_R   0.816835 0.576992 0.094502 -0.135559
C226  C     C_R   0.417654 0.802171 0.096574 -0.035963
C227  C     C_R   0.175827 0.423934 0.097085 -0.105031
C228  C     C_R   0.582470 0.200736 0.093116 -0.064284
C229  C     C_R   0.210430 0.609205 0.968013 -0.020054
C230  C     C_R   0.529159 0.810486 0.891811 -0.110876
C231  C     C_R   0.787965 0.406586 0.942413 -0.003021
C232  C     C_R   0.455530 0.189286 0.900403 -0.095301
C233  C     C_R   0.938753 0.383616 0.309173 -0.162423
C234  C     C_R   0.879035 0.001400 0.500167 0.903372
C235  C     C_R   0.703109 0.482432 0.889061 -0.035260
C236  C     C_R   0.060753 0.406334 0.692324 -0.085000
C237  C     C_R   0.301379 0.419604 0.099207 -0.033034
C238  C     C_R   0.951127 0.603958 0.694432 -0.084118
C239  C     C_R   0.690743 0.573573 0.103850 -0.072150
C240  C     C_R   0.099300 0.554691 0.294344 -0.055082
C241  C     C_R   0.299033 0.543395 0.902614 -0.045791
C242  C     C_R   0.588547 0.705806 0.925709 -0.108820
C243  C     C_R   0.550165 0.106323 0.703301 -0.121723
C244  C     C_R   0.607445 0.320475 0.050211 -0.092460
C245  C     C_R   0.879322 0.498513 0.004873 0.909038
C246  C     C_R   0.613280 0.996658 0.306630 -0.127412
C247  C     C_R   0.405869 0.297434 0.943178 -0.076695
C248  C     C_R   0.428837 0.898346 0.701362 -0.022498
C249  C     C_R   0.415289 0.677581 0.081750 -0.102145
C250  C     C_R   0.393104 0.049180 0.316242 -0.120460
C251  C     C_R   0.308769 0.049429 0.597046 -0.097520
C252  C     C_R   0.907409 0.287958 0.569715 -0.069866
C253  C     C_R   0.685603 0.910556 0.585125 -0.071591
C254  C     C_R   0.117570 0.707436 0.520976 -0.083561
C255  C     C_R   0.699916 0.122042 0.526876 -0.023049
C256  C     C_R   0.120273 0.999745 0.498441 0.838362
C257  C     C_R   0.072658 0.320180 0.403979 -0.181359
C258  C     C_R   0.303017 0.894664 0.430593 -0.056333
C259  C     C_R   0.923224 0.681533 0.407007 -0.111028
C260  C     C_R   0.350650 0.910179 0.783273 -0.027165
C261  C     C_R   0.199036 0.852883 0.411529 0.006484
C262  C     C_R   0.648145 0.929987 0.224110 -0.091320
C263  C     C_R   0.760786 0.838250 0.550704 -0.050488
C264  C     C_R   0.331534 0.024615 0.227084 -0.121584
C265  C     C_R   0.234179 0.128552 0.603324 -0.009278
C266  C     C_R   0.634986 0.104236 0.776568 -0.012942
C267  C     C_R   0.119699 0.502273 0.006921 0.936841
C268  C     C_R   0.785123 0.167584 0.463514 -0.065754
C269  C     C_R   0.067539 0.233828 0.334287 -0.114036
C270  C     C_R   0.085987 0.638923 0.222505 -0.018367
C271  C     C_R   0.124187 0.785628 0.602340 -0.057469
C272  C     C_R   0.133070 0.402875 0.776689 -0.059137
C273  C     C_R   0.887307 0.774664 0.366925 -0.058134
C274  C     C_R   0.919442 0.338469 0.208631 -0.104390
C275  C     C_R   0.931753 0.211431 0.646103 -0.046517
C276  C     C_R   0.880408 0.613606 0.782927 -0.062908
C277  C     C_R   0.789826 0.580442 0.153664 0.094154
C278  C     C_R   0.000235 0.500279 0.879982 0.990120
C279  C     C_R   0.400419 0.764089 0.147940 -0.019442
C280  C     C_R   0.199394 0.368203 0.114140 -0.147653
C281  C     C_R   0.626743 0.240471 0.123360 -0.043186
C282  C     C_R   0.240326 0.635793 0.914672 -0.011540
C283  C     C_R   0.576552 0.789046 0.852894 -0.049252
C284  C     C_R   0.760124 0.388614 0.886180 -0.008699
C285  C     C_R   0.405009 0.212859 0.869805 -0.064151
C286  C     C_R   0.927294 0.330502 0.272134 -0.029406
C287  C     C_R   0.721602 0.429488 0.856738 -0.014671
C288  C     C_R   0.110766 0.379060 0.720172 -0.068667
H1    H     H_    0.703209 0.124453 0.850779 0.104389
H2    H     H_    0.870126 0.288683 0.131526 0.048407
H3    H     H_    0.847500 0.852685 0.317422 0.168476
H4    H     H_    0.789331 0.617213 0.833355 0.034018
H5    H     H_    0.150918 0.863065 0.666099 0.109711
H6    H     H_    0.096881 0.708369 0.146835 0.093019
H7    H     H_    0.076743 0.157690 0.265034 0.079515
H8    H     H_    0.221967 0.404370 0.827622 0.013729
H9    H     H_    0.815926 0.309965 0.856302 0.145818
H10   H     H_    0.561838 0.835233 0.762844 -0.000845
H11   H     H_    0.182297 0.714397 0.893851 0.127019
H12   H     H_    0.185458 0.216757 0.612522 0.091676
H13   H     H_    0.407194 0.165200 0.778872 0.008497
H14   H     H_    0.106350 0.319210 0.129587 0.059610
H15   H     H_    0.398345 0.831945 0.225093 0.114224
H16   H     H_    0.867643 0.564849 0.215583 0.017568
H17   H     H_    0.641014 0.185818 0.208860 0.121810
H18   H     H_    0.202083 0.641662 0.324564 0.155327
H19   H     H_    0.645273 0.603043 0.221270 0.051812
H20   H     H_    0.915662 0.726096 0.674632 0.008907
H21   H     H_    0.353585 0.617784 0.805150 0.104444
H22   H     H_    0.112880 0.290175 0.668166 0.030674
H23   H     H_    0.272003 0.005591 0.145541 0.039856
H24   H     H_    0.650891 0.424084 0.783148 0.110830
H25   H     H_    0.941400 0.256425 0.340425 0.072913
H26   H     H_    0.338259 0.304059 0.141323 0.128309
H27   H     H_    0.373844 0.606519 0.179738 0.015244
H28   H     H_    0.338867 0.799042 0.672665 0.161581
H29   H     H_    0.286266 0.308039 0.890979 0.040789
H30   H     H_    0.273666 0.041328 0.374772 0.073093
H31   H     H_    0.721715 0.369532 0.104181 0.019727
H32   H     H_    0.620557 0.221921 0.675913 0.142985
H33   H     H_    0.690814 0.683038 0.846924 0.096970
H34   H     H_    0.864454 0.230189 0.430942 0.110863
H35   H     H_    0.744513 0.002750 0.326690 0.028507
H36   H     H_    0.332946 0.779931 0.380041 0.073999
H37   H     H_    0.077846 0.383727 0.288400 -0.017967
H38   H     H_    0.657276 0.242032 0.498484 0.139345
H39   H     H_    0.810490 0.628350 0.374348 0.059423
H40   H     H_    0.656051 0.808382 0.667219 0.100958
H41   H     H_    0.806098 0.298095 0.658767 0.162684
H42   H     H_    0.336561 0.102759 0.714912 0.023739
H43   H     H_    0.238086 0.688388 0.573116 0.145753
H44   H     H_    0.382444 0.057707 0.842103 0.062405
H45   H     H_    0.682309 0.846779 0.176198 0.074179
H46   H     H_    0.155063 0.990282 0.357236 0.126301
H47   H     H_    0.606179 0.877935 0.111103 0.084630
H48   H     H_    0.878054 0.840366 0.492505 0.026421
H49   H     H_    0.341695 0.086793 0.118399 0.037133
H50   H     H_    0.120153 0.112734 0.497964 0.057539
H51   H     H_    0.626781 0.954135 0.835713 0.101151
H52   H     H_    0.844087 0.055553 0.377613 0.114464
H53   H     H_    0.066835 0.096197 0.362296 0.093865
H54   H     H_    0.941655 0.616907 0.155281 0.083701
H55   H     H_    0.971331 0.824152 0.627425 0.079041
H56   H     H_    0.105975 0.804110 0.408805 0.005587
H57   H     H_    0.159320 0.460081 0.890802 0.026491
H58   H     H_    0.030377 0.845859 0.352790 0.110224
H59   H     H_    0.880799 0.384186 0.094164 0.065189
H60   H     H_    0.078841 0.162026 0.607928 0.052363
H61   H     H_    0.843143 0.551938 0.892524 0.041733
H62   H     H_    0.854300 0.642075 0.021059 0.114635
H63   H     H_    0.356511 0.862943 0.047339 0.109559
H64   H     H_    0.093814 0.417950 0.161921 0.060016
H65   H     H_    0.602473 0.102726 0.097557 0.112788
H66   H     H_    0.167589 0.628207 0.060255 0.096953
H67   H     H_    0.283411 0.898404 0.862575 0.100693
H68   H     H_    0.497676 0.880126 0.827417 0.022978
H69   H     H_    0.805313 0.357850 0.029169 0.031740
H70   H     H_    0.477088 0.117145 0.831246 -0.012824
H71   H     H_    0.875865 0.423218 0.378787 0.131760
H72   H     H_    0.662808 0.574074 0.883491 0.062280
H73   H     H_    0.051100 0.345755 0.609544 0.030799
H74   H     H_    0.353026 0.493113 0.151895 0.049165
H75   H     H_    0.959632 0.658872 0.607682 0.038675
H76   H     H_    0.590687 0.584009 0.124502 0.098403
H77   H     H_    0.138781 0.466877 0.320086 0.110756
H78   H     H_    0.802419 0.758586 0.502773 0.046002
H79   H     H_    0.325598 0.448347 0.879102 0.052685
H80   H     H_    0.614133 0.622048 0.974726 0.045188
H81   H     H_    0.454941 0.120861 0.671069 0.034261
H82   H     H_    0.669422 0.402840 0.027941 0.037898
H83   H     H_    0.661737 0.028157 0.392041 0.028362
H84   H     H_    0.341232 0.373393 0.953501 0.014419
H85   H     H_    0.509154 0.849603 0.664805 0.033409
H86   H     H_    0.341817 0.600443 0.081469 0.041142
H87   H     H_    0.446028 0.129517 0.357480 0.133320
H88   H     H_    0.381747 0.029609 0.663774 -0.004908
H89   H     H_    0.934223 0.134597 0.713904 0.093696
H90   H     H_    0.849505 0.329697 0.499862 0.147811
H91   H     H_    0.602814 0.894495 0.648053 0.026462
H92   H     H_    0.129583 0.663825 0.428719 0.098813
H93   H     H_    0.649541 0.097541 0.614785 0.119303
H94   H     H_    0.141185 0.348615 0.475695 0.099421
H95   H     H_    0.399294 0.864788 0.421612 0.109028
H96   H     H_    0.908292 0.595579 0.351436 0.062701
O1    O     O_R   0.551740 0.091630 0.999970 -0.624825
O2    O     O_R   0.908370 0.448260 0.000030 -0.594784
O3    O     O_2   0.848320 0.893023 0.425841 -0.556442
O4    O     O_2   0.426758 0.120243 0.134521 -0.529031
O5    O     O_2   0.170005 0.190404 0.507921 -0.561453
O6    O     O_2   0.700874 0.011534 0.841165 -0.561773
O7    O     O_2   0.895602 0.132940 0.390004 -0.586245
O8    O     O_2   0.147441 0.136045 0.386510 -0.497260
O9    O     O_2   0.982041 0.698126 0.174111 -0.503035
O10   O     O_2   0.038037 0.843034 0.686516 -0.555858
O11   O     O_2   0.130210 0.539844 0.863040 -0.558724
O12   O     O_2   0.959172 0.880393 0.312647 -0.542551
O13   O     O_R   0.908370 0.999970 0.448260 -0.572671
O14   O     O_2   0.849252 0.455853 0.139084 -0.628159
O15   O     O_2   0.045596 0.167559 0.692909 -0.549703
O16   O     O_2   0.872177 0.472357 0.861995 -0.570386
O17   O     O_2   0.863425 0.677948 0.104167 -0.489864
O18   O     O_2   0.378647 0.895881 0.129835 -0.595001
O19   O     O_2   0.125417 0.503854 0.145237 -0.615941
O20   O     O_2   0.543999 0.127155 0.163985 -0.546620
O21   O     O_2   0.157243 0.696356 0.002238 -0.584131
O22   O     O_2   0.431201 0.851516 0.886122 -0.540613
O23   O     O_2   0.855383 0.327123 0.959129 -0.552402
O24   O     O_R   0.908370 0.551740 0.999970 -0.680779
O25   O     O_2   0.549880 0.144484 0.879620 -0.558340
O26   O     O_2   0.902985 0.342017 0.403468 -0.662525
O27   O     O_2   0.669000 0.535722 0.801682 -0.566571
O28   O     O_2   0.970898 0.373518 0.642135 -0.548628
O29   O     O_2   0.387201 0.411451 0.163664 -0.545413
O30   O     O_2   0.040322 0.630443 0.634245 -0.541043
O31   O     O_2   0.632600 0.658538 0.086163 -0.540828
O32   O     O_2   0.179838 0.537897 0.363252 -0.525789
O33   O     O_2   0.339387 0.504297 0.808195 -0.556755
O34   O     O_2   0.686167 0.679633 0.958370 -0.545972
O35   O     O_R   0.091630 0.999970 0.551740 -0.608694
O36   O     O_2   0.511746 0.193646 0.654275 -0.518387
O37   O     O_2   0.627728 0.367983 0.954517 -0.548856
O38   O     O_2   0.610719 0.091950 0.357766 -0.518397
O39   O     O_2   0.376442 0.348277 0.032163 -0.599337
O40   O     O_2   0.433580 0.830944 0.616537 -0.535349
O41   O     O_2   0.366183 0.630093 0.997763 -0.582642
O42   O     O_2   0.363567 0.114701 0.398035 -0.552254
O43   O     O_2   0.346884 0.954630 0.622332 -0.540856
O44   O     O_2   0.844349 0.371676 0.580591 -0.500517
O45   O     O_2   0.638136 0.980226 0.651316 -0.612331
O46   O     O_R   0.091630 0.551740 0.000030 -0.601322
O47   O     O_2   0.189383 0.635130 0.488419 -0.520823
O48   O     O_2   0.612621 0.166419 0.572154 -0.577162
O49   O     O_2   0.165656 0.383727 0.394215 -0.546388
O50   O     O_2   0.377719 0.921832 0.355204 -0.600166
O51   O     O_2   0.996985 0.623259 0.358741 -0.606831
O52   O     O_R   0.091630 0.000030 0.448260 -0.668273
O53   O     O_R   0.091630 0.448260 0.999970 -0.645386
O54   O     O_R   0.999970 0.448260 0.908370 -0.587387
O55   O     O_R   0.551740 0.999970 0.908370 -0.630016
O56   O     O_R   0.000030 0.551740 0.908370 -0.600624
O57   O     O_R   0.000030 0.091630 0.551740 -0.643731
O58   O     O_R   0.448260 0.000030 0.908370 -0.629672
O59   O     O_R   0.000030 0.448260 0.091630 -0.659522
O60   O     O_R   0.448260 0.999970 0.091630 -0.611928
O61   O     O_R   0.999970 0.551740 0.091630 -0.650319
O62   O     O_R   0.551740 0.000030 0.091630 -0.670430
O63   O     O_R   0.051740 0.591630 0.499970 -0.588676
O64   O     O_R   0.500030 0.591630 0.051740 -0.654041
O65   O     O_R   0.948260 0.591630 0.500030 -0.648475
O66   O     O_R   0.499970 0.591630 0.948260 -0.612511
O67   O     O_R   0.051740 0.408370 0.500030 -0.682129
O68   O     O_R   0.448260 0.091630 0.000030 -0.617335
O69   O     O_R   0.500030 0.408370 0.948260 -0.602869
O70   O     O_R   0.948260 0.408370 0.499970 -0.585778
O71   O     O_R   0.499970 0.408370 0.051740 -0.575178
O72   O     O_R   0.408370 0.500030 0.051740 -0.641059
O73   O     O_R   0.408370 0.948260 0.500030 -0.609764
O74   O     O_R   0.408370 0.499970 0.948260 -0.620251
O75   O     O_R   0.408370 0.051740 0.499970 -0.590785
O76   O     O_R   0.591630 0.499970 0.051740 -0.661531
O77   O     O_R   0.591630 0.051740 0.500030 -0.588951
O78   O     O_R   0.591630 0.500030 0.948260 -0.614110
O79   O     O_R   0.999970 0.091630 0.448260 -0.620964
O80   O     O_R   0.591630 0.948260 0.499970 -0.621181
O81   O     O_R   0.499970 0.948260 0.408370 -0.613604
O82   O     O_R   0.051740 0.499970 0.408370 -0.603212
O83   O     O_R   0.500030 0.051740 0.408370 -0.618256
O84   O     O_R   0.948260 0.500030 0.408370 -0.664087
O85   O     O_R   0.500030 0.948260 0.591630 -0.610974
O86   O     O_R   0.948260 0.499970 0.591630 -0.578765
O87   O     O_R   0.499970 0.051740 0.591630 -0.635823
O88   O     O_R   0.051740 0.500030 0.591630 -0.602544
O89   O     O_2   0.730856 0.161896 0.770920 -0.476350
O90   O     O_R   0.551740 0.908370 0.000030 -0.628126
O91   O     O_2   0.204742 0.182040 0.693009 -0.445414
O92   O     O_2   0.228658 0.981416 0.223759 -0.486778
O93   O     O_2   0.783813 0.255669 0.400900 -0.494930
O94   O     O_2   0.749851 0.910515 0.190847 -0.484340
O95   O     O_2   0.166185 0.766461 0.352083 -0.504790
O96   O     O_2   0.246670 0.870316 0.783662 -0.504513
O97   O     O_2   0.779646 0.739872 0.589698 -0.474393
O98   O     O_2   0.894376 0.207039 0.749061 -0.504359
O99   O     O_2   0.930899 0.238016 0.170946 -0.475735
O100  O     O_2   0.829139 0.772833 0.276096 -0.447306
O101  O     O_R   0.000030 0.908370 0.448260 -0.618120
O102  O     O_2   0.834472 0.699257 0.827075 -0.492831
O103  O     O_2   0.190261 0.786004 0.687173 -0.481226
O104  O     O_2   0.133833 0.739520 0.224531 -0.451175
O105  O     O_2   0.056913 0.235602 0.226024 -0.525372
O106  O     O_2   0.186668 0.319547 0.812265 -0.476266
O107  O     O_2   0.726305 0.294412 0.841023 -0.475274
O108  O     O_2   0.650000 0.840391 0.786725 -0.528149
O109  O     O_2   0.272419 0.736142 0.882915 -0.501964
O110  O     O_2   0.322202 0.166378 0.815658 -0.476379
O111  O     O_2   0.173439 0.261511 0.124452 -0.486898
O112  O     O_R   0.448260 0.908370 0.999970 -0.616415
O113  O     O_2   0.325413 0.771707 0.227774 -0.479581
O114  O     O_2   0.822999 0.639046 0.238822 -0.495940
O115  O     O_2   0.718975 0.228375 0.177602 -0.518397
O116  O     O_2   0.222632 0.649830 0.235364 -0.524287
O117  O     O_2   0.714486 0.571865 0.267236 -0.518091
O118  O     O_2   0.829017 0.705332 0.702068 -0.445837
O119  O     O_2   0.271992 0.646948 0.782140 -0.486768
O120  O     O_2   0.197062 0.327396 0.683843 -0.473058
O121  O     O_2   0.731597 0.394236 0.754445 -0.519713
O122  O     O_2   0.872955 0.233385 0.284164 -0.477676
O123  O     O_R   0.999970 0.908370 0.551740 -0.626734
O124  O     O_2   0.266468 0.294132 0.199683 -0.462189
O125  O     O_2   0.385770 0.669527 0.244587 -0.501390
O126  O     O_2   0.330496 0.776693 0.760879 -0.473080
O127  O     O_2   0.321990 0.295424 0.807308 -0.433907
O128  O     O_2   0.234930 0.077379 0.302511 -0.503428
O129  O     O_2   0.685305 0.350236 0.186733 -0.485007
O130  O     O_2   0.627390 0.238612 0.765223 -0.479504
O131  O     O_2   0.651997 0.713782 0.773008 -0.499926
O132  O     O_2   0.743609 0.911843 0.318558 -0.519407
O133  O     O_2   0.260863 0.734905 0.419994 -0.535785
O134  O     O_R   0.908370 0.000030 0.551740 -0.610986
O135  O     O_2   0.141914 0.327728 0.260292 -0.501704
O136  O     O_2   0.737721 0.279499 0.526369 -0.586407
O137  O     O_2   0.767040 0.705052 0.364568 -0.489533
O138  O     O_2   0.654858 0.752695 0.594752 -0.478264
O139  O     O_2   0.795696 0.207168 0.662649 -0.529082
O140  O     O_2   0.334750 0.186115 0.678149 -0.466662
O141  O     O_2   0.257477 0.778598 0.571029 -0.563546
O142  O     O_2   0.300755 0.012578 0.848932 -0.553199
O143  O     O_2   0.128293 0.909058 0.322967 -0.519661
O144  O     O_2   0.521290 0.864634 0.146967 -0.605075
Zn1   Zn    Zn3+2 0.569090 0.000000 0.000000 1.012995
Zn2   Zn    Zn3+2 0.500000 0.500000 0.930910 1.050516
Zn3   Zn    Zn3+2 0.500000 0.930910 0.500000 1.053982
Zn4   Zn    Zn3+2 0.500000 0.069090 0.500000 1.112459
Zn5   Zn    Zn3+2 0.000000 0.000000 0.569090 1.027199
Zn6   Zn    Zn3+2 0.430910 0.000000 0.000000 1.027711
Zn7   Zn    Zn3+2 0.000000 0.000000 0.430910 1.048636
Zn8   Zn    Zn3+2 1.000000 0.430910 0.000000 1.036958
Zn9   Zn    Zn3+2 1.000000 0.569090 0.000000 1.041417
Zn10  Zn    Zn3+2 0.069090 0.500000 0.500000 1.109720
Zn11  Zn    Zn3+2 0.500000 0.500000 0.069090 1.004599
Zn12  Zn    Zn3+2 0.930910 0.500000 0.500000 1.054277

loop_
_geom_bond_atom_site_label_1
_geom_bond_atom_site_label_2
_ccdc_geom_bond_type
C185  C233  S    
C6    C270  A    
O1    Zn1   S    
C174  C222  S    
C232  C285  A    
C195  H81   S    
C172  O12   D    
O77   Zn4   S    
C208  H94   S    
O67   Zn10  S    
C96   C212  S    
C66   C97   A    
C16   C144  S    
C63   C98   A    
C189  H75   S    
C70   C213  A    
C139  O122  D    
C160  H46   S    
C120  C270  S    
C21   C152  S    
C200  H86   S    
C119  H5    S    
C165  H51   S    
C157  O88   A    
C43   C58   A    
C194  H80   S    
C177  C226  S    
C155  H41   S    
O74   Zn2   S    
O80   Zn3   S    
C161  H47   S    
C112  O79   A    
C196  H82   S    
O56   Zn9   S    
C154  O138  D    
C57   C83   S    
C42   C86   A    
C29   C253  A    
C104  C223  S    
C14   C248  A    
C142  O126  D    
C34   C75   A    
C24   O60   A    
C141  O125  D    
C176  O17   D    
C125  O108  D    
C20   C158  S    
C108  O93   D    
C62   C214  A    
C171  H57   S    
C176  H62   S    
C26   C248  A    
C199  O40   D    
C22   C257  A    
O66   Zn2   S    
C50   C53   A    
C35   O65   A    
C60   C229  A    
C162  C201  S    
C33   C255  A    
C117  C273  S    
C59   C217  A    
C8    C283  A    
C205  O45   D    
C15   C249  A    
C67   C226  A    
C210  C259  S    
C126  O109  D    
C108  H34   S    
C109  O94   D    
C223  O101  A    
C34   C257  A    
O88   Zn10  S    
C51   C247  A    
C174  O15   D    
C13   O61   A    
C200  C249  S    
C233  C286  A    
C198  C247  S    
C114  H78   S    
C111  H67   S    
C7    C241  A    
C61   C230  A    
C207  H93   S    
C31   C251  A    
C144  O128  D    
O13   Zn7   S    
C93   C245  S    
O70   Zn12  S    
C71   C102  A    
C103  C234  S    
C199  H85   S    
C111  C260  S    
C30   C69   A    
C106  C265  S    
C163  C211  S    
C65   C232  A    
C220  C273  A    
C284  C287  A    
C40   C233  A    
O57   Zn5   S    
C72   C103  A    
C76   C100  A    
C12   C247  A    
C119  C271  S    
C146  O87   A    
C151  O135  D    
C175  H61   S    
C32   C62   A    
C29   C82   A    
C38   C236  A    
C125  H10   S    
C179  C261  A    
C116  H2    S    
O101  Zn7   S    
C209  O50   D    
C106  O91   D    
C143  H29   S    
C45   C237  A    
C78   C146  S    
C116  O99   D    
C145  O129  D    
C60   C95   A    
C44   C249  A    
C1    O68   A    
C188  H74   S    
C194  O34   D    
C37   C254  A    
C197  H83   S    
C166  H52   S    
C109  C262  S    
C100  C256  S    
C210  O51   D    
C153  O137  D    
C2    O58   A    
C84   C135  S    
C171  O11   D    
C141  H27   S    
C181  H66   S    
C127  C285  S    
C169  O9    D    
C215  C268  A    
C79   O74   A    
C204  H90   S    
C196  O37   D    
C118  C276  S    
C42   C238  A    
C61   C96   A    
C160  C179  S    
O60   Zn6   S    
C145  H31   S    
C5    C133  S    
C178  H64   S    
C211  C264  A    
C212  O112  A    
C38   C86   A    
C123  O107  D    
C121  O105  D    
C47   C244  A    
C192  C240  S    
C23   C261  A    
C223  O123  A    
C213  C265  A    
C90   O75   A    
C55   C227  A    
C108  C268  S    
C160  O143  D    
C137  H22   S    
C134  H20   S    
C191  H76   S    
C87   C101  S    
C4    C276  A    
C175  O16   D    
C182  C230  S    
C64   C99   A    
C133  H19   S    
O85   Zn3   S    
C46   O64   A    
O62   Zn1   S    
O61   Zn9   S    
C25   C273  A    
C274  C286  A    
C227  C280  A    
C172  C220  S    
C166  C215  S    
C41   C71   A    
C42   C56   A    
C192  O32   D    
C152  H38   S    
C15   C141  S    
C245  O2    A    
C120  H6    S    
C123  H9    S    
C129  O113  D    
C118  O102  D    
C105  H1    S    
C31   C70   A    
C203  O43   D    
C115  H89   S    
C146  O85   A    
C174  H60   S    
O87   Zn4   S    
C150  O133  D    
C209  C258  S    
C107  O92   D    
C26   C66   A    
C234  O134  A    
O68   Zn6   S    
C23   C258  A    
C27   C80   A    
C167  H53   S    
C126  H11   S    
C138  C287  S    
C139  C286  S    
C184  O25   D    
C183  O23   D    
C153  H39   S    
C57   O70   A    
C94   C278  S    
C62   C97   A    
C95   C267  S    
O64   Zn11  S    
C138  O121  D    
C208  O49   D    
C28   C246  A    
C209  H95   S    
C20   C271  A    
C148  H33   S    
C178  C227  S    
C144  H30   S    
C50   C87   A    
O73   Zn3   S    
C69   C211  A    
C199  C248  S    
C22   C269  A    
C3    C237  A    
O65   Zn12  S    
C1    O1    A    
C121  H7    S    
C203  C251  S    
C122  H8    S    
C186  O27   D    
C9    C243  A    
C183  C231  S    
C216  C269  A    
C131  C281  S    
C205  C253  S    
O24   Zn9   S    
C4    C134  S    
C18   C252  A    
C137  O120  D    
O46   Zn9   S    
C195  C243  S    
C22   C151  S    
C208  C257  S    
C198  H84   S    
C193  C241  S    
C82   C113  S    
C132  H18   S    
C161  C190  S    
C1    C98   S    
C20   C254  A    
C205  H91   S    
O75   Zn4   S    
C245  O24   A    
C12   C143  S    
C191  O31   D    
C147  H32   S    
C90   O73   A    
C164  O5    D    
C130  C277  S    
C15   C279  A    
C7    C136  S    
C182  O22   D    
C14   C260  A    
C177  H63   S    
O69   Zn2   S    
O84   Zn12  S    
C210  H96   S    
C134  O118  D    
C110  O95   D    
C73   C218  A    
C226  C279  A    
C161  O144  D    
O2    Zn8   S    
C86   C157  S    
C79   C89   S    
C186  H72   S    
C25   C259  A    
C45   C55   A    
C115  O98   D    
O72   Zn11  S    
C4    C238  A    
C197  O38   D    
C44   C67   A    
C195  O36   D    
C128  C280  S    
C171  C219  S    
C203  H88   S    
C136  H21   S    
C228  C281  A    
C169  C217  S    
C149  O132  D    
C256  O52   A    
C121  C269  S    
C74   C215  A    
C142  H28   S    
C40   C84   A    
C102  C112  S    
C267  O53   A    
C36   C59   A    
C173  C221  S    
C14   C142  S    
C184  H70   S    
C31   C80   A    
C8    C148  S    
C56   C94   A    
C158  H43   S    
C192  H77   S    
C58   C93   A    
C65   C98   A    
C186  C235  S    
C123  C284  S    
C47   C63   A    
C173  H59   S    
C148  O131  D    
C217  C270  A    
C51   C65   A    
C11   C262  A    
C222  C275  A    
C110  C261  S    
C278  O56   A    
C188  C237  S    
C21   C268  A    
C51   C91   A    
C139  H25   S    
C11   C149  S    
C125  C283  S    
C2    C97   S    
C107  C264  S    
C45   C89   A    
C33   C82   A    
C187  C236  S    
C122  C272  S    
C111  O96   D    
C130  H16   S    
C76   C179  A    
C147  O130  D    
C131  H17   S    
C52   C221  A    
C71   C222  A    
C117  H3    S    
C169  H54   S    
C49   C88   A    
C118  H4    S    
C187  H73   S    
C212  O90   A    
O52   Zn7   S    
C189  C238  S    
C2    O55   A    
C173  O14   D    
C224  C276  A    
C49   C61   A    
C214  C266  A    
C25   C153  S    
C180  H65   S    
C10   C244  A    
O63   Zn10  S    
C127  O110  D    
C170  H55   S    
O78   Zn2   S    
C24   O62   A    
O35   Zn5   S    
C137  C288  S    
C207  O48   D    
C17   C251  A    
C164  H50   S    
C178  O19   D    
C114  C263  S    
O123  Zn5   S    
C21   C255  A    
C138  H24   S    
C128  H14   S    
C38   C54   A    
C140  H26   S    
C200  O41   D    
C120  O104  D    
C159  H44   S    
C221  C274  A    
C26   C78   A    
C198  O39   D    
C149  H35   S    
C128  O111  D    
C182  H68   S    
C158  O141  D    
C39   C259  A    
C57   O67   A    
C69   C99   A    
C6    C132  S    
C23   C150  S    
C13   C92   S    
C185  H71   S    
O112  Zn6   S    
C202  O42   D    
C272  C288  A    
C124  O81   A    
C27   C76   A    
O79   Zn7   S    
C27   C258  A    
C165  O6    D    
C129  H15   S    
C154  H40   S    
C5    C239  A    
C11   C246  A    
C47   C91   A    
C163  O4    D    
C132  O116  D    
C110  H56   S    
C63   C228  A    
C119  O103  D    
C19   C253  A    
C9    C266  A    
C66   C168  A    
C152  O136  D    
C30   C81   A    
C135  O84   A    
C168  C260  A    
C278  O54   A    
O134  Zn5   S    
C150  H36   S    
C3    C280  A    
C229  C282  A    
C230  C283  A    
C41   C252  A    
C180  C228  S    
C59   C92   A    
O55   Zn1   S    
C19   C263  A    
C113  O80   A    
C33   C74   A    
C172  H58   S    
C204  O44   D    
C19   C154  S    
C77   C104  A    
C17   C156  S    
C18   C155  S    
C136  O119  D    
C68   O69   A    
C36   C240  A    
C24   C99   S    
C35   C85   S    
C183  H69   S    
C156  O140  D    
C54   C219  A    
C49   C242  A    
C180  O20   D    
O59   Zn8   S    
C188  O29   D    
C181  O21   D    
C176  C225  S    
C196  C244  S    
C163  H49   S    
C39   C77   A    
C10   C281  A    
C37   C85   A    
C122  O106  D    
C105  O89   D    
C167  O8    D    
C75   C216  A    
C41   C83   A    
C197  C246  S    
C68   C91   S    
C206  H92   S    
C159  C168  S    
C219  C272  A    
C207  C255  S    
C190  C262  A    
C17   C265  A    
C79   O72   A    
C73   C104  A    
C181  C229  S    
O81   Zn3   S    
C75   C102  A    
C35   O63   A    
C175  C224  S    
C46   O66   A    
C236  C288  A    
C124  O83   A    
C151  H37   S    
C29   C72   A    
C166  O7    D    
C114  O97   D    
C202  H87   S    
C130  O114  D    
C167  C216  S    
C70   C100  A    
C162  O3    D    
C48   C60   A    
C46   C88   S    
C256  O35   A    
C191  C239  S    
C206  O47   D    
C101  O78   A    
C81   C124  S    
C53   C93   A    
O83   Zn4   S    
O82   Zn10  S    
C231  C284  A    
C135  O82   A    
C5    C277  A    
C184  C232  S    
C234  O13   A    
C55   C95   A    
C107  H23   S    
C56   C224  A    
C16   C250  A    
C193  H79   S    
O54   Zn8   S    
C162  H48   S    
C105  C266  S    
C40   C52   A    
C6    C240  A    
C9    C147  S    
C155  O139  D    
C30   C250  A    
C133  O117  D    
C204  C252  S    
C187  O28   D    
C117  O100  D    
C13   O59   A    
C12   C285  A    
C185  O26   D    
C235  C287  A    
C140  O124  D    
C8    C242  A    
O71   Zn11  S    
C189  O30   D    
C116  C274  S    
C58   C225  A    
C157  O86   A    
C7    C282  A    
C43   C239  A    
C53   C231  A    
C68   O71   A    
C202  C250  S    
C177  O18   D    
O90   Zn1   S    
C48   C89   A    
C32   C243  A    
C67   C96   A    
C34   C83   A    
C206  C254  S    
C28   C64   A    
C18   C275  A    
C193  O33   D    
C37   C73   A    
C267  O46   A    
C225  C277  A    
C194  C242  S    
C28   C81   A    
C201  C263  A    
C48   C241  A    
C127  H13   S    
O53   Zn8   S    
C64   C190  A    
C77   C220  A    
C164  C213  S    
C170  O10   D    
O76   Zn11  S    
C218  C271  A    
C43   C87   A    
C101  O76   A    
C159  O142  D    
C156  H42   S    
C143  O127  D    
C109  H45   S    
C126  C282  S    
C106  H12   S    
C36   C84   A    
C129  C279  S    
C80   C90   S    
C50   C235  A    
C54   C94   A    
C52   C92   A    
C10   C145  S    
C32   C78   A    
C16   C264  A    
C115  C275  S    
C165  C214  S    
C112  O57   A    
C39   C85   A    
C74   C103  A    
C131  O115  D    
C3    C140  S    
C44   C88   A    
O86   Zn12  S    
O58   Zn6   S    
C72   C201  A    
C170  C218  S    
C113  O77   A    
