data_mof_unit_44675.cif
_audit_creation_date              2012-12-10T17:36:18-0500
_audit_creation_method            fapswitch 2.2
_symmetry_space_group_name_H-M    P1
_symmetry_Int_Tables_number       1
_space_group_crystal_system       triclinic
_cell_length_a                    12.32991
_cell_length_b                    13.125721
_cell_length_c                    15.867269
_cell_angle_alpha                 77.901316
_cell_angle_beta                  101.070382
_cell_angle_gamma                 116.583562
_cell_volume                      2231.24671897

loop_
_atom_site_label
_atom_site_type_symbol
_atom_type_description
_atom_site_fract_x
_atom_site_fract_y
_atom_site_fract_z
_atom_type_partial_charge
C1    C     C_R   0.854740 0.285821 0.508615 0.836476
C2    C     C_3   0.023251 0.398002 0.069786 -0.383532
C3    C     C_3   0.001349 0.500765 0.082972 0.272152
C4    C     C_3   0.103977 0.613880 0.045216 -0.433198
C5    C     C_3   0.102777 0.614925 0.946708 0.274415
C6    C     C_1   0.001324 0.500219 0.175253 -0.086736
C7    C     C_1   0.999073 0.500235 0.824711 -0.041685
C8    C     C_1   0.998824 0.499973 0.749130 -0.153797
C9    C     C_R   0.276220 0.022154 0.382558 -0.139874
C10   C     C_R   0.228025 0.835360 0.468653 -0.045034
C11   C     C_R   0.813287 0.080809 0.566987 0.295882
C12   C     C_R   0.999485 0.499766 0.659569 0.822809
C13   C     C_R   0.733153 0.962544 0.575902 0.357135
C14   C     C_R   0.610845 0.928431 0.543948 -0.219393
C15   C     C_R   0.566245 0.008178 0.496141 -0.011450
C16   C     C_R   0.651090 0.122314 0.472228 -0.040201
C17   C     C_R   0.440133 0.976627 0.468898 0.038497
C18   C     C_R   0.401519 0.054592 0.409612 0.124139
C19   C     C_R   0.488318 0.162197 0.376763 0.370828
C20   C     C_R   0.611982 0.194035 0.407027 -0.258770
C21   C     C_R   0.350834 0.869696 0.500336 -0.223504
C22   C     C_R   0.190198 0.912736 0.411156 -0.229756
C23   C     C_R   0.145094 0.713695 0.487222 0.798257
C24   C     C_R   0.773005 0.161173 0.513555 -0.165362
C25   C     C_R   0.345450 0.327320 0.637077 -0.295568
C26   C     C_R   0.760379 0.646329 0.384035 0.082452
C27   C     C_R   0.664420 0.678646 0.358798 -0.248951
C28   C     C_R   0.560608 0.623423 0.402374 -0.174287
C29   C     C_R   0.551634 0.534747 0.472316 0.009496
C30   C     C_R   0.652786 0.504988 0.496133 0.295577
C31   C     C_R   0.446918 0.474992 0.519692 -0.026524
C32   C     C_R   0.445902 0.387243 0.589457 0.174578
C33   C     C_R   0.545326 0.360011 0.611777 -0.272332
C34   C     C_R   0.000398 0.500078 0.340436 0.809771
C35   C     C_R   0.646539 0.417893 0.566518 -0.171893
C36   C     C_R   0.342356 0.498086 0.501352 0.027658
C37   C     C_R   0.246024 0.354415 0.615892 0.110001
C38   C     C_3   0.019122 0.395969 0.971937 -0.395073
C39   C     C_3   0.876489 0.491420 0.934520 -0.460446
C40   C     C_3   0.877027 0.491052 0.032383 -0.379857
C41   C     C_1   0.001113 0.500022 0.250850 -0.173622
C42   C     C_3   0.000351 0.500746 0.917051 0.245176
Cu1   Cu    Cu3+1 0.098280 0.475420 0.519630 0.967626
Cu2   Cu    Cu3+1 0.901720 0.524580 0.480370 0.926620
H1    H     H_    0.952469 0.315634 0.098447 0.173084
H2    H     H_    0.104284 0.395178 0.959206 0.170486
H3    H     H_    0.090267 0.688993 0.054309 0.147006
H4    H     H_    0.095078 0.887288 0.385813 0.152957
H5    H     H_    0.244489 0.079894 0.337268 0.188700
H6    H     H_    0.553905 0.837174 0.553869 0.172966
H7    H     H_    0.942738 0.314719 0.953170 0.172483
H8    H     H_    0.677216 0.274268 0.376704 0.164125
H9    H     H_    0.545318 0.293341 0.665345 0.152219
H10   H     H_    0.343995 0.260111 0.690480 0.141623
H11   H     H_    0.335021 0.563050 0.449466 0.122522
H12   H     H_    0.840657 0.689750 0.349888 0.123917
H13   H     H_    0.489197 0.652020 0.380099 0.133263
H14   H     H_    0.670535 0.746755 0.305284 0.143964
H15   H     H_    0.718252 0.391533 0.589652 0.203353
H16   H     H_    0.858966 0.564933 0.896065 0.172788
H17   H     H_    0.800622 0.411147 0.913699 0.186298
H18   H     H_    0.801861 0.410281 0.058545 0.178000
H19   H     H_    0.859364 0.564181 0.040832 0.169874
H20   H     H_    0.081592 0.687431 0.910482 0.134257
H21   H     H_    0.193963 0.623025 0.081311 0.178447
N1    N     N_R   0.246300 0.438200 0.549400 -0.186158
N2    N     N_R   0.754300 0.561180 0.451130 -0.207122
O1    O     O_R   0.972520 0.318130 0.524690 -0.515602
O2    O     O_R   0.806530 0.359650 0.491530 -0.620638
O3    O     O_R   0.083030 0.479240 0.637150 -0.570358
O4    O     O_R   0.917040 0.520750 0.603990 -0.592917
O5    O     O_R   0.193470 0.640350 0.508470 -0.589678
O6    O     O_R   0.027480 0.681870 0.475310 -0.583082
O7    O     O_R   0.082960 0.479250 0.396010 -0.577653
O8    O     O_R   0.916970 0.520760 0.362850 -0.592496
H22   H     H_    0.113564 0.404821 0.103751 0.170556
O9    O     O_3   0.450669 0.235112 0.315388 -0.749987
H23   H     H_    0.522547 0.308098 0.300668 0.325185
H24   H     H_    0.374351 0.810385 0.549615 0.153672
O10   O     O_3   0.929105 0.119916 0.611542 -0.739796
H25   H     H_    0.929677 0.065220 0.664962 0.322202
O11   O     O_3   0.770308 0.877750 0.616401 -0.732631
H26   H     H_    0.858497 0.906297 0.612011 0.331706
H27   H     H_    0.168189 0.308623 0.652441 0.156715
O12   O     O_3   0.218052 0.636071 0.926476 -0.723090
H28   H     H_    0.245341 0.580199 0.965349 0.330139

loop_
_geom_bond_atom_site_label_1
_geom_bond_atom_site_label_2
_ccdc_geom_bond_type
C22   H4    S    
C5    C42   S    
Cu1   O5    S    
C19   C20   A    
O9    H23   S    
C3    C6    S    
C7    C8    T    
C28   H13   S    
C10   C22   A    
C26   C27   A    
C40   H19   S    
C30   C35   A    
C26   N2    A    
C28   C29   A    
C38   C42   S    
C4    H21   S    
C36   N1    A    
C9    C22   A    
C15   C16   A    
C11   C24   A    
C1    O1    A    
C40   H18   S    
Cu2   O4    S    
C35   H15   S    
C18   C19   A    
C7    C42   S    
C19   O9    S    
C25   C37   A    
Cu1   O1    S    
C6    C41   T    
C37   H27   S    
C30   N2    A    
C8    C12   S    
C34   O8    A    
C5    O12   S    
Cu1   O7    S    
C16   C24   A    
C13   C14   A    
C34   C41   S    
C23   O6    A    
C39   C42   S    
C10   C21   A    
C33   H9    S    
C39   H17   S    
C9    H5    S    
C25   H10   S    
C11   O10   S    
C39   C40   S    
C4    C5    S    
C38   H7    S    
O12   H28   S    
C13   O11   S    
C1    O2    A    
C5    H20   S    
Cu2   O8    S    
Cu1   Cu2   S    
C29   C30   A    
C2    C38   S    
C31   C32   A    
C16   C20   A    
C37   N1    A    
C21   H24   S    
C17   C18   A    
Cu2   O2    S    
C34   O7    A    
C12   O4    A    
C3    C40   S    
Cu1   O3    S    
C3    C4    S    
C2    H22   S    
C15   C17   A    
C12   O3    A    
C31   C36   A    
C23   O5    A    
O10   H25   S    
C27   H14   S    
C26   H12   S    
C10   C23   S    
C32   C33   A    
C2    C3    S    
C20   H8    S    
C36   H11   S    
C11   C13   A    
C14   H6    S    
C25   C32   A    
Cu1   N1    S    
C39   H16   S    
C33   C35   A    
Cu2   O6    S    
C17   C21   A    
C38   H2    S    
C2    H1    S    
C9    C18   A    
C1    C24   S    
C29   C31   A    
O11   H26   S    
C27   C28   A    
C14   C15   A    
Cu2   N2    S    
C4    H3    S    
