data_mof_unit_47819.cif
_audit_creation_date              2012-12-11T20:24:09-0500
_audit_creation_method            fapswitch 2.2
_symmetry_space_group_name_H-M    P1
_symmetry_Int_Tables_number       1
_space_group_crystal_system       triclinic
_cell_length_a                    8.299731
_cell_length_b                    17.379754
_cell_length_c                    19.173084
_cell_angle_alpha                 104.044605
_cell_angle_beta                  92.442234
_cell_angle_gamma                 98.19499
_cell_volume                      2646.99682614

loop_
_atom_site_label
_atom_site_type_symbol
_atom_type_description
_atom_site_fract_x
_atom_site_fract_y
_atom_site_fract_z
_atom_type_partial_charge
Ba1   Ba    Ba6+2 0.854170 0.535040 0.467640 1.636827
Ba2   Ba    Ba6+2 0.335670 0.465030 0.532370 1.643760
C1    C     C_3   0.637433 0.796961 0.245868 0.351463
C2    C     C_R   0.022226 0.533524 0.728825 0.062490
C3    C     C_R   0.854684 0.440800 0.809165 -0.160519
C4    C     C_3   0.117511 0.715770 0.287567 0.366543
C5    C     C_R   0.786067 0.443262 0.741930 -0.007427
C6    C     C_R   0.320918 0.578467 0.199737 -0.187261
C7    C     C_R   0.392339 0.570112 0.264381 -0.009873
C8    C     C_R   0.120772 0.462783 0.197678 -0.097773
C9    C     C_R   0.160071 0.474730 0.272987 0.088258
C10   C     C_R   0.985708 0.500933 0.846411 0.002199
C11   C     C_R   0.879504 0.482119 0.699032 -0.256720
C12   C     C_3   0.650500 0.746759 0.300621 0.270137
C13   C     C_R   0.192467 0.519417 0.159488 0.001451
C14   C     C_R   0.300888 0.526744 0.304546 -0.229054
C15   C     C_R   0.754901 0.471481 0.954920 -0.153308
C16   C     C_3   0.080200 0.745721 0.221211 -0.299586
C17   C     C_R   0.648007 0.428860 0.990987 0.460136
C18   C     C_R   0.692965 0.431274 0.062381 -0.041563
C19   C     C_R   0.847233 0.472032 0.092961 -0.148475
C20   C     C_R   0.972630 0.492962 0.050108 0.012068
C21   C     C_R   0.923742 0.491511 0.976808 -0.024396
C22   C     C_R   0.139708 0.517236 0.079486 0.037941
C23   C     C_3   0.493920 0.285036 0.283259 0.635353
C24   C     C_R   0.255152 0.540586 0.030974 0.075757
C25   C     C_R   0.205967 0.535355 0.956512 0.046360
C26   C     C_R   0.039352 0.510147 0.927470 0.005086
C27   C     C_R   0.424081 0.566382 0.053067 -0.042127
C28   C     C_3   0.243148 0.711892 0.632586 0.333925
C29   C     C_R   0.529516 0.603950 0.012453 0.047724
C30   C     C_R   0.483629 0.594247 0.940265 -0.047162
C31   C     C_R   0.330363 0.553005 0.911921 -0.020205
C32   C     C_2   0.443432 0.718838 0.479782 -0.275871
C33   C     C_3   0.361566 0.768608 0.438554 -0.010885
C34   C     C_3   0.665918 0.280878 0.264488 -0.178595
C35   C     C_2   0.406266 0.857088 0.471184 -0.049344
C36   C     C_2   0.544175 0.886471 0.515052 0.012523
C37   C     C_2   0.638228 0.828565 0.538565 -0.121880
C38   C     C_1   0.576291 0.751318 0.523797 0.057485
C39   C     C_R   0.793644 0.142387 0.542332 -0.114815
C40   C     C_3   0.285377 0.803532 0.655145 -0.230307
C41   C     C_R   0.850723 0.223730 0.552750 0.000021
C42   C     C_R   0.605033 0.239015 0.486724 0.054747
C43   C     C_R   0.545660 0.157493 0.478464 -0.114577
C44   C     C_R   0.636412 0.109642 0.509461 -0.001551
C45   C     C_3   0.056683 0.303555 0.722777 0.332447
C46   C     C_2   0.600650 0.974743 0.540616 0.060606
C47   C     C_2   0.576141 0.022792 0.495906 -0.024197
C48   C     C_R   0.751152 0.273027 0.529487 -0.263846
C49   C     C_3   0.053670 0.268505 0.339299 0.326399
C50   C     C_3   0.012128 0.178096 0.297993 -0.172659
C51   C     C_3   0.726356 0.650064 0.688997 0.314402
C52   C     C_3   0.744444 0.675481 0.770999 -0.393047
C53   C     C_3   0.138343 0.843391 0.680619 -0.346325
C54   C     C_3   0.988022 0.283419 0.413382 -0.257193
C55   C     C_3   0.858419 0.128808 0.316921 -0.423851
C56   C     C_3   0.075411 0.279164 0.793391 -0.304530
C57   C     C_3   0.466099 0.373177 0.302017 -0.303228
C58   C     C_3   0.577986 0.392644 0.106555 -0.209690
C59   C     C_3   0.693936 0.649215 0.045443 -0.411996
C60   C     C_3   0.681110 0.006082 0.616527 -0.407302
C61   C     C_3   0.512767 0.258581 0.678311 0.382067
C62   C     C_3   0.456788 0.179808 0.697974 -0.303894
C63   C     C_R   0.059040 0.552212 0.804370 -0.148385
H1    H     H_    0.731030 0.782557 0.348674 0.111768
H2    H     H_    0.853223 0.722566 0.789864 0.121397
H3    H     H_    0.759100 0.623124 0.792855 0.063436
H4    H     H_    0.633770 0.699396 0.791702 0.129797
H5    H     H_    0.527170 0.732318 0.318578 -0.076408
H6    H     H_    0.684767 0.218280 0.240777 0.144471
H7    H     H_    0.705375 0.317515 0.226831 0.103596
H8    H     H_    0.735644 0.304946 0.316347 0.064233
H9    H     H_    0.546069 0.763732 0.200790 -0.010056
H10   H     H_    0.158815 0.722113 0.178157 0.062816
H11   H     H_    0.121781 0.365853 0.730090 0.078640
H12   H     H_    0.385491 0.821654 0.699058 0.120607
H13   H     H_    0.924254 0.300823 0.709186 -0.061044
H14   H     H_    0.205035 0.275559 0.806514 0.206332
H15   H     H_    0.034314 0.323773 0.838076 0.079846
H16   H     H_    0.000922 0.219472 0.788645 0.102379
H17   H     H_    0.645875 0.263412 0.671826 -0.097224
H18   H     H_    0.446615 0.257263 0.626367 0.081248
H19   H     H_    0.450043 0.129096 0.649444 0.056003
H20   H     H_    0.333764 0.178627 0.718349 0.161190
H21   H     H_    0.065268 0.651007 0.276533 0.042652
H22   H     H_    0.543731 0.171940 0.740412 0.118675
H23   H     H_    0.329105 0.825411 0.608589 0.056273
H24   H     H_    0.146668 0.605258 0.828661 0.054939
H25   H     H_    0.797433 0.394613 0.832954 0.110140
H26   H     H_    0.372784 0.629143 0.180372 0.053686
H27   H     H_    0.032733 0.410921 0.170660 0.100495
H28   H     H_    0.835376 0.476702 0.643854 0.061846
H29   H     H_    0.347698 0.527866 0.358372 0.065917
H30   H     H_    0.702890 0.487342 0.909130 0.114964
H31   H     H_    0.252381 0.723132 0.295994 -0.022961
H32   H     H_    0.865950 0.487164 0.150251 0.134099
H33   H     H_    0.482085 0.555027 0.099680 0.072097
H34   H     H_    0.186292 0.282322 0.344754 0.106150
H35   H     H_    0.569893 0.613679 0.904777 0.069604
H36   H     H_    0.314971 0.533213 0.854513 0.130467
H37   H     H_    0.510340 0.996541 0.443551 0.148257
H38   H     H_    0.756722 0.850236 0.568439 0.084933
H39   H     H_    0.874834 0.104445 0.557102 0.090197
H40   H     H_    0.329114 0.896528 0.455604 0.095588
H41   H     H_    0.951625 0.724027 0.199681 0.112627
H42   H     H_    0.432466 0.130784 0.445852 0.103650
H43   H     H_    0.407093 0.654182 0.463591 0.073503
H44   H     H_    0.797382 0.336081 0.536460 0.071185
H45   H     H_    0.116089 0.147767 0.308928 0.156533
H46   H     H_    0.104306 0.812375 0.234627 0.176470
H47   H     H_    0.354358 0.686795 0.615074 -0.017396
H48   H     H_    0.148308 0.694277 0.586648 0.077829
H49   H     H_    0.037561 0.826749 0.637219 0.153361
H50   H     H_    0.094207 0.825131 0.728983 0.150437
H51   H     H_    0.174290 0.909671 0.694976 0.111161
H52   H     H_    0.859518 0.291199 0.409841 0.000840
H53   H     H_    0.999226 0.231536 0.435462 0.077612
H54   H     H_    0.056588 0.336600 0.451804 0.169722
H55   H     H_    0.886417 0.107006 0.365262 0.159683
H56   H     H_    0.000624 0.173094 0.239062 0.211053
H57   H     H_    0.817060 0.075258 0.271545 0.203026
H58   H     H_    0.756746 0.163589 0.327966 0.123697
H59   H     H_    0.522656 0.991947 0.246375 0.375826
H60   H     H_    0.390558 0.187108 0.089658 0.385728
H61   H     H_    0.448068 0.393373 0.252050 0.080189
H62   H     H_    0.359776 0.381314 0.333548 0.042422
H63   H     H_    0.572080 0.414061 0.334153 0.124190
H64   H     H_    0.213061 0.341423 0.960654 0.361265
H65   H     H_    0.640355 0.391511 0.157973 0.109278
H66   H     H_    0.473341 0.425537 0.118256 0.138762
H67   H     H_    0.840203 0.629915 0.669157 -0.001723
H68   H     H_    0.532995 0.329837 0.076772 0.216551
H69   H     H_    0.677184 0.704982 0.085289 0.126873
H70   H     H_    0.758406 0.612823 0.073948 0.123079
H71   H     H_    0.771828 0.665901 0.004043 0.122968
H72   H     H_    0.613039 0.975160 0.653221 0.117352
H73   H     H_    0.808772 0.993952 0.617772 0.118932
H74   H     H_    0.681698 0.071077 0.638490 0.114944
H75   H     H_    0.623119 0.599631 0.672210 0.080099
H76   H     H_    0.756989 0.808659 0.223615 0.035855
O1    O     O_2   0.873520 0.443690 0.322540 -0.476273
O2    O     O_2   0.182509 0.221198 0.533664 -0.489617
O3    O     O_3   0.125329 0.250703 0.669269 -0.598824
O4    O     O_3   0.122020 0.450920 0.411670 -0.509137
O5    O     O_3   0.580730 0.598500 0.542710 -0.498424
O6    O     O_2   0.336360 0.303040 0.452600 -0.473777
O7    O     O_3   0.466302 0.244616 0.338782 -0.642932
O8    O     O_2   0.471011 0.477074 0.755812 -0.472488
O9    O     O_3   0.477569 0.322659 0.732801 -0.535199
O10   O     O_3   0.663590 0.591680 0.375790 -0.452973
O11   O     O_2   0.694941 0.523493 0.244012 -0.506633
O12   O     O_3   0.697263 0.715734 0.662684 -0.638802
O13   O     O_3   0.996732 0.315712 0.296519 -0.616560
O14   O     O_3   0.721089 0.678868 0.268728 -0.621683
O15   O     O_2   0.853350 0.696990 0.547450 -0.462494
O16   O     O_3   0.086060 0.635230 0.414460 -0.487425
O17   O     O_2   0.048069 0.781330 0.488559 -0.487402
O18   O     O_2   0.415120 0.878814 0.315533 -0.352208
O19   O     O_2   0.704588 0.938361 0.344931 -0.334065
O20   O     O_3   0.565130 0.942626 0.222141 -0.493020
O21   O     O_2   0.305617 0.145071 0.212228 -0.281096
O22   O     O_2   0.221372 0.268458 0.192187 -0.329277
O23   O     O_3   0.050460 0.759861 0.347992 -0.560222
O24   O     O_3   0.470696 0.217414 0.130202 -0.543168
O25   O     O_2   0.427489 0.394850 0.876632 -0.316867
O26   O     O_2   0.500430 0.282890 0.920670 -0.287306
O27   O     O_3   0.308496 0.370808 0.994033 -0.548625
O28   O     O_2   0.316180 0.556340 0.677510 -0.466013
O29   O     O_3   0.067690 0.549150 0.588340 -0.497144
O30   O     O_3   0.526120 0.408390 0.624220 -0.486513
O31   O     O_3   0.187952 0.684184 0.691523 -0.637191
O32   O     O_3   0.608980 0.401570 0.457310 -0.492080
O33   O     O_3   0.103650 0.364840 0.585560 -0.492744
P1    P     P_3+3 0.040700 0.421000 0.332140 0.981721
P2    P     P_3+3 0.677490 0.686860 0.568200 0.969886
P3    P     P_3+3 0.136019 0.737881 0.424598 0.976314
P4    P     P_3+3 0.149010 0.579070 0.667870 0.976167
P5    P     P_3+3 0.065397 0.263820 0.585101 0.935855
P6    P     P_3+3 0.614906 0.592806 0.287359 0.942361
P7    P     P_3+3 0.515472 0.298111 0.430597 0.905645
P8    P     P_3+3 0.566626 0.412456 0.714803 1.000135
S1    S     S_3+6 0.578368 0.891526 0.285657 -0.121611
S2    S     S_3+6 0.364841 0.227876 0.203827 -0.098993
S3    S     S_3+6 0.468328 0.368012 0.943008 -0.122686

loop_
_geom_bond_atom_site_label_1
_geom_bond_atom_site_label_2
_ccdc_geom_bond_type
C33   P3    S    
C51   H67   S    
C49   O13   S    
C51   O12   S    
C16   H10   S    
C12   O14   S    
O25   S3    D    
C12   H5    S    
C54   H52   S    
C29   C59   S    
O30   P8    S    
Ba1   O4    S    
C17   C18   A    
C1    H76   S    
Ba1   P2    S    
C43   C44   A    
C25   C31   A    
C57   H61   S    
O21   S2    D    
C44   C47   S    
C41   P5    S    
C24   C25   A    
C15   C21   A    
O13   P1    S    
O29   P4    S    
C31   H36   S    
C33   C35   S    
O17   P3    D    
C22   C24   A    
C45   H11   S    
C32   C33   S    
C8    C13   A    
Ba2   O32   S    
C2    C63   A    
C52   H3    S    
C53   H51   S    
C57   H62   S    
O26   S3    D    
C61   H18   S    
Ba1   O29   S    
C51   H75   S    
Ba1   Ba2   S    
C50   H56   S    
C2    C11   A    
C1    H9    S    
C40   H12   S    
C62   H19   S    
C42   C48   A    
Ba1   O1    S    
C55   H57   S    
O15   P2    D    
O4    P1    S    
O7    P7    S    
O5    P2    S    
C39   C44   A    
C15   H30   S    
O2    P5    D    
C60   H74   S    
C18   C58   S    
C62   H22   S    
C36   C46   S    
C3    H25   S    
H64   O27   S    
C23   S2    S    
C56   H15   S    
Ba2   O30   S    
O6    P7    D    
O32   P7    S    
C19   C20   A    
C39   C41   A    
Ba1   O5    S    
C58   H66   S    
C59   H69   S    
C49   H34   S    
C4    C16   S    
C61   H17   S    
C49   C50   S    
C16   H46   S    
C3    C10   A    
O9    P8    S    
C62   H20   S    
C34   H8    S    
C56   H16   S    
C58   H65   S    
C37   C38   D    
C3    C5    A    
C6    C7    A    
C52   H2    S    
Ba2   O28   S    
Ba2   O6    S    
C51   C52   S    
C45   O3    S    
C48   H44   S    
C30   H35   S    
C11   H28   S    
Ba2   O4    S    
O11   P6    D    
Ba1   O15   S    
H60   O24   S    
C16   H41   S    
C61   O9    S    
C35   H40   S    
C35   C36   D    
C40   C53   S    
C55   H58   S    
C19   H32   S    
C9    C14   A    
C46   C60   S    
C29   C30   A    
O12   P2    S    
O3    P5    S    
C50   H45   S    
Ba1   O32   S    
C12   H1    S    
C6    H26   S    
O16   P3    S    
C21   C26   A    
C60   H73   S    
C9    P1    S    
C7    P6    S    
C28   O31   S    
C1    C12   S    
C56   H14   S    
Ba2   O29   S    
C55   H55   S    
C27   H33   S    
C13   C22   S    
C4    O23   S    
C6    C13   A    
C4    H31   S    
O8    P8    D    
C54   H54   S    
C32   C38   D    
C40   H23   S    
C50   C55   S    
O28   P4    D    
C47   H37   S    
O14   P6    S    
C59   H70   S    
C38   P2    S    
H59   O20   S    
O31   P4    S    
O20   S1    S    
Ba1   P1    S    
O27   S3    S    
O19   S1    D    
C5    P8    S    
O22   S2    D    
O24   S2    S    
C54   H53   S    
C7    C14   A    
C42   C43   A    
C49   C54   S    
C2    P4    S    
C34   H6    S    
C41   C48   A    
C37   H38   S    
O1    P1    D    
C53   H49   S    
Ba2   O5    S    
Ba2   P4    S    
C10   C63   A    
C63   H24   S    
C14   H29   S    
C4    H21   S    
C39   H39   S    
C32   H43   S    
C30   C31   A    
Ba1   O16   S    
C57   H63   S    
C27   C29   A    
Ba2   O33   S    
C45   C56   S    
C42   P7    S    
O10   P6    S    
C36   C37   S    
C52   H4    S    
C53   H50   S    
C46   C47   D    
O33   P5    S    
C15   C17   A    
Ba1   O10   S    
C23   O7    S    
C20   C22   A    
C60   H72   S    
C8    C9    A    
C23   C34   S    
C8    H27   S    
C61   C62   S    
C43   H42   S    
C5    C11   A    
C18   C19   A    
C10   C26   S    
C24   C27   A    
C28   H47   S    
C25   C26   A    
C20   C21   A    
C28   C40   S    
C23   C57   S    
C45   H13   S    
O18   S1    D    
C1    S1    S    
C58   H68   S    
C17   S3    S    
O23   P3    S    
C34   H7    S    
C59   H71   S    
C28   H48   S    
