data_mof_unit_26785.cif
_audit_creation_date              2012-12-10T18:34:37-0500
_audit_creation_method            fapswitch 2.2
_symmetry_space_group_name_H-M    P1
_symmetry_Int_Tables_number       1
_space_group_crystal_system       triclinic
_cell_length_a                    14.924427
_cell_length_b                    15.249565
_cell_length_c                    15.726878
_cell_angle_alpha                 90.370264
_cell_angle_beta                  105.112311
_cell_angle_gamma                 80.779316
_cell_volume                      3408.51884317

loop_
_atom_site_label
_atom_site_type_symbol
_atom_type_description
_atom_site_fract_x
_atom_site_fract_y
_atom_site_fract_z
_atom_type_partial_charge
C1    C     C_R   0.440086 0.662886 0.479312 0.864749
C2    C     C_R   0.556392 0.099043 0.534856 0.034450
C3    C     C_R   0.349719 0.941833 0.420110 0.080224
C4    C     C_R   0.651800 0.060190 0.570471 0.080256
C5    C     C_R   0.513839 0.953744 0.494074 0.072815
C6    C     C_R   0.489579 0.046953 0.489913 0.076995
C7    C     C_R   0.399671 0.085971 0.439349 -0.230917
C8    C     C_R   0.604510 0.915016 0.543138 -0.228624
C9    C     C_R   0.329491 0.034946 0.409224 -0.237200
C10   C     C_R   0.673459 0.966758 0.576356 -0.239584
C11   C     C_R   0.839988 0.645722 0.622299 0.065963
C12   C     C_R   0.559252 0.337990 0.523938 0.867497
C13   C     C_R   0.160349 0.360850 0.364698 0.060746
C14   C     C_R   0.753807 0.615765 0.608320 -0.027523
C15   C     C_R   0.249591 0.384859 0.390203 -0.005404
C16   C     C_R   0.501514 0.500163 0.662192 0.887727
C17   C     C_R   0.498561 0.499578 0.337813 0.893647
C18   C     C_R   0.792038 0.512673 0.504949 -0.060373
C19   C     C_R   0.201833 0.492823 0.485155 -0.077993
C20   C     C_R   0.880775 0.537770 0.517114 -0.044576
C21   C     C_R   0.110618 0.471676 0.462989 -0.051587
C22   C     C_R   0.898578 0.614472 0.566557 0.067006
C23   C     C_R   0.278894 0.887198 0.396137 0.071790
C24   C     C_R   0.094381 0.395507 0.412283 0.063221
C25   C     C_R   0.951489 0.489662 0.481749 0.043343
C26   C     C_R   0.036840 0.522510 0.491731 0.048333
C27   C     C_R   0.043293 0.608620 0.523396 -0.240325
C28   C     C_R   0.942911 0.405985 0.444314 -0.233703
C29   C     C_R   0.972004 0.657389 0.555115 0.164799
C30   C     C_R   0.015159 0.356367 0.414180 0.158406
C31   C     C_3   0.410179 0.508076 0.002751 0.188470
C32   C     C_3   0.590480 0.486535 0.997259 0.189030
C33   C     C_3   0.453492 0.575775 0.959649 -0.260128
C34   C     C_R   0.720238 0.115687 0.606206 0.076251
C35   C     C_3   0.547157 0.418826 0.040388 -0.260984
C36   C     C_1   0.504848 0.499762 0.751902 -0.197970
C37   C     C_1   0.495747 0.498102 0.248192 -0.200950
C38   C     C_3   0.459970 0.430327 0.959937 0.192770
C39   C     C_3   0.540679 0.564282 0.039971 0.192302
C40   C     C_3   0.503731 0.497393 0.917888 0.020692
C41   C     C_3   0.496956 0.497277 0.082136 0.021142
C42   C     C_1   0.505509 0.498851 0.827348 -0.071433
C43   C     C_1   0.495226 0.497213 0.172750 -0.071152
C44   C     C_R   0.401838 0.756721 0.447754 -0.184639
C45   C     C_R   0.303993 0.794262 0.419664 0.043952
C46   C     C_R   0.595787 0.244554 0.556677 -0.197687
C47   C     C_3   0.870971 0.700551 0.702512 -0.453728
C48   C     C_3   0.871987 0.652352 0.787881 -0.864613
C49   C     C_3   0.135505 0.309339 0.280993 -0.456421
C50   C     C_3   0.150158 0.357355 0.201718 -0.860365
C51   C     C_3   0.309545 0.524841 0.012603 -0.396741
C52   C     C_3   0.236486 0.537631 0.923590 -0.875615
C53   C     C_3   0.691176 0.469580 0.987571 -0.396712
C54   C     C_3   0.764134 0.456821 0.076660 -0.875535
C55   C     C_3   0.580622 0.641796 0.089946 -0.402460
C56   C     C_R   0.691228 0.210297 0.599385 0.044249
C57   C     C_3   0.615062 0.701125 0.031795 -0.876458
C58   C     C_3   0.420154 0.352914 0.909519 -0.401772
C59   C     C_3   0.385351 0.293460 0.967257 -0.878613
C60   C     C_3   0.445810 0.217765 0.590321 -0.350901
C61   C     C_3   0.440470 0.152127 0.661983 -0.360250
C62   C     C_3   0.362291 0.188220 0.705272 -0.895430
C63   C     C_3   0.548271 0.774931 0.399754 -0.348998
C64   C     C_3   0.556272 0.836709 0.326102 -0.363764
C65   C     C_3   0.635628 0.796489 0.285948 -0.894293
C66   C     C_3   0.752832 0.272087 0.653981 -0.380317
C67   C     C_R   0.468003 0.810732 0.441654 -0.001422
C68   C     C_3   0.828677 0.293877 0.611864 -0.334592
C69   C     C_3   0.888728 0.355410 0.669017 -0.877151
C70   C     C_3   0.226981 0.736942 0.407817 -0.390782
C71   C     C_3   0.214716 0.687988 0.320596 -0.323942
C72   C     C_3   0.120132 0.655393 0.293497 -0.893528
C73   C     C_3   0.179019 0.926835 0.344513 -0.422092
C74   C     C_3   0.118030 0.965432 0.405244 -0.351536
C75   C     C_3   0.015441 0.992104 0.353070 -0.911275
C76   C     C_3   0.822394 0.074026 0.648684 -0.425229
C77   C     C_3   0.873832 0.041242 0.578580 -0.344890
C78   C     C_R   0.529485 0.188305 0.550920 0.006485
C79   C     C_3   0.978185 0.008211 0.620361 -0.914816
C80   C     C_3   0.967474 0.757691 0.559015 -0.443680
C81   C     C_3   0.953406 0.799584 0.467389 -0.873009
C82   C     C_3   0.013016 0.257640 0.400056 -0.430124
C83   C     C_3   0.996191 0.210756 0.478770 -0.892216
C84   C     C_R   0.444891 0.901751 0.453332 0.035754
H1    H     H_    0.415771 0.639398 0.924559 0.151114
H2    H     H_    0.742330 0.931687 0.609726 0.147111
H3    H     H_    0.382408 0.156449 0.423329 0.149244
H4    H     H_    0.622825 0.844528 0.558307 0.151392
H5    H     H_    0.799701 0.645286 0.789927 0.250365
H6    H     H_    0.915979 0.585444 0.794005 0.264395
H7    H     H_    0.902181 0.691207 0.845190 0.247371
H8    H     H_    0.943746 0.713407 0.710972 0.216712
H9    H     H_    0.822867 0.765336 0.695012 0.198334
H10   H     H_    0.110900 0.426453 0.193964 0.263830
H11   H     H_    0.225887 0.359033 0.209184 0.250782
H12   H     H_    0.584839 0.355211 0.075511 0.151291
H13   H     H_    0.123607 0.321666 0.140879 0.245914
H14   H     H_    0.179370 0.242190 0.290919 0.197799
H15   H     H_    0.060403 0.301722 0.262666 0.217560
H16   H     H_    0.248738 0.592303 0.883903 0.256720
H17   H     H_    0.238974 0.475575 0.886616 0.263578
H18   H     H_    0.165115 0.555029 0.934091 0.249108
H19   H     H_    0.297993 0.468582 0.050632 0.207290
H20   H     H_    0.300509 0.585840 0.050556 0.201461
H21   H     H_    0.761889 0.519004 0.113444 0.264339
H22   H     H_    0.751598 0.402424 0.116497 0.255898
H23   H     H_    0.222411 0.543330 0.531185 0.132955
H24   H     H_    0.835516 0.439037 0.066270 0.249133
H25   H     H_    0.700171 0.408498 0.949729 0.200833
H26   H     H_    0.702892 0.525706 0.949491 0.206737
H27   H     H_    0.675898 0.664339 0.011422 0.262381
H28   H     H_    0.557759 0.725904 0.972316 0.256923
H29   H     H_    0.637942 0.759099 0.069405 0.249804
H30   H     H_    0.524344 0.682349 0.114384 0.204421
H31   H     H_    0.639180 0.615656 0.147870 0.207077
H32   H     H_    0.442438 0.268547 0.026851 0.257549
H33   H     H_    0.324382 0.330215 0.987457 0.262466
H34   H     H_    0.767469 0.463977 0.458530 0.134792
H35   H     H_    0.362573 0.235582 0.929396 0.250131
H36   H     H_    0.361854 0.379073 0.851376 0.207013
H37   H     H_    0.476556 0.312410 0.885202 0.203034
H38   H     H_    0.375074 0.252198 0.736415 0.260782
H39   H     H_    0.293016 0.198717 0.655457 0.266781
H40   H     H_    0.360397 0.139868 0.757005 0.251355
H41   H     H_    0.426072 0.087540 0.633288 0.238105
H42   H     H_    0.508734 0.140336 0.713328 0.222482
H43   H     H_    0.453509 0.282032 0.623053 0.213302
H44   H     H_    0.378053 0.230315 0.539009 0.201607
H45   H     H_    0.304084 0.356018 0.359729 0.146243
H46   H     H_    0.704373 0.789612 0.336341 0.263662
H47   H     H_    0.624300 0.730056 0.260412 0.261681
H48   H     H_    0.637661 0.840395 0.230671 0.252004
H49   H     H_    0.488802 0.847554 0.273692 0.221176
H50   H     H_    0.571277 0.902162 0.351891 0.239512
H51   H     H_    0.616754 0.759264 0.449785 0.207630
H52   H     H_    0.534776 0.711211 0.368084 0.209339
H53   H     H_    0.844333 0.418539 0.678448 0.273287
H54   H     H_    0.925406 0.322663 0.734464 0.252243
H55   H     H_    0.942530 0.370763 0.636718 0.257941
H56   H     H_    0.703802 0.642377 0.644666 0.145727
H57   H     H_    0.875848 0.232454 0.604166 0.223890
H58   H     H_    0.795262 0.325704 0.545590 0.228982
H59   H     H_    0.709563 0.334802 0.666017 0.214941
H60   H     H_    0.785164 0.242692 0.721540 0.173970
H61   H     H_    0.111926 0.612504 0.346545 0.275274
H62   H     H_    0.061659 0.712812 0.279440 0.255080
H63   H     H_    0.115793 0.616383 0.233110 0.249904
H64   H     H_    0.218532 0.733118 0.266874 0.206021
H65   H     H_    0.271881 0.630291 0.326593 0.252009
H66   H     H_    0.239038 0.690743 0.465073 0.202837
H67   H     H_    0.100279 0.641897 0.517737 0.138842
H68   H     H_    0.159253 0.777876 0.408800 0.196209
H69   H     H_    0.008970 0.046494 0.304109 0.265687
H70   H     H_    0.988294 0.934214 0.318382 0.266161
H71   H     H_    0.971462 0.015489 0.398337 0.250215
H72   H     H_    0.121618 0.915904 0.457964 0.220095
H73   H     H_    0.144156 0.024668 0.437745 0.222602
H74   H     H_    0.180287 0.978524 0.295683 0.186648
H75   H     H_    0.145037 0.876552 0.302263 0.211794
H76   H     H_    0.012124 0.062439 0.655946 0.266200
H77   H     H_    0.987127 0.951161 0.667057 0.262761
H78   H     H_    0.882950 0.374669 0.443196 0.147363
H79   H     H_    0.013846 0.986179 0.568356 0.251829
H80   H     H_    0.842508 0.986445 0.541747 0.225819
H81   H     H_    0.866715 0.096140 0.530095 0.219792
H82   H     H_    0.862643 0.120323 0.690591 0.208885
H83   H     H_    0.825313 0.018880 0.695537 0.185552
H84   H     H_    0.014289 0.776154 0.440489 0.256552
H85   H     H_    0.888632 0.782734 0.421531 0.262389
H86   H     H_    0.945662 0.872906 0.471215 0.256186
H87   H     H_    0.907089 0.790640 0.582345 0.211391
H88   H     H_    0.033166 0.773518 0.604204 0.202233
H89   H     H_    0.259974 0.070148 0.378006 0.146139
H90   H     H_    0.036374 0.234603 0.542003 0.271432
H91   H     H_    0.920068 0.222466 0.474943 0.242839
H92   H     H_    0.019239 0.138148 0.477577 0.260423
H93   H     H_    0.956973 0.248967 0.339836 0.201166
H94   H     H_    0.081203 0.222368 0.392376 0.211178
N1    N     N_R   0.731710 0.552730 0.549140 -0.116975
N2    N     N_R   0.268290 0.447270 0.450860 -0.113342
O1    O     O_R   0.383110 0.605620 0.475230 -0.616144
O2    O     O_R   0.616890 0.394380 0.524770 -0.608029
O3    O     O_R   0.531900 0.639510 0.506760 -0.615468
O4    O     O_R   0.468100 0.360490 0.493240 -0.619183
O5    O     O_R   0.425620 0.483070 0.607460 -0.614321
O6    O     O_R   0.574380 0.516930 0.392540 -0.615665
O7    O     O_R   0.574400 0.516960 0.638990 -0.617924
O8    O     O_R   0.425600 0.483040 0.361010 -0.619739
Zn1   Zn    Zn3+2 0.400660 0.477370 0.478940 0.912629
Zn2   Zn    Zn3+2 0.599340 0.522630 0.521060 0.914113

loop_
_geom_bond_atom_site_label_1
_geom_bond_atom_site_label_2
_ccdc_geom_bond_type
C53   H26   S    
C69   H55   S    
C66   C68   S    
C21   C26   A    
C34   C56   A    
C23   C45   A    
C22   C29   A    
C83   H91   S    
C27   C29   A    
C47   H8    S    
C36   C42   T    
C70   H66   S    
C12   O2    A    
C62   H40   S    
C65   H46   S    
C1    O3    A    
C28   H78   S    
C39   C41   S    
C57   H27   S    
C53   C54   S    
C25   C28   A    
N1    Zn2   S    
C60   C78   S    
C26   C27   A    
C33   C39   S    
C3    C9    A    
C19   C21   A    
C23   C73   S    
C16   O5    A    
C5    C6    A    
C11   C14   A    
C56   C66   S    
C50   H11   S    
C57   H28   S    
C66   H60   S    
C20   C25   A    
C17   O8    A    
C51   H19   S    
C72   H61   S    
C76   H83   S    
C73   C74   S    
C32   C39   S    
C33   H1    S    
O7    Zn2   S    
C49   H14   S    
C38   C58   S    
O1    Zn1   S    
C39   C55   S    
C68   C69   S    
C50   H13   S    
C48   H7    S    
C27   H67   S    
C31   C33   S    
C68   H58   S    
C70   C71   S    
C81   H85   S    
C51   H20   S    
C18   H34   S    
C14   N1    A    
C54   H21   S    
C77   H80   S    
C40   C42   S    
C71   H64   S    
C67   C84   A    
C59   H33   S    
C48   H6    S    
C15   N2    A    
C41   C43   S    
C2    C6    A    
C79   H77   S    
C62   H39   S    
C65   H47   S    
C64   H50   S    
C77   C79   S    
C69   H53   S    
C63   C67   S    
C52   H17   S    
C33   C40   S    
C74   C75   S    
C54   H22   S    
C51   C52   S    
C32   C35   S    
C60   H44   S    
C35   C38   S    
C70   H68   S    
C76   C77   S    
C12   C46   S    
C31   C51   S    
C79   H76   S    
C46   C78   A    
C5    C84   A    
C1    O1    A    
C59   H32   S    
C57   H29   S    
C66   H59   S    
C3    C23   A    
C35   H12   S    
C73   H74   S    
C52   H16   S    
C13   C24   A    
C60   C61   S    
C8    H4    S    
C63   H51   S    
C37   C43   T    
C2    C4    A    
C2    C78   A    
C49   H15   S    
C75   H69   S    
C1    C44   S    
C47   C48   S    
C15   H45   S    
C17   O6    A    
C52   H18   S    
C82   H94   S    
C58   H36   S    
C47   H9    S    
C74   H72   S    
C68   H57   S    
C17   C37   S    
C81   H86   S    
C76   H82   S    
C9    H89   S    
C61   H42   S    
C13   C49   S    
C20   C22   A    
C18   N1    A    
C14   H56   S    
C48   H5    S    
C55   C57   S    
C21   C24   A    
C58   C59   S    
C80   H88   S    
C4    C10   A    
O3    Zn2   S    
C32   C53   S    
C62   H38   S    
C65   H48   S    
C44   C45   A    
C53   H25   S    
C69   H54   S    
C7    C9    A    
C64   H49   S    
C10   H2    S    
C58   H37   S    
C59   H35   S    
C30   C82   S    
C31   C41   S    
C74   H73   S    
C45   C70   S    
C60   H43   S    
C50   H10   S    
C79   H79   S    
C80   C81   S    
C16   O7    A    
C5    C8    A    
O5    Zn1   S    
C6    C7    A    
C55   H30   S    
C72   H63   S    
C73   H75   S    
C11   C22   A    
C11   C47   S    
C31   C38   S    
C54   H24   S    
N2    Zn1   S    
C63   H52   S    
C13   C15   A    
C25   C26   A    
C71   C72   S    
C64   C65   S    
C38   C40   S    
C75   H70   S    
C71   H65   S    
C29   C80   S    
C55   H31   S    
C72   H62   S    
C82   H93   S    
C28   C30   A    
C81   H84   S    
C18   C20   A    
C32   C40   S    
C4    C34   A    
C61   C62   S    
C35   C41   S    
C24   C30   A    
C63   C64   S    
C75   H71   S    
C7    H3    S    
C8    C10   A    
C49   C50   S    
C83   H90   S    
C46   C56   A    
C3    C84   A    
O4    Zn1   S    
O8    Zn1   S    
C44   C67   A    
C61   H41   S    
O6    Zn2   S    
O2    Zn2   S    
C80   H87   S    
C82   C83   S    
C83   H92   S    
C77   H81   S    
C19   N2    A    
C12   O4    A    
C16   C36   S    
C34   C76   S    
C19   H23   S    
