data_mof_unit_56202.cif
_audit_creation_date              2013-03-05T16:03:40-0500
_audit_creation_method            fapswitch 2.2
_symmetry_space_group_name_H-M    P1
_symmetry_Int_Tables_number       1
_space_group_crystal_system       triclinic
_cell_length_a                    25.731565
_cell_length_b                    7.324514
_cell_length_c                    23.211063
_cell_angle_alpha                 90.000301
_cell_angle_beta                  104.229821
_cell_angle_gamma                 90.000046
_cell_volume                      4240.3930809

loop_
_atom_site_label
_atom_site_type_symbol
_atom_site_description
_atom_site_fract_x
_atom_site_fract_y
_atom_site_fract_z
_atom_type_partial_charge
O1    O     O_R   0.438720 0.630760 0.439780 -0.577577
O2    O     O_R   0.061280 0.869240 0.060220 -0.559732
O3    O     O_R   0.561280 0.130760 0.560220 -0.577575
O4    O     O_R   0.938720 0.369240 0.939780 -0.559733
O5    O     O_R   0.546410 0.956760 0.446260 -0.590155
O6    O     O_R   0.953590 0.543240 0.053740 -0.584150
O7    O     O_R   0.453590 0.456760 0.553740 -0.590165
O8    O     O_R   0.046410 0.043240 0.946260 -0.584163
C1    C     C_R   0.562435 0.792240 0.434214 0.942322
C2    C     C_R   0.937504 0.707867 0.065714 0.982662
C3    C     C_R   0.437565 0.292240 0.565785 0.942331
C4    C     C_R   0.062496 0.207866 0.934286 0.982668
O9    O     O_R   0.438220 0.960230 0.432810 -0.574220
O10   O     O_R   0.061780 0.539770 0.067190 -0.580686
O11   O     O_R   0.561780 0.460230 0.567190 -0.574222
O12   O     O_R   0.938220 0.039770 0.932810 -0.580686
O13   O     O_R   0.452310 0.134250 0.546660 -0.587343
O14   O     O_R   0.047690 0.365750 0.953340 -0.600253
O15   O     O_R   0.547690 0.634250 0.453340 -0.587343
O16   O     O_R   0.952310 0.865750 0.046660 -0.600256
C5    C     C_R   0.419097 0.791967 0.417254 1.029035
C6    C     C_R   0.081943 0.707988 0.082301 0.984416
C7    C     C_R   0.580903 0.291967 0.582746 1.029034
C8    C     C_R   0.918057 0.207987 0.917699 0.984415
O17   O     O_3   0.504750 0.798450 0.537370 -0.289277
O18   O     O_3   0.995250 0.701550 0.962630 -0.290516
O19   O     O_3   0.495250 0.298450 0.462630 -0.289276
O20   O     O_3   0.004750 0.201550 0.037370 -0.290515
V1    V     V_3+5 0.499120 0.071860 0.493070 1.230792
V2    V     V_3+5 0.000880 0.428140 0.006930 1.230832
V3    V     V_3+5 0.500880 0.571860 0.506930 1.230788
V4    V     V_3+5 0.999120 0.928140 0.993070 1.230829
C9    C     C_R   0.725476 0.216878 0.668505 -0.165849
C10   C     C_R   0.785508 0.372014 0.815854 -0.143625
C11   C     C_R   0.274523 0.716887 0.331496 -0.165847
C12   C     C_R   0.214493 0.872014 0.184147 -0.143628
H1    H     H_    0.764253 0.187255 0.660227 0.179913
H2    H     H_    0.759417 0.490208 0.810575 0.201215
H3    H     H_    0.235746 0.687272 0.339773 0.179913
H4    H     H_    0.240584 0.990206 0.189425 0.201213
C13   C     C_R   0.680524 0.236427 0.620069 0.361775
C14   C     C_R   0.831310 0.367209 0.863484 0.379646
C15   C     C_R   0.319476 0.736436 0.379931 0.361775
C16   C     C_R   0.168690 0.867209 0.136516 0.379648
C17   C     C_R   0.630371 0.282139 0.631080 -0.301477
C18   C     C_R   0.866942 0.216292 0.869884 -0.347106
C19   C     C_R   0.369628 0.782137 0.368920 -0.301476
C20   C     C_R   0.133058 0.716293 0.130116 -0.347105
C21   C     C_R   0.626409 0.305810 0.689752 -0.294272
C22   C     C_R   0.853128 0.069490 0.829831 -0.226157
C23   C     C_R   0.373591 0.805799 0.310248 -0.294275
C24   C     C_R   0.146871 0.569493 0.170169 -0.226158
H5    H     H_    0.587621 0.336341 0.697906 0.168226
H6    H     H_    0.879298 0.951784 0.834554 0.206989
H7    H     H_    0.412380 0.836323 0.302093 0.168224
H8    H     H_    0.120700 0.451788 0.165446 0.206987
C25   C     C_R   0.670990 0.280834 0.738189 0.410597
C26   C     C_R   0.805212 0.068724 0.784614 0.400642
C27   C     C_R   0.329010 0.780825 0.261811 0.410600
C28   C     C_R   0.194786 0.568728 0.215387 0.400644
C29   C     C_R   0.721533 0.237685 0.727491 -0.017460
C30   C     C_R   0.771297 0.223941 0.776763 -0.060202
C31   C     C_R   0.278467 0.737686 0.272510 -0.017463
C32   C     C_R   0.228702 0.723942 0.223238 -0.060200
C33   C     C_R   0.122397 0.382595 0.882845 -0.127807
C34   C     C_R   0.374989 0.121729 0.615002 -0.101976
C35   C     C_R   0.877588 0.882604 0.117135 -0.127766
C36   C     C_R   0.625026 0.621741 0.385012 -0.101988
H9    H     H_    0.110525 0.509737 0.899723 0.142108
H10   H     H_    0.383923 0.995262 0.595270 0.171075
H11   H     H_    0.889447 0.009735 0.100238 0.142126
H12   H     H_    0.616103 0.495282 0.404756 0.171100
C37   C     C_R   0.159514 0.388433 0.847872 -0.174851
C38   C     C_R   0.337956 0.118786 0.650184 -0.160833
C39   C     C_R   0.840473 0.888458 0.152110 -0.174870
C40   C     C_R   0.662061 0.618803 0.349831 -0.160798
H13   H     H_    0.174988 0.517827 0.838728 0.138149
H14   H     H_    0.319042 0.991774 0.655977 0.138172
H15   H     H_    0.824987 0.017854 0.161237 0.138159
H16   H     H_    0.680987 0.491802 0.344050 0.138157
C41   C     C_R   0.176540 0.229472 0.824431 0.074399
C42   C     C_R   0.324935 0.277528 0.677511 0.052338
C43   C     C_R   0.823464 0.729512 0.175575 0.074432
C44   C     C_R   0.675068 0.777538 0.322490 0.052320
C45   C     C_R   0.156634 0.060317 0.838712 0.190177
C46   C     C_R   0.349176 0.443356 0.667257 0.195942
C47   C     C_R   0.843381 0.560351 0.161314 0.190238
C48   C     C_R   0.650812 0.943352 0.332727 0.195934
C49   C     C_R   0.118828 0.054327 0.873454 -0.184556
C50   C     C_R   0.385412 0.446728 0.630638 -0.165538
C51   C     C_R   0.881185 0.554348 0.126569 -0.184621
C52   C     C_R   0.614576 0.946722 0.369345 -0.165521
H17   H     H_    0.104319 0.922594 0.883893 0.140148
H18   H     H_    0.402331 0.576623 0.622323 0.153218
H19   H     H_    0.895705 0.422614 0.116146 0.140128
H20   H     H_    0.597646 0.076609 0.377651 0.153209
C53   C     C_R   0.101242 0.215273 0.895948 -0.128044
C54   C     C_R   0.399280 0.286076 0.604677 -0.153031
C55   C     C_R   0.898757 0.715281 0.104054 -0.128039
C56   C     C_R   0.600721 0.786077 0.395322 -0.153045
N1    N     N_R   0.217589 0.109724 0.745572 -0.048551
N2    N     N_R   0.282695 0.400264 0.755169 -0.049803
N3    N     N_R   0.782488 0.609937 0.254512 -0.048552
N4    N     N_R   0.717238 0.900127 0.244758 -0.049820
N5    N     N_R   0.252240 0.121109 0.711431 -0.068909
N6    N     N_R   0.248094 0.388764 0.789367 -0.076319
N7    N     N_R   0.747836 0.621309 0.288651 -0.068869
N8    N     N_R   0.751842 0.888639 0.210562 -0.076296
C57   C     C_R   0.285625 0.266838 0.715374 0.132933
C58   C     C_R   0.214886 0.242793 0.785567 0.122083
C59   C     C_R   0.714379 0.766864 0.284630 0.132908
C60   C     C_R   0.785122 0.742844 0.214441 0.122037
N9    N     N_R   0.686835 0.210723 0.560550 0.234280
O21   O     O_R   0.656308 0.296481 0.515698 -0.433795
O22   O     O_R   0.726119 0.111986 0.551467 -0.364919
N10   N     N_R   0.838697 0.510844 0.906829 0.246993
O23   O     O_R   0.844530 0.470481 0.962657 -0.394387
O24   O     O_R   0.828448 0.679060 0.889799 -0.377859
N11   N     N_R   0.313164 0.710743 0.439451 0.234278
O25   O     O_R   0.343692 0.796503 0.484301 -0.433789
O26   O     O_R   0.273879 0.612013 0.448535 -0.364922
N12   N     N_R   0.161304 0.010843 0.093172 0.246993
O27   O     O_R   0.155471 0.970478 0.037343 -0.394406
O28   O     O_R   0.171554 0.179060 0.110202 -0.377857
N13   N     N_R   0.663649 0.292777 0.797575 0.237731
O29   O     O_R   0.688771 0.181426 0.838775 -0.340543
O30   O     O_R   0.626881 0.399252 0.808858 -0.354038
N14   N     N_R   0.790965 0.907346 0.748757 0.240362
O31   O     O_R   0.741266 0.853943 0.732466 -0.371632
O32   O     O_R   0.828191 0.799840 0.739079 -0.390932
N15   N     N_R   0.336351 0.792760 0.202425 0.237731
O33   O     O_R   0.311227 0.681409 0.161225 -0.340548
O34   O     O_R   0.373120 0.899227 0.191142 -0.354044
N16   N     N_R   0.209032 0.407350 0.251244 0.240363
O35   O     O_R   0.258731 0.353947 0.267536 -0.371634
O36   O     O_R   0.171806 0.299847 0.260921 -0.390931
N17   N     N_2   0.176340 0.895040 0.820481 -0.121111
H21   H     H_    0.148115 0.792653 0.811401 0.154099
C61   C     C_3   0.227492 0.838678 0.858041 -0.830803
H22   H     H_    0.244293 0.726381 0.836216 0.250174
H23   H     H_    0.222324 0.790959 0.901751 0.262808
H24   H     H_    0.256837 0.952793 0.865210 0.260899
N18   N     N_2   0.333470 0.609855 0.689040 -0.116900
H25   H     H_    0.316304 0.697417 0.655086 0.177822
C62   C     C_3   0.374133 0.695171 0.735462 -0.870132
H26   H     H_    0.356535 0.814323 0.753399 0.255036
H27   H     H_    0.408063 0.743276 0.717648 0.244741
H28   H     H_    0.389119 0.597367 0.772422 0.272624
N19   N     N_2   0.823687 0.395083 0.179569 -0.121103
H29   H     H_    0.851907 0.292675 0.188627 0.154121
C63   C     C_3   0.772515 0.338733 0.142053 -0.830928
H30   H     H_    0.755732 0.226454 0.163903 0.250185
H31   H     H_    0.777644 0.290995 0.098330 0.262808
H32   H     H_    0.743173 0.452855 0.134907 0.260893
N20   N     N_2   0.666511 0.109848 0.310934 -0.116910
H33   H     H_    0.683689 0.197411 0.344883 0.177809
C64   C     C_3   0.625838 0.195176 0.264526 -0.870098
H34   H     H_    0.643431 0.314329 0.246583 0.255028
H35   H     H_    0.591918 0.243287 0.282357 0.244734
H36   H     H_    0.610838 0.097379 0.227568 0.272632

loop_
_geom_bond_atom_site_label_1
_geom_bond_atom_site_label_2
_geom_bond_distance
_ccdc_geom_bond_type
O17   V3    1.796940 S    
C43   C47   1.410963 A    
C26   C30   1.417433 A    
C64   H34   1.110298 S    
C7    C17   1.477184 S    
C47   C51   1.408632 A    
O19   V1    1.796947 S    
O13   V1    1.985812 S    
C6    C20   1.499240 S    
C10   C14   1.404260 A    
C52   H20   1.083187 S    
O15   V3    1.985811 S    
N14   O31   1.301413 A    
C40   C44   1.403904 A    
C62   H26   1.110296 S    
C21   C25   1.406878 A    
O1    C5    1.338928 A    
N17   C61   1.448699 S    
C27   N15   1.439234 S    
C22   H6    1.082809 S    
C3    C54   1.491518 S    
O9    V1    2.000743 S    
O10   V2    2.000743 S    
N19   C63   1.448695 S    
C25   N13   1.439233 S    
O4    C8    1.344022 A    
C61   H24   1.111187 S    
C33   H9    1.082990 S    
C36   H12   1.082782 S    
N20   C64   1.446381 S    
N18   H25   1.027824 S    
C34   C38   1.399276 A    
O1    V3    1.986993 S    
C33   C37   1.397891 A    
N10   O23   1.301342 A    
O2    V4    1.986993 S    
C14   C18   1.420442 A    
C63   H32   1.111177 S    
O3    V1    1.986987 S    
O12   V4    2.000750 S    
C24   C28   1.409095 A    
O3    C7    1.338927 A    
C11   C31   1.405820 A    
C1    O15   1.327765 A    
C48   C52   1.407849 A    
C2    O16   1.326982 A    
O2    C6    1.344024 A    
C28   N16   1.440224 S    
C63   H30   1.108036 S    
O14   V2    1.985810 S    
C11   C15   1.408211 A    
C23   H7    1.083921 S    
C35   C55   1.404353 A    
O11   C7    1.343152 A    
O12   C8    1.349386 A    
C2    C55   1.491674 S    
C38   C42   1.403903 A    
C37   C41   1.400279 A    
C62   H27   1.111240 S    
O16   V4    1.985813 S    
C46   N18   1.416570 S    
C50   H18   1.083189 S    
O5    V1    2.005471 S    
N11   O26   1.301557 A    
N1    N5    1.333144 A    
C44   C59   1.496193 S    
O7    V3    2.005479 S    
C22   C26   1.409095 A    
C42   C57   1.496222 S    
C44   C48   1.412072 A    
C12   H4    1.083854 S    
C46   C50   1.407842 A    
C45   C49   1.408615 A    
O18   V4    1.796941 S    
N16   O36   1.301469 A    
N1    C58   1.359545 A    
C42   C46   1.412083 A    
C9    H1    1.083411 S    
N8    C60   1.357902 A    
C49   C53   1.408254 A    
N3    C60   1.359515 A    
O8    V4    2.005478 S    
C11   H3    1.083411 S    
C36   C56   1.403859 A    
O5    C1    1.325513 A    
O7    C3    1.325508 A    
C17   C21   1.401180 A    
O8    C4    1.326308 A    
O9    C5    1.343152 A    
N11   O25   1.301275 A    
O11   V3    2.000749 S    
C4    C53   1.491650 S    
C14   N10   1.435655 S    
O6    V2    2.005474 S    
C39   C43   1.400272 A    
C1    C56   1.491541 S    
C47   N19   1.416773 S    
N13   O29   1.301412 A    
C12   C16   1.404260 A    
C35   C39   1.397893 A    
N12   O28   1.301016 A    
N15   O33   1.301411 A    
C10   C30   1.403613 A    
C45   N17   1.416745 S    
N4    N8    1.333181 A    
C62   H28   1.111395 S    
C52   C56   1.407413 A    
N9    O21   1.301276 A    
N6    C58   1.357937 A    
N18   C62   1.446383 S    
N5    C57   1.359052 A    
C3    O13   1.327757 A    
C37   H13   1.069282 S    
C10   H2    1.083854 S    
N7    C59   1.359020 A    
C40   H16   1.073600 S    
C13   N9    1.442459 S    
N15   O34   1.301419 A    
N14   O32   1.301468 A    
O6    C2    1.326318 A    
N4    C59   1.359452 A    
C19   C23   1.401181 A    
C61   H22   1.108040 S    
C25   C29   1.418357 A    
N16   O35   1.301412 A    
C64   H36   1.111393 S    
C36   C40   1.399291 A    
N17   H21   1.029101 S    
C18   C22   1.408658 A    
C27   C31   1.418359 A    
C28   C32   1.417433 A    
C9    C13   1.408212 A    
C34   C54   1.403847 A    
O20   V2    1.796948 S    
C33   C53   1.404344 A    
C12   C32   1.403613 A    
C26   N14   1.440224 S    
C61   H23   1.111526 S    
O10   C6    1.349386 A    
C34   H10   1.082783 S    
N9    O22   1.301556 A    
C39   H15   1.069301 S    
C9    C29   1.405819 A    
C21   H5    1.083920 S    
C16   N12   1.435655 S    
N10   O24   1.301016 A    
N2    N6    1.333171 A    
C35   H11   1.082987 S    
C63   H31   1.111519 S    
C49   H17   1.083315 S    
C29   C30   1.495947 S    
O4    V2    1.986989 S    
C51   H19   1.083313 S    
C31   C32   1.495944 S    
C16   C20   1.420441 A    
C20   C24   1.408657 A    
C23   C27   1.406875 A    
C41   C58   1.494793 S    
C64   H35   1.111236 S    
C48   N20   1.416584 S    
C38   H14   1.073578 S    
C4    O14   1.326978 A    
N20   H33   1.027825 S    
N13   O30   1.301419 A    
C13   C17   1.415969 A    
C43   C60   1.494768 S    
N2    C57   1.359478 A    
N3    N7    1.333152 A    
C51   C55   1.408266 A    
N12   O27   1.301342 A    
N19   H29   1.029110 S    
C15   C19   1.415967 A    
C50   C54   1.407401 A    
C41   C45   1.410959 A    
C24   H8    1.082810 S    
C15   N11   1.442457 S    
C8    C18   1.499241 S    
C5    C19   1.477183 S    
