data_mof_unit_13176.cif
_audit_creation_date              2012-12-10T17:40:03-0500
_audit_creation_method            fapswitch 2.2
_symmetry_space_group_name_H-M    P1
_symmetry_Int_Tables_number       1
_space_group_crystal_system       triclinic
_cell_length_a                    11.996956
_cell_length_b                    12.945121
_cell_length_c                    27.686877
_cell_angle_alpha                 90.480695
_cell_angle_beta                  87.3742
_cell_angle_gamma                 92.427972
_cell_volume                      4291.36840528

loop_
_atom_site_label
_atom_site_type_symbol
_atom_type_description
_atom_site_fract_x
_atom_site_fract_y
_atom_site_fract_z
_atom_type_partial_charge
C1    C     C_R   0.521508 0.700254 0.498044 0.886328
C2    C     C_R   0.438449 0.400053 0.128053 0.023346
C3    C     C_R   0.205995 0.510662 0.750598 -0.091062
C4    C     C_R   0.696292 0.488980 0.244535 0.135778
C5    C     C_R   0.775695 0.571473 0.247210 -0.116925
C6    C     C_R   0.873944 0.571753 0.218031 -0.125959
C7    C     C_R   0.893814 0.489540 0.186184 -0.105244
C8    C     C_R   0.815680 0.406698 0.183649 -0.142758
C9    C     C_R   0.717252 0.406222 0.212723 -0.172321
C10   C     C_R   0.501290 0.492445 0.646383 -0.119938
C11   C     C_R   0.494944 0.497570 0.353308 -0.147156
C12   C     C_R   0.430496 0.398382 0.026322 0.156988
C13   C     C_R   0.542479 0.560246 0.973372 0.159538
C14   C     C_R   0.525657 0.570801 0.024010 -0.195443
C15   C     C_R   0.422480 0.400968 0.975466 -0.192428
C16   C     C_R   0.477041 0.485971 0.050506 0.010920
C17   C     C_R   0.485490 0.478387 0.949082 0.011016
C18   C     C_R   0.397609 0.309948 0.053733 -0.117431
C19   C     C_R   0.478721 0.300000 0.502045 0.883129
C20   C     C_R   0.617599 0.626398 0.946344 -0.121978
C21   C     C_R   0.401288 0.310967 0.103755 -0.163856
C22   C     C_R   0.627151 0.619198 0.896359 -0.170277
C23   C     C_R   0.500891 0.498831 0.593894 0.917643
C24   C     C_R   0.498679 0.499890 0.406006 0.913119
C25   C     C_R   0.353453 0.330058 0.949886 0.502004
C26   C     C_R   0.554622 0.662994 0.049230 0.499428
C27   C     C_R   0.466348 0.189325 0.506170 -0.115566
C28   C     C_R   0.534693 0.811416 0.494608 -0.111351
C29   C     C_R   0.639456 0.968892 0.471487 -0.041315
C30   C     C_R   0.491759 0.474150 0.898022 -0.139963
C31   C     C_R   0.365373 0.033184 0.533210 -0.042950
C32   C     C_R   0.631834 0.860620 0.473309 -0.069805
C33   C     C_R   0.375141 0.141328 0.532101 -0.068180
C34   C     C_R   0.447293 0.868495 0.513895 -0.274548
C35   C     C_R   0.551143 0.131999 0.485172 -0.278434
C36   C     C_R   0.452475 0.975315 0.511919 0.099783
C37   C     C_R   0.548325 0.025644 0.489472 0.102330
C38   C     C_R   0.954623 0.436030 0.442541 -0.082233
C39   C     C_R   0.044848 0.550492 0.560000 -0.083674
C40   C     C_R   0.838364 0.437230 0.450549 -0.155424
C41   C     C_R   0.476061 0.488218 0.101557 -0.141556
C42   C     C_R   0.161140 0.551705 0.551655 -0.160088
C43   C     C_R   0.856728 0.521591 0.526124 0.713550
C44   C     C_R   0.143385 0.484350 0.472622 0.704909
C45   C     C_R   0.974839 0.515916 0.522451 -0.181454
C46   C     C_R   0.024960 0.477555 0.478699 -0.173545
C47   C     C_R   0.433226 0.398961 0.822421 0.645849
C48   C     C_R   0.512602 0.577492 0.176727 0.638300
C49   C     C_R   0.566406 0.541496 0.821408 0.555159
C50   C     C_R   0.441889 0.402227 0.178416 0.565639
C51   C     C_R   0.587241 0.437395 0.718464 0.664718
C52   C     C_R   0.427332 0.399068 0.873176 -0.279843
C53   C     C_R   0.387268 0.491678 0.281547 0.680096
C54   C     C_R   0.589695 0.447134 0.668497 -0.304739
C55   C     C_R   0.391671 0.495760 0.331463 -0.279797
C56   C     C_R   0.410096 0.527453 0.674549 -0.279569
C57   C     C_R   0.594196 0.495619 0.324530 -0.276888
C58   C     C_R   0.408388 0.520323 0.724752 -0.040252
C59   C     C_R   0.590612 0.490745 0.274227 -0.020654
C60   C     C_R   0.498172 0.475441 0.746655 0.149324
C61   C     C_R   0.486054 0.489102 0.252796 0.128364
C62   C     C_R   0.296308 0.203190 0.561971 0.158593
C63   C     C_R   0.513344 0.578219 0.126081 -0.280717
C64   C     C_R   0.190779 0.224183 0.545530 -0.084470
C65   C     C_R   0.116772 0.281036 0.574559 -0.147254
C66   C     C_R   0.148120 0.317190 0.619938 -0.108694
C67   C     C_R   0.253599 0.297265 0.636172 -0.103148
C68   C     C_R   0.327730 0.240732 0.607257 -0.157511
C69   C     C_R   0.726922 0.800635 0.453693 0.151617
C70   C     C_R   0.723037 0.753827 0.407851 -0.137695
C71   C     C_R   0.814784 0.701202 0.388910 -0.128401
C72   C     C_R   0.910668 0.695429 0.415450 -0.117808
C73   C     C_R   0.914312 0.740691 0.461364 -0.145602
C74   C     C_R   0.356578 0.328896 0.899585 0.636673
C75   C     C_R   0.822348 0.792375 0.480657 -0.058005
C76   C     C_R   0.747807 0.020405 0.455632 0.096443
C77   C     C_R   0.818188 0.061805 0.490665 -0.161229
C78   C     C_R   0.929242 0.089810 0.478050 -0.162761
C79   C     C_R   0.970770 0.075794 0.430604 -0.126192
C80   C     C_R   0.899584 0.040148 0.394973 -0.103296
C81   C     C_R   0.788036 0.012875 0.407340 -0.134872
C82   C     C_R   0.264119 0.983705 0.557270 0.101036
C83   C     C_R   0.254669 0.977286 0.607890 -0.130527
C84   C     C_R   0.152301 0.947896 0.630963 -0.133564
C85   C     C_R   0.549032 0.666251 0.099467 0.635596
C86   C     C_R   0.059295 0.924573 0.603626 -0.125810
C87   C     C_R   0.069447 0.927533 0.553195 -0.148577
C88   C     C_R   0.171404 0.957267 0.529971 -0.167128
C89   C     C_R   0.997088 0.390311 0.396282 0.198530
C90   C     C_R   0.065360 0.304844 0.396137 -0.036581
C91   C     C_R   0.105318 0.262175 0.352457 -0.155012
C92   C     C_R   0.075397 0.303043 0.308595 -0.049716
C93   C     C_R   0.005412 0.386538 0.308366 -0.083090
C94   C     C_R   0.965965 0.429898 0.351955 -0.186447
C95   C     C_R   0.002384 0.578369 0.609437 0.207430
C96   C     C_R   0.562443 0.545433 0.871817 0.030925
C97   C     C_R   0.930744 0.509632 0.636443 -0.085958
C98   C     C_R   0.894533 0.535306 0.683538 -0.129215
C99   C     C_R   0.929823 0.629112 0.704241 -0.087048
C100  C     C_R   0.003894 0.696309 0.678317 -0.136181
C101  C     C_R   0.040727 0.670709 0.631281 -0.184432
C102  C     C_R   0.312345 0.559167 0.753824 0.123975
C103  C     C_R   0.326840 0.643424 0.785531 -0.166693
C104  C     C_R   0.236388 0.677710 0.814056 -0.124579
C105  C     C_R   0.131134 0.628082 0.811173 -0.110841
C106  C     C_R   0.116088 0.544438 0.779574 -0.112192
F1    F     F_    0.195768 0.458350 0.430375 -0.687688
F2    F     F_    0.805582 0.574591 0.562608 -0.664013
F3    F     F_    0.288171 0.259420 0.877081 -0.561118
F4    F     F_    0.578827 0.756552 0.121691 -0.560763
F5    F     F_    0.286768 0.491737 0.260933 -0.656876
F6    F     F_    0.670684 0.389946 0.739774 -0.674990
F7    F     F_    0.274664 0.267396 0.972743 -0.623145
F8    F     F_    0.579528 0.753513 0.025993 -0.621849
H1    H     H_    0.340940 0.561735 0.657600 0.170245
H2    H     H_    0.673715 0.681502 0.963236 0.214207
H3    H     H_    0.620289 0.171404 0.465419 0.178953
H4    H     H_    0.375243 0.828686 0.531320 0.177558
H5    H     H_    0.166689 0.196964 0.510295 0.102145
H6    H     H_    0.035293 0.297109 0.561894 0.122082
H7    H     H_    0.090929 0.360542 0.642617 0.125008
H8    H     H_    0.277962 0.325054 0.671238 0.151802
H9    H     H_    0.409216 0.225460 0.620224 0.126916
H10   H     H_    0.649612 0.758933 0.386790 0.124015
H11   H     H_    0.811905 0.665502 0.353548 0.115059
H12   H     H_    0.674436 0.496897 0.341067 0.166954
H13   H     H_    0.981941 0.655394 0.400578 0.149197
H14   H     H_    0.988199 0.735312 0.482066 0.138294
H15   H     H_    0.825107 0.826457 0.516426 0.125560
H16   H     H_    0.788680 0.067142 0.528130 0.138780
H17   H     H_    0.983926 0.118566 0.505506 0.136700
H18   H     H_    0.058351 0.091729 0.421535 0.114925
H19   H     H_    0.931685 0.030675 0.358104 0.137518
H20   H     H_    0.734788 0.980631 0.379976 0.135924
H21   H     H_    0.325258 0.998920 0.629383 0.138881
H22   H     H_    0.144608 0.944844 0.670026 0.143155
H23   H     H_    0.215220 0.575744 0.580203 0.163410
H24   H     H_    0.979653 0.903093 0.621488 0.147242
H25   H     H_    0.997739 0.909241 0.532111 0.140168
H26   H     H_    0.177034 0.963574 0.490939 0.135051
H27   H     H_    0.089676 0.273219 0.429970 0.118286
H28   H     H_    0.159494 0.197441 0.352618 0.135942
H29   H     H_    0.106274 0.269943 0.274797 0.161818
H30   H     H_    0.981935 0.417730 0.274398 0.160212
H31   H     H_    0.911788 0.494554 0.351120 0.118801
H32   H     H_    0.903378 0.436120 0.621102 0.118612
H33   H     H_    0.840013 0.482051 0.704162 0.207203
H34   H     H_    0.783904 0.405217 0.423615 0.165850
H35   H     H_    0.901500 0.648768 0.740716 0.160363
H36   H     H_    0.033352 0.767851 0.694799 0.139119
H37   H     H_    0.099740 0.722325 0.611838 0.144817
H38   H     H_    0.407887 0.682631 0.788060 0.167380
H39   H     H_    0.247967 0.742585 0.838489 0.163378
H40   H     H_    0.061258 0.654402 0.833411 0.147465
H41   H     H_    0.034721 0.505654 0.777562 0.152256
H42   H     H_    0.193051 0.445721 0.726367 0.130060
H43   H     H_    0.760364 0.636432 0.271101 0.140508
H44   H     H_    0.934557 0.635809 0.220028 0.159263
H45   H     H_    0.314046 0.497651 0.352850 0.245658
H46   H     H_    0.969947 0.489818 0.163640 0.160605
H47   H     H_    0.831352 0.342859 0.159129 0.160646
H48   H     H_    0.657594 0.341425 0.210494 0.163498
H49   H     H_    0.659317 0.417473 0.647112 0.184903
H50   H     H_    0.375456 0.241182 0.123289 0.201887
H51   H     H_    0.685090 0.672289 0.877017 0.193348
H52   H     H_    0.374276 0.237004 0.037176 0.221984
N1    N     N_R   0.500535 0.470586 0.798030 -0.336580
N2    N     N_R   0.479715 0.489651 0.201428 -0.341904
N3    N     N_R   0.207800 0.519340 0.508990 -0.136442
N4    N     N_R   0.792200 0.480660 0.491010 -0.140354
O1    O     O_R   0.421700 0.658820 0.502400 -0.630188
O2    O     O_2   0.544932 0.663198 0.201356 -0.477250
O3    O     O_2   0.409035 0.317486 0.204291 -0.553313
O4    O     O_2   0.633525 0.609404 0.795754 -0.573205
O5    O     O_R   0.578300 0.341180 0.497600 -0.635414
O6    O     O_R   0.609310 0.646410 0.496630 -0.579163
O7    O     O_R   0.390690 0.353590 0.503370 -0.597213
O8    O     O_R   0.406200 0.506190 0.574130 -0.643292
O9    O     O_R   0.593800 0.493810 0.425870 -0.643274
O10   O     O_R   0.593820 0.493770 0.568360 -0.561719
O11   O     O_R   0.406180 0.506230 0.431640 -0.552716
O12   O     O_2   0.372233 0.328745 0.797409 -0.484273
Zn1   Zn    Zn3+2 0.374730 0.508290 0.503850 0.999410
Zn2   Zn    Zn3+2 0.625270 0.491710 0.496150 1.001486

loop_
_geom_bond_atom_site_label_1
_geom_bond_atom_site_label_2
_ccdc_geom_bond_type
C34   H4    S    
C87   C88   A    
C1    O6    A    
C93   C94   A    
C18   C21   A    
C97   H32   S    
C104  C105  A    
C74   F3    S    
C40   N4    A    
C97   C98   A    
C18   H52   S    
C11   C55   A    
C7    C8    A    
C29   C76   S    
C77   C78   A    
C27   C33   A    
C99   H35   S    
C38   C89   S    
C51   F6    S    
C64   H5    S    
C50   O3    S    
O1    Zn1   S    
C36   C37   A    
C35   C37   A    
C84   C86   A    
C49   N1    A    
C29   C32   A    
C52   C74   A    
C8    H47   S    
C5    C6    A    
C15   C25   A    
C98   H33   S    
C2    C41   A    
C58   C60   A    
C11   C24   S    
C77   H16   S    
C15   C17   A    
C25   C74   A    
C89   C94   A    
C92   H29   S    
C44   N3    A    
C88   H26   S    
C23   O8    A    
C30   C96   A    
C2    C50   A    
C48   O2    S    
C22   H51   S    
C53   C61   A    
C56   H1    S    
N3    Zn1   S    
C12   C16   A    
C56   C58   A    
C33   C62   S    
C1    C28   S    
C62   C64   A    
C31   C33   A    
C69   C75   A    
C70   C71   A    
C58   C102  S    
C104  H39   S    
C19   C27   S    
C19   O7    A    
C83   H21   S    
O8    Zn1   S    
C39   C45   A    
C91   H28   S    
C53   F5    S    
C94   H31   S    
C55   H45   S    
C66   C67   A    
C28   C34   A    
C21   H50   S    
C13   C14   A    
C63   C85   A    
C42   H23   S    
C17   C30   A    
C73   C75   A    
C102  C103  A    
C24   O9    A    
C47   O12   S    
C68   H9    S    
C49   O4    S    
C6    H44   S    
C43   N4    A    
C44   C46   A    
C39   C42   A    
C53   C55   A    
C3    C106  A    
C59   C61   A    
C60   N1    S    
C40   H34   S    
C72   H13   S    
C67   C68   A    
C28   C32   A    
C76   C77   A    
C72   C73   A    
C85   F4    S    
O11   Zn1   S    
C57   H12   S    
C20   H2    S    
C78   C79   A    
C8    C9    A    
C48   C63   A    
C7    H46   S    
C100  H36   S    
C45   C46   A    
C1    O1    A    
C80   H19   S    
C47   C52   A    
C78   H17   S    
C26   F8    S    
C42   N3    A    
C25   F7    S    
C47   N1    A    
C83   C84   A    
C48   N2    A    
C12   C15   A    
C2    C21   A    
C66   H7    S    
C14   C26   A    
C31   C82   S    
C39   C95   S    
C23   O10   A    
C32   C69   S    
C93   H30   S    
C103  H38   S    
C3    C102  A    
C20   C22   A    
C106  H41   S    
C5    H43   S    
C70   H10   S    
C50   N2    A    
C54   H49   S    
C14   C16   A    
C35   H3    S    
C41   C63   A    
C29   C37   A    
C67   H8    S    
C91   C92   A    
O10   Zn2   S    
C10   C56   A    
O9    Zn2   S    
C44   F1    S    
O6    Zn2   S    
C30   C52   A    
C84   H22   S    
C13   C20   A    
N4    Zn2   S    
C24   O11   A    
C86   C87   A    
C22   C96   A    
C87   H25   S    
C80   C81   A    
C76   C81   A    
C95   C97   A    
C6    C7    A    
C62   C68   A    
C10   C23   S    
C73   H14   S    
C105  C106  A    
C99   C100  A    
C13   C17   A    
C61   N2    S    
C27   C35   A    
C64   C65   A    
C51   C54   A    
C89   C90   A    
C71   C72   A    
C43   C45   A    
O7    Zn1   S    
C38   C40   A    
C90   C91   A    
C26   C85   A    
C82   C88   A    
C79   H18   S    
C4    C59   S    
C92   C93   A    
C65   H6    S    
C101  H37   S    
C105  H40   S    
C34   C36   A    
C43   F2    S    
C65   C66   A    
C49   C96   A    
C69   C70   A    
C10   C54   A    
C19   O5    A    
C38   C46   A    
C90   H27   S    
C57   C59   A    
C86   H24   S    
C9    H48   S    
C79   C80   A    
C95   C101  A    
C4    C5    A    
C3    H42   S    
C98   C99   A    
C12   C18   A    
C103  C104  A    
C31   C36   A    
C71   H11   S    
C100  C101  A    
C51   C60   A    
C82   C83   A    
C4    C9    A    
C11   C57   A    
C16   C41   A    
C75   H15   S    
O5    Zn2   S    
C81   H20   S    
