data_mof_unit_39168.cif
_audit_creation_date              2012-12-11T16:22:22-0500
_audit_creation_method            fapswitch 2.2
_symmetry_space_group_name_H-M    P1
_symmetry_Int_Tables_number       1
_space_group_crystal_system       triclinic
_cell_length_a                    16.917912
_cell_length_b                    16.885241
_cell_length_c                    19.599737
_cell_angle_alpha                 118.266761
_cell_angle_beta                  62.664275
_cell_angle_gamma                 100.992739
_cell_volume                      4378.02524125

loop_
_atom_site_label
_atom_site_type_symbol
_atom_type_description
_atom_site_fract_x
_atom_site_fract_y
_atom_site_fract_z
_atom_type_partial_charge
C1    C     C_R   0.042792 0.756966 0.009268 -0.129681
C2    C     C_R   0.749413 0.486503 0.254200 -0.001229
C3    C     C_R   0.724575 0.549065 0.019813 0.082363
C4    C     C_R   0.978804 0.760823 0.254287 0.031614
C5    C     C_R   0.251430 0.566970 0.009210 -0.123370
C6    C     C_R   0.925289 0.260309 0.834605 -0.139053
C7    C     C_R   0.158420 0.505415 0.758912 -0.125655
C8    C     C_R   0.057012 0.308936 0.046694 -0.123448
C9    C     C_R   0.978098 0.240106 0.970969 -0.120768
C10   C     C_R   0.238069 0.574376 0.834624 -0.123446
C11   C     C_R   0.184924 0.490805 0.086452 -0.140327
C12   C     C_R   0.754811 0.441136 0.171837 0.142300
C13   C     C_R   0.991870 0.337829 0.758574 -0.123580
C14   C     C_R   0.259599 0.539627 0.062138 0.058586
C15   C     C_R   0.946514 0.259956 0.757456 0.038391
C16   C     C_R   0.235859 0.551321 0.757530 0.036200
C17   C     C_R   0.036783 0.224110 0.995362 0.066057
C18   C     C_R   0.826555 0.922370 0.475713 -0.184216
C19   C     C_R   0.859879 0.843600 0.400164 -0.163014
C20   C     C_R   0.938060 0.844768 0.330529 0.145731
C21   C     C_R   0.977262 0.926812 0.334343 -0.170948
C22   C     C_R   0.944211 0.005270 0.409729 -0.163441
C23   C     C_R   0.805509 0.559769 0.960186 -0.128594
C24   C     C_R   0.871731 0.002624 0.482411 0.116881
C25   C     C_R   0.873941 0.164247 0.579366 -0.183784
C26   C     C_R   0.898597 0.226341 0.643886 -0.166459
C27   C     C_R   0.909632 0.199378 0.696706 0.144083
C28   C     C_R   0.887030 0.112573 0.689958 -0.172815
C29   C     C_R   0.862716 0.050637 0.625522 -0.164793
C30   C     C_R   0.861206 0.074615 0.566651 0.117541
C31   C     C_R   0.521195 0.589531 0.409243 -0.191778
C32   C     C_R   0.596857 0.551612 0.333406 -0.154156
C33   C     C_R   0.668673 0.521088 0.333007 0.144928
C34   C     C_R   0.965290 0.674910 0.248929 -0.124250
C35   C     C_R   0.666651 0.533566 0.409505 -0.193242
C36   C     C_R   0.591051 0.571466 0.485354 -0.164791
C37   C     C_R   0.517109 0.597440 0.485150 0.119709
C38   C     C_R   0.425986 0.662558 0.641668 -0.185506
C39   C     C_R   0.358252 0.647426 0.708654 -0.165839
C40   C     C_R   0.295851 0.581620 0.692722 0.144434
C41   C     C_R   0.295247 0.540022 0.611796 -0.171620
C42   C     C_R   0.362488 0.555608 0.545195 -0.166873
C43   C     C_R   0.431451 0.612053 0.558710 0.116935
C44   C     C_R   0.638858 0.594075 0.055291 0.098827
C45   C     C_R   0.738947 0.484431 0.037666 -0.144737
C46   C     C_R   0.327502 0.567954 0.095400 0.139750
C47   C     C_R   0.407004 0.540750 0.158176 -0.208274
C48   C     C_R   0.331743 0.530623 0.144138 -0.174830
C49   C     C_R   0.393795 0.626016 0.071446 -0.283095
C50   C     C_R   0.472349 0.632689 0.080589 0.106572
C51   C     C_R   0.479805 0.584859 0.120371 0.175481
C52   C     C_R   0.562498 0.570985 0.111824 -0.282559
C53   C     C_R   0.631036 0.653170 0.026906 -0.215646
C54   C     C_R   0.547106 0.676904 0.042461 0.115754
C55   C     C_R   0.872380 0.190855 0.146668 0.076043
C56   C     C_R   0.032352 0.752037 0.172421 -0.122467
C57   C     C_R   0.968523 0.862550 0.994140 0.131298
C58   C     C_R   0.881874 0.954482 0.985390 -0.231858
C59   C     C_R   0.916920 0.870613 0.958148 -0.176148
C60   C     C_R   0.987067 0.940863 0.055834 -0.278991
C61   C     C_R   0.951226 0.024801 0.084321 0.190807
C62   C     C_R   0.897172 0.031585 0.049607 0.192498
C63   C     C_R   0.857955 0.115108 0.081262 -0.274248
C64   C     C_R   0.926450 0.184446 0.180322 -0.150993
C65   C     C_R   0.966095 0.101730 0.149224 -0.227241
C66   C     C_R   0.833234 0.515102 0.247696 -0.176283
C67   C     C_R   0.963512 0.689415 0.934028 -0.137254
C68   C     C_R   0.993361 0.772901 0.976628 0.060281
H1    H     H_    0.086819 0.803047 0.034678 0.082047
H2    H     H_    0.877958 0.217905 0.860817 0.088346
H3    H     H_    0.128804 0.488943 0.715455 0.086081
H4    H     H_    0.099698 0.322572 0.078193 0.098264
H5    H     H_    0.947080 0.189432 0.932087 0.097543
H6    H     H_    0.282844 0.619437 0.859956 0.084386
H7    H     H_    0.162783 0.470243 0.136722 0.085519
H8    H     H_    0.008009 0.365530 0.714192 0.084996
H9    H     H_    0.769819 0.919308 0.530864 0.116266
H10   H     H_    0.826295 0.781530 0.397456 0.116961
H11   H     H_    0.036965 0.929921 0.281318 0.105630
H12   H     H_    0.981065 0.065988 0.413317 0.114123
H13   H     H_    0.871911 0.184221 0.535174 0.114048
H14   H     H_    0.912243 0.294059 0.649994 0.107059
H15   H     H_    0.894162 0.090389 0.730469 0.110037
H16   H     H_    0.854269 0.981720 0.616684 0.115210
H17   H     H_    0.464574 0.609255 0.408248 0.117627
H18   H     H_    0.599407 0.546728 0.275314 0.107940
H19   H     H_    0.722511 0.511968 0.410165 0.113290
H20   H     H_    0.588342 0.575171 0.543104 0.118163
H21   H     H_    0.478470 0.707282 0.652950 0.115195
H22   H     H_    0.817634 0.600639 0.928167 0.085226
H23   H     H_    0.358423 0.683403 0.771174 0.106547
H24   H     H_    0.247579 0.489797 0.597535 0.108471
H25   H     H_    0.365883 0.515550 0.481345 0.115703
H26   H     H_    0.566849 0.532009 0.140679 0.114499
H27   H     H_    0.690453 0.676671 0.989039 0.113133
H28   H     H_    0.411803 0.505922 0.190595 0.120427
H29   H     H_    0.280322 0.488254 0.166353 0.111837
H30   H     H_    0.388504 0.658304 0.037650 0.115050
H31   H     H_    0.816095 0.121824 0.055815 0.131163
H32   H     H_    0.931188 0.658400 0.301964 0.089311
H33   H     H_    0.937322 0.243695 0.230681 0.114205
H34   H     H_    0.840803 0.958633 0.957948 0.126122
H35   H     H_    0.007302 0.097643 0.176560 0.123287
H36   H     H_    0.901231 0.812003 0.910707 0.111945
H37   H     H_    0.025688 0.936774 0.085387 0.116176
H38   H     H_    0.689428 0.457816 0.078386 0.096142
H39   H     H_    0.057790 0.805868 0.154322 0.086325
H40   H     H_    0.854252 0.543116 0.298594 0.100182
H41   H     H_    0.933658 0.674410 0.891246 0.080399
H42   H     H_    0.290516 0.615206 0.986580 0.084201
N1    N     N_R   0.034930 0.670790 0.995440 -0.037750
N2    N     N_R   0.954880 0.335850 0.881080 -0.038230
N3    N     N_R   0.115060 0.502430 0.834090 -0.038461
N4    N     N_R   0.014160 0.371890 0.051540 -0.042725
N5    N     N_R   0.965070 0.329210 0.004560 -0.044370
N6    N     N_R   0.164150 0.545120 0.881070 -0.039126
N7    N     N_R   0.133000 0.490740 0.051540 -0.038367
N8    N     N_R   0.996220 0.383590 0.834100 -0.038211
N9    N     N_R   0.835850 0.454880 0.118930 -0.055648
N10   N     N_R   0.867000 0.509260 0.948460 -0.039248
N11   N     N_R   0.003780 0.616410 0.165900 -0.036905
N12   N     N_R   0.825670 0.461520 0.995440 -0.043218
N13   N     N_R   0.045120 0.664150 0.118920 -0.038925
N14   N     N_R   0.884940 0.497570 0.165910 -0.043970
N15   N     N_R   0.985840 0.628110 0.948460 -0.036514
N16   N     N_R   0.174330 0.538480 0.004560 -0.039950
Ni1   Ni    Ni4+2 0.103690 0.603690 0.000000 0.209522
Ni2   Ni    Ni4+2 0.896310 0.396310 0.000000 0.205119
Ni3   Ni    Ni4+2 0.991110 0.505800 0.892250 0.209734
Ni4   Ni    Ni4+2 0.008890 0.494200 0.107750 0.208407
C69   C     C_3   0.694728 0.366516 0.144032 -0.484339
C70   C     C_3   0.681704 0.298993 0.179412 -0.220815
C71   C     C_3   0.631684 0.217493 0.141425 -0.936165
H43   H     H_    0.564746 0.238838 0.157372 0.265158
H44   H     H_    0.669486 0.182096 0.070713 0.255127
H45   H     H_    0.623490 0.169959 0.168338 0.254306
H46   H     H_    0.747558 0.276277 0.163658 0.202041
H47   H     H_    0.643601 0.331570 0.250233 0.201988
H48   H     H_    0.628314 0.395104 0.167170 0.179660
H49   H     H_    0.725119 0.330280 0.072868 0.197963
C72   C     C_3   0.537727 0.740883 0.011642 -0.436870
C73   C     C_3   0.616140 0.803391 0.995379 -0.238950
C74   C     C_3   0.593700 0.875927 0.980898 -0.933499
H50   H     H_    0.576980 0.844618 0.925124 0.260459
H51   H     H_    0.536468 0.919255 0.038705 0.262924
H52   H     H_    0.652025 0.918781 0.967888 0.247196
H53   H     H_    0.632841 0.836713 0.051282 0.206887
H54   H     H_    0.675421 0.763808 0.937300 0.187618
H55   H     H_    0.528020 0.700891 0.952003 0.182186
H56   H     H_    0.477025 0.784413 0.061775 0.195113

loop_
_geom_bond_atom_site_label_1
_geom_bond_atom_site_label_2
_ccdc_geom_bond_type
C58   C62   A    
C74   H52   S    
C40   C41   A    
N16   Ni1   S    
C31   H17   S    
C12   C69   S    
C53   H27   S    
C42   H25   S    
C41   C42   A    
C3    C23   A    
C35   C36   A    
N11   Ni4   S    
C2    C12   A    
N4    N5    A    
C72   H55   S    
C14   C46   S    
C53   C54   A    
C36   H20   S    
C48   H29   S    
C38   H21   S    
C26   C27   A    
C50   C54   A    
N3    Ni3   S    
N10   Ni3   S    
C18   C24   A    
C59   H36   S    
C28   C29   A    
C67   N15   A    
C7    H3    S    
C38   C39   A    
C11   C14   A    
C57   C59   A    
C5    H42   S    
C70   H47   S    
C74   H50   S    
C1    C68   A    
C74   H51   S    
C18   C19   A    
C63   H31   S    
C69   H49   S    
C49   H30   S    
C35   H19   S    
C44   C53   A    
C67   H41   S    
C47   C48   A    
C70   C71   S    
N6    Ni1   S    
C55   C63   A    
C5    N16   A    
N1    N15   A    
C71   H45   S    
C34   H32   S    
C47   H28   S    
C52   H26   S    
C58   H34   S    
N7    N16   A    
C8    N4    A    
N3    N6    A    
N9    Ni2   S    
C44   C52   A    
C6    C15   A    
C26   H14   S    
C21   C22   A    
C4    C56   A    
C28   H15   S    
C25   H13   S    
N4    Ni4   S    
C9    H5    S    
C39   H23   S    
N10   N12   A    
C72   H56   S    
C13   N8    A    
C4    C34   A    
C64   H33   S    
C46   C48   A    
C3    C44   S    
C8    H4    S    
N11   N13   A    
C67   C68   A    
C9    N5    A    
C56   N13   A    
C73   H54   S    
C29   H16   S    
C23   N10   A    
C57   C60   A    
C47   C51   A    
C25   C26   A    
N9    N14   A    
C3    C45   A    
C1    H1    S    
N5    Ni2   S    
C51   C52   A    
C60   C61   A    
C37   C43   S    
C19   H10   S    
C56   H39   S    
C29   C30   A    
C61   C65   A    
C12   N9    A    
C41   H24   S    
C15   C27   S    
C31   C32   A    
C46   C49   A    
C13   H8    S    
C32   H18   S    
C55   C64   A    
C21   H11   S    
C62   C63   A    
C50   C51   A    
C23   H22   S    
N14   Ni4   S    
N7    Ni4   S    
C5    C14   A    
C16   C40   S    
C2    C33   S    
C9    C17   A    
C7    C16   A    
C34   N11   A    
C13   C15   A    
N15   Ni3   S    
N1    Ni1   S    
C71   H43   S    
C66   N14   A    
C58   C59   A    
C42   C43   A    
C65   H35   S    
C57   C68   S    
C69   C70   S    
C11   N7    A    
N13   Ni1   S    
C39   C40   A    
C10   N6    A    
C45   H38   S    
C25   C30   A    
C6    H2    S    
C36   C37   A    
C6    N2    A    
C73   H53   S    
C66   H40   S    
C2    C66   A    
C45   N12   A    
C8    C17   A    
C32   C33   A    
C7    N3    A    
C19   C20   A    
C70   H46   S    
C22   H12   S    
C38   C43   A    
N8    Ni3   S    
C11   H7    S    
C72   C73   S    
C64   C65   A    
N2    N8    A    
C10   H6    S    
C18   H9    S    
C33   C35   A    
C22   C24   A    
N12   Ni2   S    
C61   C62   A    
C24   C30   S    
N2    Ni2   S    
C69   H48   S    
C4    C20   S    
C31   C37   A    
C54   C72   S    
C20   C21   A    
C49   C50   A    
C27   C28   A    
C71   H44   S    
C73   C74   S    
C10   C16   A    
C1    N1    A    
C60   H37   S    
