data_mof_unit_64844.cif
_audit_creation_date              2012-12-10T19:34:05-0500
_audit_creation_method            fapswitch 2.2
_symmetry_space_group_name_H-M    P1
_symmetry_Int_Tables_number       1
_space_group_crystal_system       triclinic
_cell_length_a                    18.536639
_cell_length_b                    18.657275
_cell_length_c                    18.945305
_cell_angle_alpha                 109.77299
_cell_angle_beta                  109.951868
_cell_angle_gamma                 108.854171
_cell_volume                      5033.094696

loop_
_atom_site_label
_atom_site_type_symbol
_atom_type_description
_atom_site_fract_x
_atom_site_fract_y
_atom_site_fract_z
_atom_type_partial_charge
C1    C     C_R   0.619794 0.620573 0.499892 0.879091
C2    C     C_R   0.742011 0.737279 0.417903 0.143084
C3    C     C_3   0.745798 0.668287 0.351276 -0.029911
C4    C     C_R   0.379258 0.500176 0.379544 0.893718
C5    C     C_3   0.679473 0.599916 0.356718 -0.527379
C6    C     C_R   0.755970 0.488761 0.679794 -0.028638
C7    C     C_R   0.687745 0.500271 0.687001 -0.125331
C8    C     C_R   0.683641 0.511699 0.762737 -0.263518
C9    C     C_R   0.746615 0.510261 0.828685 0.187866
C10   C     C_R   0.814993 0.499229 0.818732 -0.118144
C11   C     C_R   0.816301 0.487718 0.743483 -0.037427
C12   C     C_3   0.173873 0.430253 0.218035 -0.245116
C13   C     C_3   0.868562 0.474888 0.700331 -0.042293
C14   C     C_3   0.801440 0.478725 0.627053 0.390200
C15   C     C_R   0.244173 0.241701 0.425712 0.132136
C16   C     C_R   0.380315 0.379891 0.500104 0.888428
C17   C     C_R   0.316959 0.314291 0.502029 -0.097327
C18   C     C_R   0.326118 0.322454 0.581695 -0.218389
C19   C     C_R   0.261805 0.257328 0.581823 -0.222212
C20   C     C_R   0.187392 0.185920 0.502322 -0.098640
C21   C     C_R   0.181147 0.181082 0.425867 0.136745
C22   C     C_3   0.125165 0.128874 0.329316 -0.492463
C23   C     C_3   0.231678 0.504518 0.314737 -0.199068
C24   C     C_3   0.197254 0.199138 0.329189 -0.496678
C25   C     C_R   0.002683 0.620345 0.122410 0.883184
C26   C     C_R   0.124922 0.499964 0.124060 0.869300
C27   C     C_R   0.004234 0.379744 0.884020 0.874884
C28   C     C_R   0.622376 0.501077 0.620734 0.897481
C29   C     C_R   0.882545 0.500453 0.884102 0.920776
C30   C     C_R   0.997894 0.118884 0.618489 0.886127
C31   C     C_R   0.879363 0.877525 0.496924 0.876953
C32   C     C_R   0.002036 0.880510 0.381124 0.867848
C33   C     C_R   0.120431 0.120007 0.500568 0.882160
C34   C     C_3   0.312939 0.500982 0.313005 -0.049730
C35   C     C_R   0.033660 0.697251 0.270509 0.095157
C36   C     C_R   0.004638 0.687857 0.188255 -0.072025
C37   C     C_R   0.989358 0.751711 0.173676 -0.214568
C38   C     C_R   0.989974 0.816828 0.237884 -0.222755
C39   C     C_R   0.008483 0.818928 0.317058 -0.111168
C40   C     C_3   0.332652 0.571845 0.286885 -0.176581
C41   C     C_R   0.036350 0.762745 0.334656 0.160556
C42   C     C_3   0.004840 0.705062 0.368597 -0.490537
C43   C     C_3   0.001255 0.632550 0.297271 -0.497592
C44   C     C_R   0.959253 0.226722 0.791315 0.146251
C45   C     C_R   0.680505 0.674090 0.420524 0.087810
C46   C     C_R   0.002019 0.314288 0.815428 -0.117132
C47   C     C_R   0.043018 0.337178 0.769740 -0.227858
C48   C     C_R   0.040059 0.272097 0.702624 -0.226193
C49   C     C_R   0.997564 0.184748 0.682469 -0.074051
C50   C     C_R   0.957862 0.164767 0.728063 0.120562
C51   C     C_3   0.909006 0.092621 0.739235 -0.537514
C52   C     C_3   0.249739 0.572965 0.285905 0.246290
C53   C     C_3   0.910559 0.163721 0.812093 -0.458186
C54   C     C_3   0.192263 0.500340 0.190940 -0.105784
C55   C     C_3   0.273348 0.496709 0.191655 0.242164
C56   C     C_R   0.682744 0.688087 0.498348 -0.096683
C57   C     C_3   0.255919 0.426005 0.217492 -0.206205
C58   C     C_3   0.303340 0.712790 0.410844 -0.774643
C59   C     C_3   0.681029 0.446663 0.897523 -0.751687
C60   C     C_3   0.797095 0.317249 0.664939 -0.697484
C61   C     C_3   0.785104 0.578490 0.571013 -0.771325
C62   C     C_3   0.789887 0.381174 0.492239 -0.731660
C63   C     C_3   0.375333 0.493827 0.138258 -0.783437
C64   C     C_3   0.762988 0.723515 0.254121 -0.747384
C65   C     C_R   0.743913 0.769853 0.574179 -0.220107
C66   C     C_R   0.809232 0.832099 0.573414 -0.215326
C67   C     C_R   0.811136 0.813457 0.496188 -0.123676
H1    H     H_    0.811165 0.671509 0.373722 0.129223
H2    H     H_    0.175106 0.239778 0.306182 0.197541
H3    H     H_    0.972666 0.748432 0.111572 0.148659
H4    H     H_    0.973430 0.863338 0.224826 0.163323
H5    H     H_    0.056285 0.727325 0.434977 0.208753
H6    H     H_    0.938822 0.691914 0.360408 0.185977
H7    H     H_    0.050244 0.612634 0.322631 0.196612
H8    H     H_    0.932970 0.577502 0.247363 0.218278
H9    H     H_    0.076886 0.404560 0.785414 0.166985
H10   H     H_    0.071959 0.289885 0.668027 0.145098
H11   H     H_    0.841841 0.044243 0.681635 0.207258
H12   H     H_    0.613379 0.555518 0.296616 0.205450
H13   H     H_    0.949680 0.064433 0.763207 0.206635
H14   H     H_    0.844228 0.156400 0.796743 0.205889
H15   H     H_    0.952084 0.176426 0.878060 0.199167
H16   H     H_    0.260379 0.365766 0.190319 0.152043
H17   H     H_    0.108237 0.372702 0.188702 0.166997
H18   H     H_    0.744512 0.783472 0.634750 0.164282
H19   H     H_    0.178621 0.637650 0.300117 0.212540
H20   H     H_    0.296514 0.772395 0.428892 0.240431
H21   H     H_    0.372597 0.732562 0.426338 0.249252
H22   H     H_    0.288311 0.683268 0.449615 0.231462
H23   H     H_    0.707963 0.566321 0.386333 0.192416
H24   H     H_    0.734860 0.576994 0.931581 0.217139
H25   H     H_    0.612343 0.426231 0.851041 0.221400
H26   H     H_    0.687342 0.461236 0.961898 0.231281
H27   H     H_    0.694405 0.391850 0.874461 0.260251
H28   H     H_    0.927885 0.396794 0.703843 0.225457
H29   H     H_    0.798620 0.256514 0.631589 0.230945
H30   H     H_    0.731044 0.307549 0.625460 0.253941
H31   H     H_    0.807888 0.328312 0.729941 0.221452
H32   H     H_    0.894532 0.611253 0.680558 0.207682
H33   H     H_    0.755488 0.606372 0.606686 0.222377
H34   H     H_    0.631370 0.520807 0.770447 0.160916
H35   H     H_    0.732608 0.520138 0.506530 0.259593
H36   H     H_    0.824116 0.628696 0.560296 0.236602
H37   H     H_    0.684321 0.383865 0.506675 0.236979
H38   H     H_    0.749066 0.311836 0.438593 0.225135
H39   H     H_    0.856574 0.392723 0.532753 0.256638
H40   H     H_    0.795889 0.424332 0.463633 0.233043
H41   H     H_    0.120345 0.063460 0.301988 0.199727
H42   H     H_    0.233783 0.174272 0.301252 0.212397
H43   H     H_    0.240041 0.441603 0.062038 0.219396
H44   H     H_    0.386097 0.493786 0.084083 0.239952
H45   H     H_    0.937087 0.531254 0.738092 0.102734
H46   H     H_    0.374181 0.435343 0.142033 0.230838
H47   H     H_    0.431139 0.554359 0.199686 0.248409
H48   H     H_    0.216718 0.508845 0.367517 0.144297
H49   H     H_    0.859264 0.893598 0.633113 0.151606
H50   H     H_    0.679674 0.596476 0.216059 0.235252
H51   H     H_    0.728847 0.707650 0.185554 0.226893
H52   H     H_    0.825964 0.722754 0.268986 0.226051
H53   H     H_    0.775789 0.789484 0.295849 0.279584
H54   H     H_    0.382605 0.378129 0.642934 0.154939
H55   H     H_    0.398371 0.629355 0.316384 0.130885
H56   H     H_    0.269118 0.263550 0.643173 0.158318
H57   H     H_    0.061277 0.128600 0.305816 0.210164
N1    N     N_2   0.242796 0.651083 0.319077 -0.299852
N2    N     N_2   0.743406 0.524121 0.905851 -0.305486
N3    N     N_2   0.866450 0.390604 0.674127 -0.282031
N4    N     N_2   0.842821 0.556700 0.622013 -0.320545
N5    N     N_2   0.747856 0.397616 0.543160 -0.275823
N6    N     N_2   0.292485 0.491603 0.122753 -0.290312
N7    N     N_2   0.707207 0.659481 0.265824 -0.286260
O1    O     O_R   0.592030 0.539910 0.448670 -0.630373
O2    O     O_R   0.051340 0.091660 0.643070 -0.623431
O3    O     O_R   0.856270 0.908420 0.447910 -0.628607
O4    O     O_R   0.591210 0.643320 0.551340 -0.626154
O5    O     O_R   0.960500 0.908460 0.552180 -0.622796
O6    O     O_R   0.948660 0.908440 0.357030 -0.634404
O7    O     O_R   0.052890 0.908480 0.461300 -0.617949
O8    O     O_R   0.039500 0.091640 0.447920 -0.623592
O9    O     O_R   0.143730 0.091680 0.552190 -0.622703
O10   O     O_R   0.408090 0.448300 0.356360 -0.628927
O11   O     O_R   0.407280 0.551720 0.459030 -0.625092
O12   O     O_R   0.054880 0.643340 0.094730 -0.620076
O13   O     O_R   0.408790 0.356680 0.448660 -0.620107
O14   O     O_R   0.407970 0.460090 0.551330 -0.626248
O15   O     O_R   0.592720 0.448280 0.540970 -0.639188
O16   O     O_R   0.591910 0.551700 0.643640 -0.628166
O17   O     O_R   0.951440 0.539930 0.094760 -0.620559
O18   O     O_R   0.044460 0.448310 0.096120 -0.632202
O19   O     O_R   0.147900 0.551710 0.096100 -0.603282
O20   O     O_R   0.952840 0.356700 0.912890 -0.627892
O21   O     O_R   0.056280 0.460110 0.912860 -0.631071
O22   O     O_R   0.859820 0.448330 0.911520 -0.615742
O23   O     O_R   0.963270 0.551730 0.911500 -0.637691
O24   O     O_R   0.947110 0.091620 0.538800 -0.618158
Zn1   Zn    Zn3+2 0.500550 0.430950 0.431450 0.919924
Zn2   Zn    Zn3+2 0.499450 0.569050 0.568550 0.938718
Zn3   Zn    Zn3+2 0.934790 0.430980 0.003830 0.934206
Zn4   Zn    Zn3+2 0.072930 0.569070 0.003790 0.955540
Zn5   Zn    Zn3+2 0.930400 0.000020 0.430430 0.938116
Zn6   Zn    Zn3+2 0.069600 0.000080 0.569670 0.946722

loop_
_geom_bond_atom_site_label_1
_geom_bond_atom_site_label_2
_ccdc_geom_bond_type
O3    Zn5   S    
C27   O21   A    
O4    Zn2   S    
H24   N2    S    
C41   C42   S    
C3    H1    S    
C1    O1    A    
C58   H20   S    
C64   H51   S    
C7    C8    A    
C39   C41   A    
C62   H38   S    
C59   N2    S    
C31   C67   S    
C12   C23   S    
C19   H56   S    
C64   H52   S    
C66   H49   S    
C3    N7    S    
C21   C22   S    
C36   C37   A    
C61   H36   S    
C1    C56   S    
C47   H9    S    
C13   H45   S    
C60   H31   S    
C4    O11   A    
C38   C39   A    
C63   N6    S    
C33   O9    A    
C56   C65   A    
C14   N4    S    
C12   H17   S    
C53   H14   S    
C18   C19   A    
C32   C39   S    
O22   Zn3   S    
C51   H13   S    
C46   C47   A    
C63   H47   S    
C44   C53   S    
C35   C36   A    
C45   C56   A    
C44   C46   A    
C16   C17   S    
C42   H6    S    
C34   C57   S    
C57   H16   S    
H43   N6    S    
C59   H27   S    
C5    H12   S    
C35   C43   S    
O18   Zn3   S    
C5    H23   S    
C55   N6    S    
C43   H7    S    
C66   C67   A    
O21   Zn4   S    
C13   C14   S    
H19   N1    S    
C62   N5    S    
C25   O12   A    
C31   O3    A    
H50   N7    S    
C26   C54   S    
C52   C54   S    
C24   H2    S    
C50   C51   S    
O5    Zn6   S    
C60   N3    S    
C2    C45   A    
C43   H8    S    
C4    C34   S    
O19   Zn4   S    
C22   H57   S    
O20   Zn3   S    
C26   O19   A    
C60   H30   S    
C4    O10   A    
C8    C9    A    
C62   H40   S    
C25   C36   S    
C61   N4    S    
C40   C52   S    
C5    C45   S    
C7    C28   S    
O2    Zn6   S    
C16   O14   A    
C51   C53   S    
C63   H46   S    
C48   H10   S    
O13   Zn1   S    
C32   O7    A    
C37   C38   A    
C6    C14   S    
O14   Zn2   S    
C47   C48   A    
C64   N7    S    
C40   C55   S    
C42   H5    S    
C17   C18   A    
O17   Zn3   S    
O12   Zn4   S    
C6    C7    A    
C23   C34   S    
C20   C33   S    
C60   H29   S    
C27   C46   S    
C48   C49   A    
C30   C49   S    
O8    Zn5   S    
C2    C67   A    
H37   N5    S    
C55   C57   S    
C30   O2    A    
C34   C40   S    
C61   H33   S    
C42   C43   S    
C12   C57   S    
O11   Zn2   S    
O16   Zn2   S    
C6    C11   A    
O23   Zn4   S    
C29   O22   A    
C9    C10   A    
C44   C50   A    
C15   C17   A    
C54   C55   S    
C30   O24   A    
C28   O16   A    
C27   O20   A    
O6    Zn5   S    
C16   O13   A    
O24   Zn5   S    
C26   O18   A    
C24   H42   S    
C31   O5    A    
C3    C5    S    
C58   H21   S    
C52   N1    S    
O10   Zn1   S    
C65   H18   S    
H32   N4    S    
C62   H39   S    
C8    H34   S    
C40   H55   S    
C28   O15   A    
C9    N2    S    
C64   H53   S    
C19   C20   A    
C61   H35   S    
O9    Zn6   S    
C51   H11   S    
C32   O6    A    
C1    O4    A    
C15   C24   S    
C11   C13   S    
C10   C29   S    
C23   C52   S    
C33   O8    A    
C22   H41   S    
O1    Zn1   S    
C2    C3    S    
O7    Zn6   S    
C22   C24   S    
C59   H25   S    
C65   C66   A    
C63   H44   S    
C35   C41   A    
C58   H22   S    
C10   C11   A    
C18   H54   S    
C23   H48   S    
C13   N3    S    
H28   N3    S    
C15   C21   A    
O15   Zn1   S    
C20   C21   A    
C58   N1    S    
C49   C50   A    
C53   H15   S    
C59   H26   S    
C37   H3    S    
C25   O17   A    
C12   C54   S    
C38   H4    S    
C29   O23   A    
C14   N5    S    
