data_mof_unit_9769.cif
_audit_creation_date              2012-10-26T18:41:03-0400
_audit_creation_method            fapswitch 2.2
_symmetry_space_group_name_H-M    P1
_symmetry_Int_Tables_number       1
_space_group_crystal_system       triclinic
_cell_length_a                    19.453285
_cell_length_b                    18.312274
_cell_length_c                    10.834054
_cell_angle_alpha                 90.693013
_cell_angle_beta                  90.667501
_cell_angle_gamma                 90.610386
_cell_volume                      3858.68807742

loop_
_atom_site_label
_atom_site_type_symbol
_atom_type_description
_atom_site_fract_x
_atom_site_fract_y
_atom_site_fract_z
_atom_type_partial_charge
C1    C     C_R   0.367785 0.499447 0.500224 0.565281
C2    C     C_R   0.292323 0.498241 0.499861 -0.086076
C3    C     C_R   0.964990 0.571166 0.502360 -0.171119
C4    C     C_R   0.036401 0.570371 0.509149 -0.169921
C5    C     C_R   0.071764 0.504146 0.501628 0.003831
C6    C     C_R   0.927128 0.505533 0.500107 0.003184
C7    C     C_R   0.033772 0.438098 0.491197 0.312183
C8    C     C_R   0.962390 0.438584 0.503035 0.306647
C9    C     C_R   0.442908 0.721330 0.461967 0.360278
C10   C     C_R   0.557508 0.723179 0.535984 0.354955
C11   C     C_R   0.440499 0.797928 0.472568 -0.133970
C12   C     C_R   0.631930 0.500318 0.497775 0.579032
C13   C     C_R   0.559782 0.799786 0.524889 -0.134811
C14   C     C_R   0.500120 0.839467 0.498606 -0.043257
C15   C     C_R   0.505821 0.500102 0.262804 0.541280
C16   C     C_R   0.495738 0.500875 0.737829 0.539450
C17   C     C_R   0.546293 0.964762 0.573315 0.196541
C18   C     C_R   0.452922 0.961908 0.423432 0.204053
C19   C     C_R   0.550617 0.041672 0.560904 0.243745
C20   C     C_R   0.446009 0.038258 0.439051 0.261102
C21   C     C_R   0.497693 0.079759 0.500223 0.019651
C22   C     C_R   0.500036 0.922609 0.497982 -0.046192
C23   C     C_R   0.851085 0.506890 0.493959 0.006417
C24   C     C_R   0.489168 0.200876 0.388787 0.213498
C25   C     C_R   0.504243 0.202476 0.612301 0.222933
C26   C     C_R   0.493064 0.278319 0.391810 -0.015200
C27   C     C_R   0.504028 0.279858 0.608634 -0.005063
C28   C     C_R   0.496703 0.162332 0.500509 0.098168
C29   C     C_R   0.545054 0.633470 0.120785 -0.102029
C30   C     C_R   0.481602 0.639929 0.890622 -0.111217
C31   C     C_R   0.536012 0.700748 0.064648 -0.150374
C32   C     C_R   0.500713 0.704189 0.952893 -0.155366
C33   C     C_R   0.497273 0.570680 0.940562 0.019132
C34   C     C_R   0.147923 0.504108 0.504377 -0.003983
C35   C     C_R   0.518752 0.568404 0.064866 0.021376
C36   C     C_R   0.511893 0.501443 0.128606 -0.002944
C37   C     C_R   0.492588 0.503609 0.872788 -0.007808
C38   C     C_R   0.500602 0.436316 0.062488 -0.161879
C39   C     C_R   0.494002 0.437185 0.935559 -0.159101
C40   C     C_R   0.742725 0.456592 0.412150 0.227839
C41   C     C_R   0.254568 0.445061 0.564640 0.241838
C42   C     C_R   0.814784 0.461871 0.407657 0.256542
C43   C     C_R   0.183616 0.453701 0.578609 0.256258
C44   C     C_3   0.386782 0.689002 0.282265 0.017529
C45   C     C_R   0.814218 0.551015 0.577246 0.198344
C46   C     C_3   0.321548 0.726338 0.236272 -0.289730
C47   C     C_3   0.317282 0.725352 0.095482 -0.491503
C48   C     C_3   0.622125 0.698419 0.708367 0.012244
C49   C     C_3   0.692144 0.732965 0.740232 -0.281973
C50   C     C_3   0.706803 0.730565 0.878881 -0.487197
C51   C     C_3   0.562029 0.935532 0.775905 0.024695
C52   C     C_3   0.620583 0.930121 0.870527 -0.255723
C53   C     C_3   0.594219 0.929017 0.002525 -0.504565
C54   C     C_3   0.438344 0.929083 0.220590 0.025630
C55   C     C_3   0.380014 0.928726 0.124629 -0.256570
C56   C     C_R   0.185585 0.551951 0.428885 0.198762
C57   C     C_3   0.406858 0.923749 0.993143 -0.499217
C58   C     C_3   0.664921 0.068443 0.550820 0.012978
C59   C     C_3   0.722400 0.115995 0.607069 -0.265047
C60   C     C_3   0.790701 0.101799 0.543747 -0.491747
C61   C     C_3   0.330694 0.055378 0.465550 0.030424
C62   C     C_3   0.269993 0.033093 0.381888 -0.254349
C63   C     C_3   0.205423 0.018228 0.456632 -0.493248
C64   C     C_3   0.441989 0.195047 0.189071 0.006397
C65   C     C_3   0.407569 0.136956 0.107325 -0.348965
C66   C     C_3   0.547923 0.198423 0.814404 0.012741
C67   C     C_R   0.742596 0.548430 0.575565 -0.172804
C68   C     C_3   0.573800 0.141294 0.903969 -0.355357
C69   C     C_3   0.708304 0.340818 0.358978 0.036838
C70   C     C_3   0.667277 0.296130 0.263063 -0.255892
C71   C     C_3   0.663195 0.215823 0.297967 -0.492064
C72   C     C_3   0.296291 0.330934 0.525449 0.044463
C73   C     C_3   0.237673 0.274452 0.522675 -0.272032
C74   C     C_3   0.239279 0.228955 0.403851 -0.516996
C75   C     C_3   0.859605 0.455212 0.214301 0.021197
C76   C     C_3   0.895915 0.403726 0.124776 -0.245325
C77   C     C_3   0.906173 0.438485 0.999301 -0.508259
C78   C     C_R   0.257277 0.551323 0.433362 -0.178498
C79   C     C_3   0.144051 0.445793 0.774122 0.022658
C80   C     C_3   0.106425 0.396316 0.864196 -0.242248
C81   C     C_3   0.099413 0.432828 0.990582 -0.508167
C82   C     C_3   0.851985 0.571224 0.774231 -0.013608
C83   C     C_3   0.887751 0.626467 0.859718 -0.376026
C84   C     C_3   0.151570 0.574648 0.232089 -0.012915
C85   C     C_3   0.114348 0.628520 0.149934 -0.375034
C86   C     C_3   0.083373 0.365969 0.344022 -0.001363
C87   C     C_3   0.064665 0.289736 0.296681 -0.371155
C88   C     C_3   0.911830 0.358169 0.632212 0.003177
C89   C     C_R   0.706882 0.501317 0.495056 -0.060272
C90   C     C_3   0.874670 0.285013 0.638811 -0.371350
Cu1   Cu    Cu3+1 0.500000 0.573360 0.500000 1.006698
Cu2   Cu    Cu3+1 0.500000 0.426640 0.500000 0.926469
H1    H     H_    0.496737 0.384345 0.108729 0.113223
H2    H     H_    0.489858 0.756621 0.912440 0.093736
H3    H     H_    0.123627 0.521292 0.226160 0.121974
H4    H     H_    0.204679 0.568018 0.196482 0.118035
H5    H     H_    0.140760 0.682578 0.154745 0.156204
H6    H     H_    0.114263 0.608508 0.052795 0.085349
H7    H     H_    0.060376 0.634587 0.180487 0.153972
H8    H     H_    0.139762 0.374447 0.335747 0.120129
H9    H     H_    0.057302 0.405941 0.282504 0.096915
H10   H     H_    0.007990 0.281838 0.298082 0.176929
H11   H     H_    0.082790 0.282547 0.200535 0.080601
H12   H     H_    0.088955 0.247983 0.355835 0.159449
H13   H     H_    0.714650 0.582162 0.639686 0.152918
H14   H     H_    0.877504 0.400575 0.671284 0.099150
H15   H     H_    0.959612 0.355271 0.689381 0.132241
H16   H     H_    0.908264 0.241280 0.602514 0.161281
H17   H     H_    0.861806 0.272963 0.736109 0.084229
H18   H     H_    0.826413 0.286245 0.583048 0.145555
H19   H     H_    0.285579 0.590213 0.379407 0.174024
H20   H     H_    0.939396 0.623324 0.499561 0.176194
H21   H     H_    0.064000 0.621832 0.518238 0.174970
H22   H     H_    0.387316 0.632290 0.244715 0.164154
H23   H     H_    0.432418 0.718040 0.243684 0.126729
H24   H     H_    0.275360 0.698276 0.272820 0.188391
H25   H     H_    0.321298 0.783636 0.270745 0.171944
H26   H     H_    0.362780 0.753428 0.056180 0.158331
H27   H     H_    0.488935 0.385415 0.886795 0.122100
H28   H     H_    0.270188 0.754000 0.064763 0.141980
H29   H     H_    0.314903 0.668188 0.060018 0.149556
H30   H     H_    0.618557 0.643713 0.751264 0.166011
H31   H     H_    0.581506 0.732891 0.750910 0.117835
H32   H     H_    0.733604 0.703837 0.691023 0.204695
H33   H     H_    0.692917 0.790563 0.709354 0.162780
H34   H     H_    0.664771 0.756862 0.931103 0.153866
H35   H     H_    0.755680 0.760125 0.900361 0.141687
H36   H     H_    0.711721 0.673067 0.909060 0.150476
H37   H     H_    0.525624 0.888896 0.787434 0.125708
H38   H     H_    0.391484 0.823530 0.457485 0.176440
H39   H     H_    0.534262 0.987550 0.794185 0.157429
H40   H     H_    0.649867 0.879584 0.852837 0.167748
H41   H     H_    0.656238 0.977415 0.860148 0.169483
H42   H     H_    0.565695 0.979764 0.023593 0.139628
H43   H     H_    0.638368 0.925390 0.067941 0.144830
H44   H     H_    0.560173 0.880818 0.015824 0.136399
H45   H     H_    0.470563 0.879879 0.206869 0.128362
H46   H     H_    0.470859 0.978770 0.205280 0.147197
H47   H     H_    0.344919 0.881831 0.140554 0.165175
H48   H     H_    0.349794 0.979452 0.134845 0.162890
H49   H     H_    0.608824 0.826908 0.538748 0.174865
H50   H     H_    0.440831 0.971159 0.973494 0.138061
H51   H     H_    0.362931 0.923916 0.926810 0.145339
H52   H     H_    0.435604 0.872331 0.979668 0.135007
H53   H     H_    0.657845 0.083091 0.451966 0.114778
H54   H     H_    0.680690 0.010318 0.556269 0.174884
H55   H     H_    0.709067 0.174587 0.597797 0.153723
H56   H     H_    0.727928 0.103732 0.706932 0.164434
H57   H     H_    0.804366 0.043215 0.550265 0.146925
H58   H     H_    0.831932 0.134650 0.589851 0.142612
H59   H     H_    0.787601 0.117270 0.445085 0.144026
H60   H     H_    0.490582 0.308042 0.306844 0.120023
H61   H     H_    0.317363 0.104948 0.519861 0.130865
H62   H     H_    0.339106 0.010804 0.533639 0.122516
H63   H     H_    0.259606 0.076925 0.314445 0.151531
H64   H     H_    0.282936 0.982745 0.329429 0.195971
H65   H     H_    0.213867 0.971604 0.519482 0.150891
H66   H     H_    0.161931 0.004290 0.393071 0.144008
H67   H     H_    0.191629 0.067159 0.512183 0.143983
H68   H     H_    0.474657 0.230426 0.130506 0.109348
H69   H     H_    0.400073 0.228113 0.230531 0.114544
H70   H     H_    0.365486 0.109865 0.158327 0.172396
H71   H     H_    0.506529 0.310618 0.693643 0.128871
H72   H     H_    0.385417 0.162485 0.023572 0.094551
H73   H     H_    0.445281 0.095193 0.079229 0.152118
H74   H     H_    0.517209 0.238761 0.867163 0.106662
H75   H     H_    0.593966 0.225907 0.774687 0.121920
H76   H     H_    0.612157 0.106002 0.858347 0.178485
H77   H     H_    0.598551 0.168511 0.985417 0.084955
H78   H     H_    0.530514 0.106663 0.935222 0.148156
H79   H     H_    0.684753 0.333273 0.451296 0.138745
H80   H     H_    0.761793 0.319891 0.361833 0.174973
H81   H     H_    0.614460 0.318155 0.255237 0.182103
H82   H     H_    0.573473 0.633185 0.207082 0.150255
H83   H     H_    0.692108 0.300949 0.171577 0.160575
H84   H     H_    0.715413 0.191979 0.300415 0.134128
H85   H     H_    0.631360 0.185246 0.228648 0.169413
H86   H     H_    0.639291 0.210077 0.389929 0.159539
H87   H     H_    0.344760 0.302108 0.547868 0.163979
H88   H     H_    0.303324 0.353650 0.431033 0.120625
H89   H     H_    0.242558 0.238128 0.603682 0.157556
H90   H     H_    0.187232 0.301715 0.527078 0.244441
H91   H     H_    0.227538 0.263703 0.323121 0.138819
H92   H     H_    0.199968 0.184789 0.407575 0.148079
H93   H     H_    0.452597 0.646008 0.805986 0.149046
H94   H     H_    0.290798 0.204731 0.391152 0.166379
H95   H     H_    0.892403 0.504795 0.230158 0.116415
H96   H     H_    0.809354 0.471251 0.172803 0.155256
H97   H     H_    0.946797 0.388829 0.164069 0.165666
H98   H     H_    0.864711 0.352887 0.112344 0.171563
H99   H     H_    0.855587 0.452547 0.958064 0.134140
H100  H     H_    0.932132 0.399371 0.936640 0.134987
H101  H     H_    0.938717 0.488426 0.008967 0.144236
H102  H     H_    0.114527 0.497296 0.764160 0.113950
H103  H     H_    0.196261 0.458716 0.812613 0.145197
H104  H     H_    0.554307 0.750353 0.110027 0.101155
H105  H     H_    0.054352 0.383000 0.826827 0.157459
H106  H     H_    0.135127 0.344541 0.874599 0.176155
H107  H     H_    0.150976 0.444780 0.031547 0.134715
H108  H     H_    0.071118 0.395715 0.052785 0.137702
H109  H     H_    0.070259 0.484370 0.982490 0.142716
H110  H     H_    0.882826 0.520406 0.773195 0.125068
H111  H     H_    0.799925 0.559569 0.811555 0.119224
H112  H     H_    0.860149 0.679194 0.857744 0.159168
H113  H     H_    0.888146 0.606088 0.955775 0.086157
H114  H     H_    0.941570 0.635468 0.829799 0.151840
N1    N     N_R   0.500000 0.683620 0.500000 -0.216265
N2    N     N_R   0.500000 0.316380 0.500000 -0.284927
O1    O     O_R   0.400190 0.561980 0.499980 -0.448658
O2    O     O_3   0.615559 0.688692 0.578752 -0.547476
O3    O     O_3   0.590215 0.931851 0.656363 -0.591466
O4    O     O_3   0.409480 0.926669 0.339754 -0.587263
O5    O     O_3   0.604015 0.080281 0.617398 -0.537839
O6    O     O_3   0.388442 0.072203 0.391844 -0.537677
O7    O     O_3   0.483962 0.160906 0.278635 -0.554535
O8    O     O_3   0.505659 0.164205 0.722911 -0.547405
O9    O     O_3   0.706930 0.414986 0.324890 -0.561614
O10   O     O_3   0.286180 0.385483 0.617755 -0.538552
O11   O     O_3   0.849680 0.417833 0.325572 -0.532489
O12   O     O_R   0.599810 0.561980 0.500020 -0.448846
O13   O     O_3   0.148893 0.409035 0.659413 -0.527206
O14   O     O_3   0.847771 0.600553 0.654800 -0.567381
O15   O     O_3   0.152653 0.601807 0.354549 -0.562759
O16   O     O_3   0.065359 0.371926 0.469986 -0.511400
O17   O     O_3   0.927453 0.372567 0.507985 -0.498297
O18   O     O_R   0.400190 0.438070 0.500040 -0.487154
O19   O     O_R   0.599810 0.438070 0.499960 -0.487265
O20   O     O_R   0.500000 0.561970 0.319650 -0.519418
O21   O     O_R   0.500000 0.561970 0.680350 -0.518759
O22   O     O_R   0.500010 0.438060 0.319710 -0.520288
O23   O     O_R   0.499990 0.438060 0.680290 -0.516723
O24   O     O_3   0.386240 0.685222 0.412935 -0.552062

loop_
_geom_bond_atom_site_label_1
_geom_bond_atom_site_label_2
_ccdc_geom_bond_type
C1    O18   A    
C66   C68   S    
C75   C76   S    
C34   C56   A    
C23   C45   A    
C80   C81   S    
C40   O9    S    
C73   C74   S    
C64   O7    S    
C32   H2    S    
C75   H96   S    
C53   H43   S    
C63   H67   S    
C29   H82   S    
Cu1   O1    S    
C3    C6    A    
C61   H62   S    
C81   H108  S    
C6    C8    A    
C41   O10   S    
C51   H37   S    
C58   H53   S    
C55   H47   S    
C7    C8    A    
C71   H84   S    
C25   C28   A    
C79   H102  S    
C66   H75   S    
Cu1   O21   S    
C9    O24   S    
C2    C78   A    
C45   O14   S    
C71   H86   S    
C43   O13   S    
C24   C26   A    
C1    C2    S    
C83   H114  S    
C48   H30   S    
C31   H104  S    
Cu1   O20   S    
C11   C14   A    
C47   H29   S    
C54   H45   S    
C74   H92   S    
C6    C23   S    
C2    C41   A    
C65   H73   S    
C16   O21   A    
C67   C89   A    
C72   H87   S    
C56   C78   A    
C62   H63   S    
C65   H72   S    
C27   N2    A    
C84   H4    S    
Cu1   O12   S    
C77   H101  S    
C85   H6    S    
C27   H71   S    
C46   C47   S    
C68   H78   S    
C10   O2    S    
C47   H26   S    
C35   C36   A    
C44   H23   S    
C44   O24   S    
C65   H70   S    
C45   C67   A    
C78   H19   S    
C50   H34   S    
Cu2   O22   S    
C40   C89   A    
C86   H8    S    
C70   H83   S    
C57   H52   S    
C16   C37   S    
C59   H56   S    
C40   C42   A    
Cu2   O18   S    
C59   C60   S    
C13   C14   A    
C66   O8    S    
C52   H41   S    
C41   C43   A    
C61   C62   S    
C53   H44   S    
C86   O16   S    
C48   H31   S    
C44   C46   S    
C88   H14   S    
C79   O13   S    
C38   C39   A    
C75   H95   S    
C57   H51   S    
C1    O1    A    
C51   C52   S    
C77   H99   S    
C30   H93   S    
C12   C89   S    
C85   H5    S    
C76   C77   S    
Cu2   O19   S    
C42   O11   S    
C9    N1    A    
Cu1   Cu2   S    
C5    C7    A    
C88   H15   S    
C66   H74   S    
C86   C87   S    
C67   H13   S    
C12   O19   A    
C81   H109  S    
C74   H91   S    
Cu2   O23   S    
C58   C59   S    
C49   H32   S    
C10   C13   A    
C33   C37   A    
C55   H48   S    
C79   C80   S    
C46   H25   S    
C19   O5    S    
C69   H80   S    
C52   H40   S    
C18   O4    S    
C10   N1    A    
C57   H50   S    
C62   C63   S    
C85   H7    S    
C87   H10   S    
C73   H89   S    
C68   H77   S    
C4    H21   S    
C31   C32   A    
C88   O17   S    
C75   O11   S    
C3    H20   S    
C83   H112  S    
C80   H106  S    
C5    C34   S    
C64   H68   S    
C60   H58   S    
C84   C85   S    
C23   C42   A    
C70   C71   S    
C87   H11   S    
C68   H76   S    
C48   C49   S    
C21   C28   S    
C48   O2    S    
C82   C83   S    
C79   H103  S    
C13   H49   S    
C9    C11   A    
C15   O22   A    
C69   O9    S    
C50   H36   S    
C61   O6    S    
C63   H65   S    
C17   C19   A    
C3    C4    A    
C11   H38   S    
C15   C36   S    
C72   O10   S    
C52   C53   S    
C82   H110  S    
C54   C55   S    
C47   H28   S    
C51   H39   S    
C30   C33   A    
C19   C21   A    
C18   C22   A    
C77   H100  S    
C24   O7    S    
C25   O8    S    
C26   N2    A    
C53   H42   S    
C24   C28   A    
C88   C90   S    
C72   C73   S    
C17   O3    S    
C84   O15   S    
C61   H61   S    
C81   H107  S    
C56   O15   S    
Cu1   N1    S    
C8    O17   S    
C58   H54   S    
C71   H85   S    
C82   O14   S    
Cu2   N2    S    
C25   C27   A    
C49   H33   S    
C29   C35   A    
C16   O23   A    
C17   C22   A    
C63   H66   S    
C46   H24   S    
C15   O20   A    
C64   C65   S    
C14   C22   S    
C55   C57   S    
C76   H97   S    
C90   H16   S    
C29   C31   A    
C36   C38   A    
C30   C32   A    
C7    O16   S    
C83   H113  S    
C73   H90   S    
C64   H69   S    
C54   H46   S    
C39   H27   S    
C80   H105  S    
C38   H1    S    
C26   H60   S    
C33   C35   A    
C60   H59   S    
C62   H64   S    
C18   C20   A    
C60   H57   S    
C69   H79   S    
C69   C70   S    
C70   H81   S    
C76   H98   S    
C44   H22   S    
C87   H12   S    
C58   O5    S    
C51   O3    S    
C82   H111  S    
C4    C5    A    
C20   C21   A    
C54   O4    S    
C37   C39   A    
C49   C50   S    
C84   H3    S    
C72   H88   S    
C50   H35   S    
C90   H17   S    
C34   C43   A    
C86   H9    S    
C12   O12   A    
C20   O6    S    
C74   H94   S    
C90   H18   S    
C59   H55   S    
