data_mof_unit_35666.cif
_audit_creation_date              2013-03-05T16:08:20-0500
_audit_creation_method            fapswitch 2.2
_symmetry_space_group_name_H-M    P1
_symmetry_Int_Tables_number       1
_space_group_crystal_system       triclinic
_cell_length_a                    6.976826
_cell_length_b                    14.503763
_cell_length_c                    16.097451
_cell_angle_alpha                 90.002813
_cell_angle_beta                  89.977876
_cell_angle_gamma                 89.952181
_cell_volume                      1628.90409118

loop_
_atom_site_label
_atom_site_type_symbol
_atom_site_description
_atom_site_fract_x
_atom_site_fract_y
_atom_site_fract_z
_atom_type_partial_charge
O1    O     O_R   0.505700 0.583890 0.413310 -0.592184
O2    O     O_R   0.175960 0.594920 0.586080 -0.605801
O3    O     O_R   0.005660 0.416110 0.586690 -0.596032
C1    C     C_R   0.344848 0.617513 0.614243 1.005398
O4    O     O_R   0.175980 0.594920 0.413930 -0.604491
O5    O     O_R   0.005680 0.416110 0.413310 -0.599883
C2    C     C_R   0.344729 0.616997 0.385325 0.920016
O6    O     O_R   0.505680 0.583890 0.586690 -0.575867
O7    O     O_3   0.339200 0.441330 0.500000 -0.278757
V1    V     V_3+5 0.064350 0.510880 0.500000 1.157615
O8    O     O_R   0.675960 0.405080 0.413920 -0.594947
C3    C     C_R   0.845049 0.383466 0.384903 0.921669
O9    O     O_R   0.675940 0.405080 0.586070 -0.572279
C4    C     C_R   0.844693 0.383186 0.614879 0.973428
V2    V     V_3+5 0.564340 0.489120 0.500000 1.176290
O10   O     O_3   0.839360 0.558670 0.500000 -0.282357
C5    C     C_R   0.998065 0.321725 0.745374 0.090877
C6    C     C_R   0.852129 0.317809 0.685693 -0.198832
C7    C     C_R   0.704677 0.253077 0.699167 -0.103080
H1    H     H_    0.585394 0.248723 0.656444 0.103771
C8    C     C_R   0.715676 0.189240 0.765101 -0.069903
H2    H     H_    0.604385 0.137729 0.770870 0.097176
C9    C     C_R   0.874653 0.188046 0.819411 -0.193215
C10   C     C_R   0.008784 0.259195 0.810698 -0.137072
C11   C     C_3   0.224999 0.257830 0.808082 0.294125
C12   C     C_3   0.211090 0.327404 0.736448 0.113082
H3    H     H_    0.281118 0.189797 0.787730 0.040946
H4    H     H_    0.262784 0.301548 0.675430 0.015768
C13   C     C_R   0.725478 0.183939 0.239960 -0.039156
C14   C     C_R   0.881211 0.182929 0.184981 -0.230398
C15   C     C_R   0.032649 0.244516 0.200898 -0.055235
H5    H     H_    0.155077 0.246444 0.159878 0.134938
C16   C     C_R   0.022358 0.308272 0.266754 -0.188666
H6    H     H_    0.138049 0.357018 0.274753 0.131559
C17   C     C_R   0.858793 0.313453 0.317980 -0.171526
C18   C     C_R   0.713321 0.248887 0.304203 0.079536
C19   C     C_3   0.504779 0.266116 0.290951 -0.605582
C20   C     C_3   0.516798 0.196604 0.220410 0.464236
H7    H     H_    0.476545 0.337539 0.269048 0.168263
H8    H     H_    0.416019 0.243954 0.344669 0.210307
H9    H     H_    0.496634 0.229215 0.158619 0.053165
C21   C     C_R   0.512340 0.746535 0.690058 0.030433
C22   C     C_R   0.353743 0.687977 0.680807 -0.154217
C23   C     C_R   0.205278 0.695811 0.739548 -0.059594
H10   H     H_    0.081811 0.651137 0.735843 0.160239
C24   C     C_R   0.221308 0.756331 0.807512 0.010033
H11   H     H_    0.113831 0.755464 0.855043 0.178832
C25   C     C_R   0.380154 0.814207 0.817107 -0.202647
C26   C     C_R   0.525598 0.807245 0.757790 -0.135142
C27   C     C_3   0.731036 0.779945 0.771811 0.803971
C28   C     C_3   0.718936 0.719935 0.694001 -0.624532
H12   H     H_    0.740609 0.644880 0.704169 0.241827
H13   H     H_    0.800694 0.747073 0.640053 0.178714
C29   C     C_R   0.508667 0.682999 0.259683 0.089714
C30   C     C_R   0.352742 0.682047 0.314388 -0.181057
C31   C     C_R   0.200036 0.742422 0.297048 -0.173069
H14   H     H_    0.076415 0.744256 0.337394 0.127425
C32   C     C_R   0.211351 0.805817 0.230978 -0.017565
H15   H     H_    0.094903 0.853920 0.222142 0.120948
C33   C     C_R   0.375598 0.811018 0.180146 -0.259111
C34   C     C_R   0.518564 0.744556 0.192912 -0.038753
C35   C     C_3   0.730084 0.757026 0.206054 0.449784
C36   C     C_3   0.716822 0.690754 0.279235 -0.595278
H16   H     H_    0.764315 0.828615 0.225690 0.039385
H17   H     H_    0.741103 0.724823 0.340195 0.168932
H18   H     H_    0.795130 0.624651 0.271011 0.204061
O11   O     O_R   0.229000 0.916070 0.913330 -0.576933
O12   O     O_R   0.558770 0.905070 0.086080 -0.590894
O13   O     O_R   0.729000 0.083900 0.086690 -0.598712
C37   C     C_R   0.389675 0.882231 0.114184 0.960079
O14   O     O_R   0.558720 0.905070 0.913930 -0.553995
O15   O     O_R   0.728960 0.083900 0.913310 -0.591043
C38   C     C_R   0.390094 0.881959 0.886078 0.929631
O16   O     O_R   0.229050 0.916070 0.086710 -0.579827
O17   O     O_3   0.395460 0.058650 0.000020 -0.277233
V3    V     V_3+5 0.670340 0.989120 0.000000 1.232236
O18   O     O_R   0.058670 0.094960 0.913900 -0.614165
C39   C     C_R   0.889415 0.117488 0.885706 0.920223
O19   O     O_R   0.058720 0.094960 0.086050 -0.579472
C40   C     C_R   0.889822 0.117069 0.114639 0.908246
V4    V     V_3+5 0.170330 0.010930 0.999970 1.208517
O20   O     O_3   0.895340 0.941350 0.999980 -0.218793
O21   O     O_3   0.394717 0.118507 0.229479 -0.608659
C41   C     C_3   0.441360 0.058251 0.295791 0.340164
H19   H     H_    0.527267 0.090261 0.346224 0.072117
H20   H     H_    0.523022 0.998673 0.270596 0.076799
C42   C     C_3   0.256239 0.023560 0.334618 -0.968046
H21   H     H_    0.158973 0.996898 0.285757 0.256715
H22   H     H_    0.287831 0.967660 0.379737 0.212547
H23   H     H_    0.182846 0.081001 0.367417 0.254438
N1    N     N_R   0.751137 0.725436 0.848569 0.203063
O22   O     O_R   0.681640 0.642289 0.853579 -0.410887
O23   O     O_R   0.804176 0.766043 0.916760 -0.412762
O24   O     O_3   0.872769 0.850710 0.767181 -0.645268
C43   C     C_3   0.821697 0.927254 0.717357 0.275231
H24   H     H_    0.718248 0.971587 0.751511 0.091791
H25   H     H_    0.758231 0.906127 0.656922 0.077022
C44   C     C_3   0.001031 0.983262 0.698943 -0.944564
H26   H     H_    0.103297 0.941275 0.661898 0.252665
H27   H     H_    0.962488 0.046089 0.663191 0.207611
H28   H     H_    0.071750 0.004146 0.757752 0.260223
O25   O     O_3   0.855358 0.726551 0.141469 -0.610474
C45   C     C_3   0.786813 0.650373 0.095041 0.346570
H29   H     H_    0.678233 0.674231 0.049335 0.151493
H30   H     H_    0.721931 0.595983 0.134684 0.050872
C46   C     C_3   0.953907 0.606662 0.048608 -0.771209
H31   H     H_    0.058871 0.578061 0.093661 0.215426
H32   H     H_    0.901013 0.549962 0.008326 0.224156
H33   H     H_    0.027218 0.658805 0.009394 0.277484
O26   O     O_3   0.330874 0.293616 0.876850 -0.571749
C47   C     C_3   0.217317 0.319504 0.945752 0.400624
H34   H     H_    0.144101 0.258406 0.972657 0.073017
H35   H     H_    0.109987 0.372779 0.928005 0.121076
C48   C     C_3   0.346413 0.361161 0.011900 -0.923918
H36   H     H_    0.416607 0.424292 0.987420 0.286092
H37   H     H_    0.260406 0.379836 0.067479 0.188566
H38   H     H_    0.458675 0.310771 0.030010 0.246814
N2    N     N_R   0.286420 0.418783 0.757584 0.276662
O27   O     O_R   0.173499 0.484461 0.782988 -0.419344
O28   O     O_R   0.469900 0.433808 0.753810 -0.350455

loop_
_geom_bond_atom_site_label_1
_geom_bond_atom_site_label_2
_geom_bond_distance
_ccdc_geom_bond_type
C42   H21   1.108830 S    
C36   H17   1.111773 S    
C20   O21   1.425250 S    
C4    C6    1.483672 S    
C43   H24   1.111544 S    
C41   C42   1.520662 S    
C2    C30   1.482342 S    
C1    O6    1.300890 A    
C48   H36   1.110917 S    
C43   C44   1.521394 S    
O18   C39   1.306506 A    
C13   C18   1.401334 A    
C35   C36   1.523277 S    
C5    C12   1.495451 S    
C18   C19   1.491473 S    
C7    C8    1.410558 A    
C41   H20   1.111186 S    
C19   H8    1.111083 S    
O5    C3    1.300183 A    
C14   C15   1.407694 A    
C29   C36   1.490434 S    
C32   C33   1.409900 A    
V2    O10   2.168512 S    
C44   H26   1.111052 S    
C31   H14   1.079772 S    
O13   V3    2.001444 S    
C6    C7    1.410066 A    
C24   H11   1.071167 S    
N2    O27   1.301456 A    
C35   H16   1.111512 S    
O25   C45   1.417420 S    
O26   C47   1.413382 S    
O8    V2    2.002414 S    
C15   H5    1.079811 S    
C13   C20   1.500804 S    
C37   O16   1.300701 A    
O15   C39   1.299436 A    
C9    C10   1.400642 A    
C15   C16   1.408477 A    
O11   C38   1.303491 A    
C33   C37   1.484625 S    
C47   C48   1.520423 S    
C13   C14   1.401153 A    
O7    V1    2.165973 S    
O15   V3    2.001262 S    
C21   C28   1.493185 S    
C14   C40   1.482552 S    
C36   H18   1.110966 S    
O9    C4    1.304565 A    
O24   C43   1.415047 S    
C23   C24   1.407155 A    
C5    C6    1.401320 A    
C24   C25   1.399416 A    
C5    C10   1.390654 A    
C28   H12   1.111041 S    
C10   C11   1.509177 S    
C20   H9    1.110376 S    
C45   H30   1.111254 S    
V3    O20   1.715355 S    
N1    O22   1.302643 A    
O19   V4    2.002296 S    
O17   V4    1.716952 S    
C27   C28   1.527629 S    
C32   H15   1.079903 S    
V4    O20   2.168530 S    
C33   C34   1.401757 A    
C28   H13   1.111074 S    
C17   C18   1.399260 A    
O2    C1    1.304740 A    
O17   V3    2.166023 S    
C19   C20   1.520703 S    
N1    O23   1.299750 A    
O21   C41   1.417398 S    
O18   V4    2.002822 S    
C30   C31   1.406584 A    
C16   H6    1.081183 S    
C47   H35   1.112931 S    
C41   H19   1.111160 S    
C3    C17   1.483421 S    
O3    C4    1.302184 A    
C11   O26   1.428879 S    
O1    V2    2.000942 S    
C25   C26   1.396681 A    
C1    C22   1.482061 S    
O11   V4    2.001006 S    
O6    V2    2.000653 S    
C44   H27   1.110682 S    
C8    C9    1.412642 A    
C22   C23   1.406764 A    
O12   V3    2.003238 S    
C21   C22   1.403402 A    
O16   V4    2.002514 S    
O2    V1    2.003592 S    
C23   H10   1.079985 S    
O4    C2    1.304186 A    
C29   C30   1.399432 A    
C47   H34   1.111030 S    
O1    C2    1.301655 A    
C25   C38   1.484298 S    
C27   O24   1.427738 S    
C12   N2    1.466212 S    
O5    V1    2.001361 S    
C48   H37   1.110473 S    
O8    C3    1.306561 A    
C43   H25   1.112164 S    
C29   C34   1.399029 A    
C11   H3    1.110631 S    
C44   H28   1.109939 S    
C12   H4    1.111284 S    
C7    H1    1.081704 S    
O9    V2    2.002746 S    
C11   C12   1.535380 S    
O4    V1    2.003203 S    
C19   H7    1.111739 S    
O3    V1    2.001262 S    
V1    O10   1.715409 S    
O14   V3    2.003598 S    
C46   H32   1.110676 S    
C16   C17   1.409619 A    
C31   C32   1.408171 A    
C45   C46   1.522394 S    
C9    C39   1.482148 S    
O7    V2    1.717425 S    
C34   C35   1.501985 S    
N2    O28   1.300100 A    
C48   H38   1.109872 S    
C21   C26   1.404566 A    
O19   C40   1.304649 A    
C27   N1    1.473583 S    
O12   C37   1.306309 A    
C26   C27   1.503793 S    
C46   H31   1.110973 S    
C42   H23   1.110888 S    
O14   C38   1.303271 A    
C45   H29   1.111290 S    
C42   H22   1.110542 S    
O13   C40   1.301565 A    
C8    H2    1.081944 S    
C35   O25   1.427856 S    
C46   H33   1.110168 S    
