data_mof_unit_16986.cif
_audit_creation_date              2012-12-11T16:05:00-0500
_audit_creation_method            fapswitch 2.2
_symmetry_space_group_name_H-M    P1
_symmetry_Int_Tables_number       1
_space_group_crystal_system       triclinic
_cell_length_a                    10.688113
_cell_length_b                    10.556421
_cell_length_c                    16.914484
_cell_angle_alpha                 98.656028
_cell_angle_beta                  98.679861
_cell_angle_gamma                 61.541242
_cell_volume                      1651.80601122

loop_
_atom_site_label
_atom_site_type_symbol
_atom_type_description
_atom_site_fract_x
_atom_site_fract_y
_atom_site_fract_z
_atom_type_partial_charge
C1    C     C_R   0.353469 0.778033 0.399689 0.541566
C2    C     C_3   0.724158 0.310255 0.235690 -0.135944
C3    C     C_3   0.778542 0.370607 0.313396 0.053879
C4    C     C_3   0.934021 0.260434 0.301237 -0.114044
C5    C     C_3   0.944731 0.371317 0.256236 -0.129237
C6    C     C_3   0.788623 0.481705 0.269474 -0.113837
C7    C     C_3   0.734989 0.421065 0.190648 -0.113876
C8    C     C_3   0.890518 0.311382 0.178393 0.056135
C9    C     C_3   0.467294 0.784654 0.221925 -0.131616
C10   C     C_3   0.410028 0.694870 0.254773 -0.116656
C11   C     C_3   0.343012 0.818975 0.320405 0.056104
C12   C     C_R   0.370483 0.346320 0.358823 0.542986
C13   C     C_3   0.401463 0.907437 0.289355 -0.123377
C14   C     C_3   0.260007 0.976481 0.235297 -0.112176
C15   C     C_3   0.202571 0.886939 0.267638 -0.118424
C16   C     C_3   0.268697 0.763617 0.201371 -0.113049
C17   C     C_3   0.326214 0.852115 0.169670 0.059553
C18   C     C_3   0.477093 0.264921 0.786927 -0.004277
C19   C     C_3   0.443965 0.410521 0.759110 -0.164321
C20   C     C_3   0.376339 0.368407 0.679805 0.037581
C21   C     C_3   0.410684 0.222717 0.707554 -0.106497
C22   C     C_3   0.263462 0.295740 0.741162 -0.118706
C23   C     C_R   0.717273 0.409884 0.389529 0.552832
C24   C     C_3   0.228544 0.442069 0.712347 -0.093288
C25   C     C_3   0.295960 0.482540 0.793547 -0.140124
C26   C     C_3   0.331759 0.336130 0.820894 0.038597
C27   C     C_1   0.773059 0.365393 0.715057 -0.048235
C28   C     C_1   0.817162 0.328340 0.781745 -0.040433
C29   C     C_1   0.338521 0.811594 0.709859 -0.042672
C30   C     C_1   0.313338 0.838620 0.778591 -0.040759
C31   C     C_R   0.950869 0.287494 0.103262 0.544943
C32   C     C_R   0.319158 0.300287 0.120177 0.532501
C33   C     C_R   0.295760 0.888727 0.087821 0.530137
C34   C     C_R   0.356756 0.771351 0.627247 0.535137
C35   C     C_R   0.879676 0.302049 0.861922 0.563472
C36   C     C_R   0.309818 0.296608 0.893828 0.544087
C37   C     C_R   0.280043 0.884359 0.859086 0.537776
C38   C     C_R   0.408234 0.378395 0.601303 0.547722
C39   C     C_R   0.720291 0.409539 0.635897 0.536287
C40   C     C_1   0.343784 0.336255 0.275084 -0.068278
C41   C     C_1   0.331666 0.326957 0.203857 -0.064429
C42   C     C_3   0.880769 0.199572 0.221852 -0.120161
Cr1   Cr    Cr6+3 0.608340 0.611040 0.520430 1.019697
Cr2   Cr    Cr6+3 0.287650 0.601120 0.489350 1.022316
Cr3   Cr    Cr6+3 0.604040 0.287870 0.490280 1.023103
Cr4   Cr    Cr6+3 0.054020 0.052700 0.970850 1.054159
Cr5   Cr    Cr6+3 0.059230 0.375120 0.993390 1.025513
Cr6   Cr    Cr6+3 0.374950 0.061200 0.992340 1.037086
H1    H     H_    0.632709 0.286035 0.229346 0.123048
H2    H     H_    0.200208 0.092611 0.224469 0.100034
H3    H     H_    0.096035 0.927562 0.289442 0.119933
H4    H     H_    0.216279 0.703304 0.163821 0.126432
H5    H     H_    0.514495 0.462075 0.765879 0.091998
H6    H     H_    0.457804 0.115684 0.672152 0.141695
H7    H     H_    0.188476 0.248991 0.735340 0.125313
H8    H     H_    0.126408 0.514930 0.679786 0.150753
H9    H     H_    0.248668 0.587765 0.830519 0.137378
H10   H     H_    0.917847 0.084501 0.198795 0.128284
H11   H     H_    0.013518 0.196132 0.348570 0.127043
H12   H     H_    0.036243 0.395543 0.262806 0.116293
H13   H     H_    0.751993 0.596996 0.291917 0.127193
H14   H     H_    0.655318 0.484848 0.143210 0.125396
H15   H     H_    0.469455 0.578730 0.265479 0.098354
H16   H     H_    0.572689 0.745689 0.199106 0.114527
H17   H     H_    0.453908 0.967154 0.327469 0.134043
O1    O     O_R   0.751220 0.499230 0.435170 -0.503463
O2    O     O_R   0.297880 0.469080 0.560050 -0.493845
O3    O     O_R   0.489720 0.254590 0.564810 -0.517342
O4    O     O_R   0.725220 0.304230 0.585080 -0.493060
O5    O     O_3   0.500010 0.500010 0.500020 -0.312502
O6    O     O_R   0.171830 0.913880 0.057510 -0.527691
O7    O     O_R   0.940690 0.186050 0.054730 -0.491775
O8    O     O_R   0.920470 0.405720 0.075010 -0.514583
O9    O     O_R   0.196690 0.370460 0.084120 -0.517645
O10   O     O_R   0.412990 0.180750 0.091610 -0.504519
O11   O     O_R   0.366620 0.943130 0.065760 -0.501482
O12   O     O_R   0.477220 0.727600 0.436870 -0.515382
O13   O     O_R   0.160510 0.906330 0.879210 -0.504233
O14   O     O_R   0.930190 0.179050 0.889450 -0.462102
O15   O     O_R   0.909140 0.398170 0.896710 -0.507240
O16   O     O_R   0.186190 0.363460 0.918830 -0.500595
O17   O     O_R   0.401670 0.173200 0.913310 -0.503136
O18   O     O_R   0.356120 0.936130 0.900470 -0.492148
O19   O     O_3   0.162740 0.163010 0.985530 -0.277910
O20   O     O_R   0.258650 0.745120 0.411470 -0.511325
O21   O     O_R   0.297070 0.467240 0.395960 -0.488869
O22   O     O_R   0.488830 0.252610 0.387790 -0.518779
O23   O     O_R   0.724400 0.302390 0.420980 -0.490074
O24   O     O_R   0.752100 0.501210 0.612190 -0.488275
O25   O     O_R   0.478040 0.729440 0.600970 -0.510957
O26   O     O_R   0.259530 0.747110 0.588490 -0.509210
C43   C     C_1   0.613906 0.163504 0.826130 0.217238
N1    N     N_1   0.720795 0.081879 0.856998 -0.265569

loop_
_geom_bond_atom_site_label_1
_geom_bond_atom_site_label_2
_ccdc_geom_bond_type
C18   C21   S    
C1    O12   A    
Cr6   O11   S    
C3    C23   S    
C2    C7    S    
C1    C11   S    
C3    C6    S    
C42   H10   S    
C32   O10   A    
C7    C8    S    
C13   H17   S    
Cr1   O24   S    
C25   H9    S    
C6    H13   S    
Cr3   O22   S    
C8    C42   S    
C32   O9    A    
C5    C6    S    
C31   O8    A    
C15   C16   S    
C9    H16   S    
C35   O15   A    
C18   C19   S    
C9    C13   S    
C34   O26   A    
C11   C15   S    
C10   H15   S    
C19   C20   S    
C28   C35   S    
C36   O17   A    
C16   C17   S    
C18   C26   S    
C32   C41   S    
Cr2   O5    S    
C15   H3    S    
C9    C10   S    
Cr4   O7    S    
C12   O22   A    
C19   H5    S    
C21   C22   S    
Cr6   O10   S    
C17   C33   S    
Cr5   O15   S    
Cr2   O21   S    
C1    O20   A    
Cr1   O25   S    
C14   H2    S    
Cr3   O4    S    
C20   C24   S    
Cr3   O23   S    
C24   C25   S    
Cr5   O8    S    
C27   C39   S    
Cr4   O13   S    
C25   C26   S    
C29   C34   S    
Cr6   O19   S    
C30   C37   S    
C12   C40   S    
C34   O25   A    
C7    H14   S    
C29   C30   T    
C2    H1    S    
C20   C38   S    
C33   O11   A    
C36   O16   A    
Cr3   O3    S    
C39   O4    A    
Cr5   O19   S    
C20   C21   S    
Cr4   O6    S    
C6    C7    S    
Cr2   O26   S    
Cr4   O19   S    
C9    C17   S    
C31   O7    A    
C38   O3    A    
Cr1   O5    S    
C23   O23   A    
C22   C24   S    
Cr1   O12   S    
C3    C4    S    
C23   O1    A    
C26   C36   S    
C40   C41   T    
C5    H12   S    
Cr3   O5    S    
C8    C31   S    
C16   H4    S    
Cr5   O9    S    
C4    C5    S    
C5    C8    S    
C22   H7    S    
C24   H8    S    
C37   O13   A    
Cr6   O18   S    
C12   O21   A    
C21   H6    S    
C18   C43   S    
C2    C3    S    
C10   C16   S    
C11   C13   S    
Cr4   O14   S    
C4    C42   S    
C2    C42   S    
Cr1   O1    S    
C4    H11   S    
C35   O14   A    
C43   N1    T    
Cr6   O17   S    
Cr5   O16   S    
C19   C25   S    
C10   C11   S    
C33   O6    A    
C38   O2    A    
C22   C26   S    
C27   C28   T    
C14   C15   S    
C37   O18   A    
Cr2   O2    S    
C13   C14   S    
C39   O24   A    
Cr2   O20   S    
C14   C17   S    
