data_mof_unit_44684.cif
_audit_creation_date              2012-12-10T17:11:05-0500
_audit_creation_method            fapswitch 2.2
_symmetry_space_group_name_H-M    P1
_symmetry_Int_Tables_number       1
_space_group_crystal_system       triclinic
_cell_length_a                    18.199676
_cell_length_b                    18.35653
_cell_length_c                    18.365939
_cell_angle_alpha                 90.567841
_cell_angle_beta                  120.111434
_cell_angle_gamma                 119.385121
_cell_volume                      4349.77198836

loop_
_atom_site_label
_atom_site_type_symbol
_atom_type_description
_atom_site_fract_x
_atom_site_fract_y
_atom_site_fract_z
_atom_type_partial_charge
C1    C     C_R   0.003985 0.863775 0.644050 0.494154
C2    C     C_R   0.104903 0.433980 0.341757 -0.157265
C3    C     C_R   0.045114 0.342345 0.292019 0.006197
C4    C     C_R   0.997949 0.139452 0.359328 0.496785
C5    C     C_R   0.022012 0.280882 0.335752 -0.015901
C6    C     C_R   0.992732 0.194345 0.301493 0.021057
C7    C     C_R   0.967830 0.164370 0.215269 -0.010699
C8    C     C_R   0.968764 0.220737 0.164777 -0.129776
C9    C     C_R   0.007353 0.308736 0.201414 0.003431
C10   C     C_R   0.610809 0.690023 0.382238 -0.099815
C11   C     C_R   0.558077 0.610366 0.393968 -0.116421
C12   C     C_3   0.965564 0.255638 0.651653 -0.200245
C13   C     C_R   0.450399 0.556554 0.340730 -0.122041
C14   C     C_R   0.394764 0.581984 0.275283 -0.091988
C15   C     C_R   0.446513 0.663408 0.263229 0.014949
C16   C     C_R   0.279750 0.139581 0.641147 0.518270
C17   C     C_R   0.556146 0.718404 0.317573 -0.022141
C18   C     C_R   0.607916 0.798721 0.303664 0.062670
C19   C     C_R   0.552309 0.822432 0.234830 0.222821
C20   C     C_R   0.444435 0.767360 0.181374 -0.139355
C21   C     C_R   0.391913 0.690000 0.196277 -0.006017
C22   C     C_R   0.925801 0.852798 0.756231 -0.101849
C23   C     C_3   0.999182 0.197695 0.699652 0.099497
C24   C     C_R   0.858619 0.828445 0.781880 0.021764
C25   C     C_R   0.812489 0.743272 0.789798 0.060461
C26   C     C_R   0.840208 0.687221 0.775551 0.063142
C27   C     C_R   0.927792 0.723429 0.772942 0.014342
C28   C     C_R   0.720237 0.858856 0.360049 0.548315
C29   C     C_R   0.954496 0.797349 0.744683 -0.006878
C30   C     C_R   0.008607 0.812650 0.705485 0.015816
C31   C     C_R   0.058017 0.770105 0.717344 -0.155459
C32   C     C_R   0.052542 0.712462 0.765769 -0.156711
C33   C     C_R   0.988325 0.688503 0.794735 0.003052
C34   C     C_3   0.001969 0.299835 0.803957 0.043899
C35   C     C_R   0.119744 0.772559 0.435560 0.041049
C36   C     C_R   0.114343 0.698550 0.459861 -0.105468
C37   C     C_R   0.056222 0.617238 0.394331 -0.142946
C38   C     C_R   0.015531 0.612398 0.305602 -0.101076
C39   C     C_R   0.019308 0.685849 0.280539 0.016474
C40   C     C_R   0.004687 0.862269 0.360192 0.524276
C41   C     C_R   0.052701 0.758919 0.343235 0.031554
C42   C     C_R   0.015071 0.811909 0.308854 0.020876
C43   C     C_R   0.973129 0.806590 0.219456 -0.151468
C44   C     C_R   0.966714 0.749018 0.164155 -0.154405
C45   C     C_3   0.113535 0.326906 0.844496 -0.246614
C46   C     C_R   0.990226 0.688816 0.194563 0.021546
C47   C     C_R   0.390543 0.128407 0.574542 0.243781
C48   C     C_R   0.440298 0.101138 0.555802 0.332521
C49   C     C_R   0.548334 0.147713 0.613593 0.204607
C50   C     C_R   0.604983 0.228848 0.681333 -0.004219
C51   C     C_R   0.554403 0.241760 0.715449 -0.061770
C52   C     C_R   0.999654 0.140965 0.641193 0.509270
C53   C     C_R   0.444672 0.188544 0.661392 -0.085286
C54   C     C_R   0.392262 0.196030 0.695001 0.020200
C55   C     C_R   0.446424 0.253677 0.782283 0.005773
C56   C     C_3   0.957367 0.308779 0.709538 -0.240748
C57   C     C_R   0.556011 0.307900 0.836164 0.010679
C58   C     C_R   0.608267 0.304261 0.800536 0.043717
C59   C     C_R   0.279741 0.638280 0.139968 0.499006
C60   C     C_R   0.720392 0.360417 0.857897 0.503819
C61   C     C_R   0.001787 0.361149 0.141309 0.493355
C62   C     C_R   0.995985 0.637077 0.856395 0.497827
C63   C     C_R   0.996145 0.637599 0.140273 0.507250
C64   C     C_3   0.922813 0.139356 0.723829 0.130657
C65   C     C_R   0.001393 0.358743 0.860190 0.478772
C66   C     C_3   0.933144 0.199748 0.793391 -0.059062
C67   C     C_R   0.030956 0.308583 0.413869 -0.079834
C68   C     C_3   0.109993 0.260736 0.787764 -0.283729
C69   C     C_3   0.941100 0.073205 0.178086 -0.246069
C70   C     C_3   0.932156 0.054227 0.091775 -0.476558
C71   C     C_3   0.830222 0.891302 0.790448 -0.287383
C72   C     C_3   0.729893 0.865639 0.702756 -0.430596
C73   C     C_3   0.737066 0.712141 0.815702 -0.280834
C74   C     C_3   0.789987 0.715988 0.912901 -0.441752
C75   C     C_3   0.759951 0.587336 0.735255 -0.251972
C76   C     C_3   0.669169 0.560969 0.639286 -0.464095
C77   C     C_3   0.219612 0.863434 0.499468 -0.230153
C78   C     C_R   0.084522 0.398933 0.459195 0.253264
C79   C     C_3   0.246109 0.885672 0.593505 -0.395167
C80   C     C_3   0.386793 0.253297 0.819224 -0.266631
C81   C     C_3   0.384462 0.196618 0.879443 -0.447149
C82   C     C_3   0.975008 0.181633 0.883742 -0.298248
C83   C     C_3   0.887599 0.103866 0.883276 -0.464847
C84   C     C_3   0.702487 0.304809 0.692444 -0.259996
C85   C     C_3   0.684415 0.372342 0.655059 -0.448994
C86   C     C_3   0.618915 0.367479 0.933488 -0.264660
C87   C     C_3   0.675476 0.334302 0.002345 -0.422381
C88   C     C_R   0.126659 0.461128 0.425157 -0.081999
H1    H     H_    0.942386 0.092770 0.751823 0.117764
H2    H     H_    0.600997 0.589676 0.443701 0.108034
H3    H     H_    0.409746 0.494150 0.349248 0.111867
H4    H     H_    0.311278 0.536289 0.233553 0.127490
H5    H     H_    0.400872 0.785942 0.129026 0.116763
H6    H     H_    0.102087 0.782140 0.690092 0.134494
H7    H     H_    0.958671 0.917387 0.748939 0.137352
H8    H     H_    0.854482 0.182971 0.766664 0.172239
H9    H     H_    0.097263 0.685265 0.779039 0.146545
H10   H     H_    0.947520 0.848422 0.192947 0.135177
H11   H     H_    0.160139 0.704649 0.529204 0.121440
H12   H     H_    0.999934 0.379773 0.714836 0.134620
H13   H     H_    0.049544 0.559926 0.413056 0.134957
H14   H     H_    0.978682 0.550620 0.256648 0.126174
H15   H     H_    0.942793 0.751132 0.097567 0.133907
H16   H     H_    0.133044 0.220889 0.826985 0.091255
H17   H     H_    0.152385 0.328723 0.915022 0.109462
H18   H     H_    0.023847 0.302657 0.640631 0.106974
H19   H     H_    0.890003 0.213844 0.584859 0.169073
H20   H     H_    0.874731 0.283660 0.676018 0.124030
H21   H     H_    0.863644 0.049246 0.034929 0.147146
H22   H     H_    0.004093 0.106743 0.099589 0.151853
H23   H     H_    0.167593 0.298846 0.772749 0.141145
H24   H     H_    0.921117 0.989511 0.076320 0.138131
H25   H     H_    0.002784 0.066459 0.229052 0.168560
H26   H     H_    0.865869 0.020549 0.165063 0.188048
H27   H     H_    0.065028 0.376310 0.552997 0.313537
H28   H     H_    0.554667 0.907606 0.171830 0.319229
H29   H     H_    0.777784 0.041181 0.660836 0.321084
H30   H     H_    0.742841 0.876924 0.649691 0.179645
H31   H     H_    0.666767 0.794665 0.680202 0.154180
H32   H     H_    0.704285 0.906613 0.711760 0.127884
H33   H     H_    0.823909 0.893362 0.847361 0.140545
H34   H     H_    0.161065 0.395072 0.845296 0.148445
H35   H     H_    0.892762 0.960419 0.806118 0.126921
H36   H     H_    0.817702 0.672412 0.923112 0.182914
H37   H     H_    0.856837 0.785381 0.957780 0.143543
H38   H     H_    0.734287 0.693113 0.930851 0.136718
H39   H     H_    0.705629 0.752238 0.807614 0.144684
H40   H     H_    0.667643 0.643576 0.772132 0.139344
H41   H     H_    0.609117 0.488358 0.612389 0.137544
H42   H     H_    0.632588 0.595754 0.635715 0.154263
H43   H     H_    0.696934 0.577602 0.596084 0.150897
H44   H     H_    0.793621 0.553023 0.730303 0.153024
H45   H     H_    0.996838 0.260761 0.440325 0.123282
H46   H     H_    0.732203 0.562281 0.777261 0.163619
H47   H     H_    0.177649 0.870254 0.590565 0.211268
H48   H     H_    0.274318 0.847457 0.630566 0.109051
H49   H     H_    0.309000 0.957419 0.631458 0.165357
H50   H     H_    0.284087 0.864683 0.505335 0.155274
H51   H     H_    0.218362 0.916703 0.472208 0.242322
H52   H     H_    0.350460 0.127813 0.842416 0.155819
H53   H     H_    0.463007 0.224701 0.940495 0.160427
H54   H     H_    0.335767 0.193841 0.900370 0.127742
H55   H     H_    0.417196 0.321558 0.853435 0.126950
H56   H     H_    0.174793 0.531359 0.462639 0.132080
H57   H     H_    0.305314 0.227007 0.766986 0.166843
H58   H     H_    0.283898 0.147141 0.506244 0.312969
H59   H     H_    0.425693 0.020765 0.470907 0.367650
H60   H     H_    0.845498 0.125484 0.894113 0.170577
H61   H     H_    0.831956 0.048742 0.818682 0.141978
H62   H     H_    0.920351 0.079134 0.937240 0.135737
H63   H     H_    0.032799 0.167535 0.897783 0.122266
H64   H     H_    0.016481 0.240198 0.941575 0.173759
H65   H     H_    0.666215 0.143433 0.652408 0.324532
H66   H     H_    0.616145 0.339552 0.583917 0.162849
H67   H     H_    0.141853 0.487509 0.322122 0.168583
H68   H     H_    0.670252 0.403332 0.694139 0.157788
H69   H     H_    0.753418 0.423954 0.658431 0.127059
H70   H     H_    0.773537 0.337635 0.761089 0.168559
H71   H     H_    0.722085 0.281092 0.653481 0.156753
H72   H     H_    0.626464 0.260642 0.981090 0.155900
H73   H     H_    0.749684 0.356492 0.012689 0.164828
H74   H     H_    0.694410 0.362152 0.068053 0.124282
H75   H     H_    0.675066 0.437187 0.944420 0.167483
H76   H     H_    0.572024 0.373444 0.951012 0.133975
H77   H     H_    0.942981 0.197694 0.096735 0.145368
H78   H     H_    0.694393 0.727673 0.423216 0.128677
O1    O     O_3   1.000000 0.000000 0.500000 -0.439683
O2    O     O_R   0.939290 0.616110 0.884440 -0.555414
O3    O     O_R   0.060700 0.616880 0.177520 -0.537470
O4    O     O_R   0.939250 0.884470 0.616070 -0.559438
O5    O     O_R   0.060740 0.443890 0.883140 -0.545884
O6    O     O_R   0.939270 0.616890 0.056080 -0.559920
O7    O     O_R   0.939290 0.322450 0.883140 -0.567206
O8    O     O_R   0.939260 0.323230 0.054780 -0.548666
O9    O     O_R   0.060750 0.615550 0.883900 -0.540273
O10   O     O_R   0.231610 0.616100 0.176760 -0.542167
O11   O     O_R   0.768390 0.445230 0.884440 -0.572685
O12   O     O_R   0.231620 0.176800 0.616070 -0.557363
O13   O     O_R   0.060740 0.176800 0.445190 -0.545379
O14   O     O_R   0.231610 0.054800 0.615530 -0.523484
O15   O     O_R   0.768390 0.883920 0.323210 -0.497995
O16   O     O_R   0.060730 0.883140 0.443890 -0.546074
O17   O     O_R   0.939260 0.056140 0.616830 -0.516790
O18   O     O_R   0.939300 0.883140 0.322450 -0.549766
O19   O     O_R   0.060710 0.177580 0.616830 -0.569083
O20   O     O_3   0.099638 0.428495 0.537917 -0.709639
O21   O     O_3   0.605189 0.900960 0.222706 -0.679934
O22   O     O_3   0.820272 0.088685 0.646092 -0.691149
O23   O     O_R   0.768380 0.884480 0.445190 -0.549902
O24   O     O_3   0.290254 0.096549 0.505424 -0.657507
O25   O     O_3   0.381142 0.032784 0.476714 -0.678185
O26   O     O_3   0.597064 0.118953 0.596177 -0.717147
O27   O     O_R   0.060710 0.883920 0.615530 -0.573694
O28   O     O_R   0.939300 0.054810 0.323210 -0.550641
O29   O     O_3   1.000000 0.500030 0.999970 -0.430183
O30   O     O_R   0.231620 0.615550 0.054780 -0.539269
O31   O     O_R   0.768380 0.323230 0.883900 -0.547809
O32   O     O_R   0.060700 0.445220 0.176760 -0.570473
Zn1   Zn    Zn3+2 0.086760 0.130530 0.543760 0.922512
Zn2   Zn    Zn3+2 0.086760 0.956230 0.542990 0.916128
Zn3   Zn    Zn3+2 0.913250 0.956230 0.369490 0.960101
Zn4   Zn    Zn3+2 0.913230 0.957020 0.543760 0.932533
Zn5   Zn    Zn3+2 0.913240 0.369500 0.956210 0.891933
Zn6   Zn    Zn3+2 0.086750 0.543800 0.130490 0.919720
Zn7   Zn    Zn3+2 0.913240 0.543800 0.956980 0.890419
Zn8   Zn    Zn3+2 0.086770 0.543010 0.956210 0.924192

loop_
_geom_bond_atom_site_label_1
_geom_bond_atom_site_label_2
_ccdc_geom_bond_type
C81   H52   S    
C62   O2    A    
O12   Zn1   S    
C88   H56   S    
C75   C76   S    
C34   C56   S    
C2    H67   S    
C22   C29   A    
C27   C29   A    
C22   H7    S    
O10   Zn6   S    
C74   H36   S    
C35   C36   A    
C43   H10   S    
C5    C67   A    
C28   O23   A    
C34   C66   S    
C23   C52   S    
C75   H46   S    
C50   C84   S    
C7    C8    A    
C39   C41   A    
C49   O26   S    
C74   H38   S    
C53   C54   A    
C27   C33   A    
C4    O28   A    
C79   H48   S    
C12   C23   S    
C69   H25   S    
C26   C27   A    
C29   C30   A    
C65   O5    A    
C3    C9    A    
C71   H35   S    
O6    Zn7   S    
C67   H45   S    
C87   H72   S    
C21   C59   S    
C1    C30   S    
C30   C31   A    
C76   H43   S    
C63   O3    A    
C74   H37   S    
O29   Zn5   S    
C10   C17   A    
C58   C60   S    
C1    O4    A    
C57   C86   S    
C18   C19   A    
C41   C42   A    
O1    Zn4   S    
C56   H20   S    
C48   O25   S    
C70   H22   S    
C19   O21   S    
C76   H42   S    
C44   H15   S    
C47   C48   A    
C44   C46   A    
C8    C9    A    
O1    Zn2   S    
C52   O17   A    
C2    C88   A    
C78   O20   S    
C36   H11   S    
C25   C73   S    
C82   H63   S    
C47   C53   A    
C83   H62   S    
C81   H53   S    
C13   C14   A    
C13   H3    S    
C67   C78   A    
C85   H69   S    
C64   H1    S    
C34   C65   S    
C45   H17   S    
C84   H71   S    
C16   O12   A    
C50   C51   A    
C40   O16   A    
C77   C79   S    
C73   C74   S    
C38   C39   A    
H28   O21   S    
C69   H26   S    
C68   H16   S    
O16   Zn2   S    
C24   C25   A    
C4    C6    S    
C59   O10   A    
C8    H77   S    
H59   O25   S    
C51   C58   A    
H27   O20   S    
C84   H70   S    
C86   C87   S    
C33   C62   S    
O29   Zn6   S    
C20   H5    S    
C25   C26   A    
C73   H39   S    
O28   Zn3   S    
C35   C77   S    
O19   Zn1   S    
C51   C53   A    
C68   H23   S    
C64   C66   S    
C23   C68   S    
C1    O27   A    
C28   O15   A    
C37   C38   A    
O14   Zn2   S    
C70   H21   S    
C66   C82   S    
C76   H41   S    
C31   C32   A    
O29   Zn7   S    
C10   H78   S    
C80   H55   S    
C72   H32   S    
C45   C68   S    
C17   C18   A    
C18   C28   S    
C34   C45   S    
C12   C56   S    
C84   C85   S    
O5    Zn8   S    
C14   H4    S    
C64   O22   S    
C70   H24   S    
C60   O31   A    
C39   C46   A    
C80   H57   S    
C79   H49   S    
C82   C83   S    
C45   H34   S    
C55   C57   A    
C43   C44   A    
O32   Zn6   S    
O23   Zn4   S    
C22   C24   A    
C86   H76   S    
C42   C43   A    
C56   H12   S    
C4    O13   A    
O27   Zn2   S    
C75   H44   S    
C66   H8    S    
C78   C88   A    
C15   C17   A    
C54   C55   A    
C23   C64   S    
O18   Zn3   S    
C65   O7    A    
C20   C21   A    
O2    Zn7   S    
O17   Zn4   S    
C63   O6    A    
C71   H33   S    
O15   Zn3   S    
C61   O8    A    
C77   H51   S    
C80   C81   S    
C3    C5    A    
H29   O22   S    
C61   O32   A    
C7    C69   S    
C12   H19   S    
C6    C7    A    
C59   O30   A    
C12   H18   S    
C73   H40   S    
C79   H47   S    
C46   C63   S    
O7    Zn5   S    
C77   H50   S    
C32   C33   A    
C19   C20   A    
C26   C75   S    
C2    C3    A    
C60   O11   A    
C71   C72   S    
C38   H14   S    
C81   H54   S    
O3    Zn6   S    
C37   H13   S    
C55   C80   S    
C11   C13   A    
C11   H2    S    
C57   C58   A    
C5    C6    A    
O29   Zn8   S    
O13   Zn1   S    
C47   O24   S    
C48   C49   A    
C62   O9    A    
C72   H31   S    
C40   C42   S    
O8    Zn5   S    
O11   Zn7   S    
O31   Zn5   S    
C9    C61   S    
C31   H6    S    
C85   H66   S    
O1    Zn3   S    
O30   Zn8   S    
C69   C70   S    
C35   C41   A    
C16   C54   S    
O4    Zn4   S    
C10   C11   A    
C83   H60   S    
C15   C21   A    
C87   H74   S    
C32   H9    S    
C87   H73   S    
C36   C37   A    
C49   C50   A    
C52   O19   A    
C72   H30   S    
O1    Zn1   S    
C14   C15   A    
H58   O24   S    
C86   H75   S    
O9    Zn8   S    
C40   O18   A    
C85   H68   S    
C82   H64   S    
C16   O14   A    
C24   C71   S    
C83   H61   S    
H65   O26   S    
