data_mof_unit_52755.cif
_audit_creation_date              2012-10-26T20:38:00-0400
_audit_creation_method            fapswitch 2.2
_symmetry_space_group_name_H-M    P1
_symmetry_Int_Tables_number       1
_space_group_crystal_system       triclinic
_cell_length_a                    10.024759
_cell_length_b                    10.982455
_cell_length_c                    12.980186
_cell_angle_alpha                 85.878508
_cell_angle_beta                  74.150812
_cell_angle_gamma                 111.218096
_cell_volume                      1258.11495503

loop_
_atom_site_label
_atom_site_type_symbol
_atom_type_description
_atom_site_fract_x
_atom_site_fract_y
_atom_site_fract_z
_atom_type_partial_charge
C1    C     C_R   0.437553 0.252457 0.510451 0.542857
C2    C     C_R   0.703023 0.581340 0.987862 0.288498
C3    C     C_R   0.301439 0.427812 0.903843 0.227626
C4    C     C_R   0.696853 0.555879 0.097179 0.247282
C5    C     C_R   0.576812 0.541013 0.851034 -0.130309
C6    C     C_R   0.421626 0.454819 0.149910 -0.141189
C7    C     C_R   0.569907 0.529829 0.959708 -0.050486
C8    C     C_R   0.428995 0.462271 0.041112 -0.052144
C9    C     C_2   0.398444 0.108677 0.522591 0.174603
C10   C     C_2   0.597646 0.889337 0.480869 0.225188
C11   C     C_2   0.507194 0.065294 0.526625 -0.088850
C12   C     C_R   0.561837 0.746952 0.490859 0.551122
C13   C     C_2   0.488796 0.926802 0.535617 -0.100871
C14   C     C_3   0.129026 0.191023 0.093679 0.049264
C15   C     C_3   0.198702 0.136025 0.166344 -0.343209
C16   C     C_3   0.864956 0.792532 0.901762 0.023427
C17   C     C_3   0.033803 0.877416 0.857109 -0.308601
C18   C     C_2   0.083681 0.513022 0.486398 0.360376
C19   C     C_2   0.916409 0.486912 0.513480 0.361030
C20   C     C_R   0.469476 0.495233 0.703797 0.556809
C21   C     C_R   0.529905 0.502316 0.296546 0.578429
C22   C     C_R   0.552380 0.503521 0.179626 -0.060897
C23   C     C_R   0.446069 0.489106 0.821323 -0.059996
C24   C     C_R   0.296428 0.404911 0.013389 0.279879
Cu1   Cu    Cu3+1 0.647370 0.522180 0.481340 1.175581
Cu2   Cu    Cu3+1 0.352630 0.477820 0.518660 1.179842
H1    H     H_    0.312242 0.409619 0.212700 0.232830
H2    H     H_    0.004497 0.135986 0.126683 0.252329
H3    H     H_    0.162848 0.156850 0.249610 0.234657
H4    H     H_    0.160706 0.026807 0.171361 0.174205
H5    H     H_    0.323834 0.181588 0.131926 0.144181
H6    H     H_    0.821239 0.818132 0.982459 0.144643
H7    H     H_    0.809546 0.819551 0.845632 0.137301
H8    H     H_    0.090547 0.857992 0.914949 0.194965
H9    H     H_    0.053456 0.984374 0.846432 0.111159
H10   H     H_    0.083826 0.854466 0.777497 0.210674
H11   H     H_    0.923677 0.900820 0.342814 0.387507
H12   H     H_    0.685999 0.590119 0.788345 0.219510
H13   H     H_    0.101086 0.069021 0.657100 0.329944
H14   H     H_    0.801608 0.172379 0.695014 0.373516
H15   H     H_    0.209490 0.654268 0.197060 0.367905
H16   H     H_    0.384884 0.852429 0.592247 0.171073
H17   H     H_    0.618596 0.135877 0.521183 0.229649
H18   H     H_    0.936068 0.608367 0.376997 0.290382
H19   H     H_    0.062286 0.386322 0.620867 0.296275
H20   H     H_    0.101296 0.621134 0.035743 0.366700
H21   H     H_    0.888385 0.318403 0.962820 0.388578
H22   H     H_    0.164621 0.169212 0.010269 0.129521
N1    N     N_2   0.131210 0.444490 0.546730 -0.314548
N2    N     N_2   0.868790 0.555510 0.453270 -0.323813
O1    O     O_R   0.578710 0.332530 0.490040 -0.471081
O2    O     O_2   0.853396 0.466341 0.199478 -0.199486
O3    O     O_3   0.014418 0.613968 0.010572 -0.433284
O4    O     O_2   0.127038 0.500853 0.809475 -0.218342
O5    O     O_2   0.110253 0.272010 0.810762 -0.334168
O6    O     O_3   0.975578 0.329951 0.988843 -0.426450
O7    O     O_3   0.161763 0.327845 0.094864 -0.476590
O8    O     O_3   0.839986 0.656324 0.908249 -0.475781
O9    O     O_2   0.750057 0.103752 0.318161 -0.223469
O10   O     O_2   0.874640 0.074585 0.450086 -0.208646
O11   O     O_3   0.857714 0.921495 0.306077 -0.505062
O12   O     O_R   0.421290 0.667470 0.509960 -0.474725
O13   O     O_2   0.222730 0.017925 0.401292 -0.214677
O14   O     O_2   0.166612 0.861541 0.566426 -0.274364
O15   O     O_3   0.085277 0.058957 0.585691 -0.439767
O16   O     O_2   0.833426 0.410912 0.730604 -0.284255
O17   O     O_2   0.626730 0.305316 0.662279 -0.288220
O18   O     O_3   0.837475 0.224251 0.620051 -0.520173
O19   O     O_2   0.164800 0.758971 0.373259 -0.253407
O20   O     O_2   0.373584 0.695092 0.338286 -0.238832
O21   O     O_3   0.164976 0.576989 0.257964 -0.521379
O22   O     O_R   0.329810 0.295070 0.521560 -0.464771
O23   O     O_R   0.670190 0.704930 0.478440 -0.485226
O24   O     O_R   0.604230 0.515670 0.637800 -0.462402
O25   O     O_R   0.395770 0.484330 0.362200 -0.459419
O26   O     O_R   0.355330 0.478200 0.669330 -0.448231
O27   O     O_R   0.644670 0.521800 0.330670 -0.434375
O28   O     O_2   0.907970 0.705353 0.178399 -0.295565
S1    S     S_3+6 0.870175 0.586035 0.124865 0.068389
S2    S     S_3+6 0.126617 0.382040 0.875076 0.052262
S3    S     S_3+6 0.773728 0.003061 0.387791 0.052160
S4    S     S_3+6 0.216121 0.005484 0.518681 0.054280
S5    S     S_3+6 0.794652 0.358266 0.634079 0.018063
S6    S     S_3+6 0.205772 0.640545 0.365080 0.052591

loop_
_geom_bond_atom_site_label_1
_geom_bond_atom_site_label_2
_ccdc_geom_bond_type
O17   S5    D    
Cu2   O22   S    
C3    C23   A    
C2    C7    A    
C7    C8    A    
Cu1   O27   S    
O3    S1    S    
C18   C19   S    
C6    C22   A    
C12   O12   A    
C20   O26   A    
Cu1   O24   S    
Cu1   N2    S    
O16   S5    D    
C24   O7    S    
C18   S6    S    
C11   H17   S    
C17   H10   S    
O2    S1    D    
O20   S6    D    
C9    S4    S    
H15   O21   S    
C21   C22   S    
H13   O15   S    
C3    C24   A    
C19   S5    S    
C3    S2    S    
C12   O23   A    
C13   H16   S    
C15   H3    S    
O4    S2    D    
C1    O22   A    
O13   S4    D    
C1    C9    S    
C4    S1    S    
Cu2   N1    S    
C5    C7    A    
O28   S1    D    
C16   C17   S    
C14   H22   S    
Cu1   Cu2   S    
C2    C4    A    
Cu1   O1    S    
C16   H7    S    
C4    C22   A    
O10   S3    D    
Cu2   O26   S    
C6    H1    S    
C5    C23   A    
C20   C23   S    
H19   N1    S    
Cu2   O25   S    
C20   O24   A    
C16   O8    S    
C9    C11   D    
O14   S4    D    
C10   C12   S    
C6    C8    A    
C17   H8    S    
C15   H4    S    
O21   S6    S    
H18   N2    S    
C14   O7    S    
O18   S5    S    
O9    S3    D    
C10   C13   D    
O6    S2    S    
H11   O11   S    
C2    O8    S    
C15   H5    S    
C16   H6    S    
C21   O25   A    
C10   S3    S    
C1    O1    A    
Cu2   O12   S    
O19   S6    D    
O11   S3    S    
O5    S2    D    
C11   C13   S    
C19   N2    D    
O15   S4    S    
H20   O3    S    
C8    C24   A    
Cu1   O23   S    
H14   O18   S    
C21   O27   A    
C14   C15   S    
C17   H9    S    
C14   H2    S    
C5    H12   S    
C18   N1    D    
H21   O6    S    
