data_mof_unit_16685.cif
_audit_creation_date              2012-12-11T14:52:38-0500
_audit_creation_method            fapswitch 2.2
_symmetry_space_group_name_H-M    P1
_symmetry_Int_Tables_number       1
_space_group_crystal_system       triclinic
_cell_length_a                    19.158033
_cell_length_b                    10.962916
_cell_length_c                    18.798649
_cell_angle_alpha                 89.717143
_cell_angle_beta                  90.590187
_cell_angle_gamma                 90.73034
_cell_volume                      3947.66510199

loop_
_atom_site_label
_atom_site_type_symbol
_atom_type_description
_atom_site_fract_x
_atom_site_fract_y
_atom_site_fract_z
_atom_type_partial_charge
C1    C     C_R   0.272389 0.042512 0.853373 0.543353
C2    C     C_R   0.690263 0.538311 0.034972 -0.059054
C3    C     C_3   0.025266 0.334449 0.065319 -0.012353
C4    C     C_1   0.354040 0.865269 0.006464 0.185693
C5    C     C_1   0.638305 0.791841 0.994345 0.161290
C6    C     C_1   0.854040 0.365269 0.006464 0.185693
C7    C     C_1   0.138305 0.291841 0.994345 0.161290
C8    C     C_1   0.508308 0.067766 0.050968 0.245317
C9    C     C_1   0.567414 0.971830 0.902916 0.258811
C10   C     C_1   0.008308 0.567766 0.050969 0.245317
C11   C     C_1   0.067414 0.471830 0.902916 0.258811
C12   C     C_1   0.490803 0.579686 0.968679 0.241599
C13   C     C_R   0.794660 0.016278 0.958773 -0.074817
C14   C     C_1   0.419998 0.697692 0.102345 0.263625
C15   C     C_1   0.990803 0.079686 0.968679 0.241599
C16   C     C_1   0.919998 0.197692 0.102345 0.263625
C17   C     C_1   0.336365 0.434780 0.916659 0.245456
C18   C     C_1   0.629401 0.486776 0.069580 0.214220
C19   C     C_1   0.836365 0.934780 0.916659 0.245456
C20   C     C_1   0.129401 0.986776 0.069580 0.214220
C21   C     C_1   0.352123 0.445667 0.068787 0.276297
C22   C     C_1   0.637157 0.490751 0.915859 0.268452
C23   C     C_1   0.852123 0.945667 0.068787 0.276297
C24   C     C_R   0.190263 0.038311 0.034972 -0.059054
C25   C     C_1   0.137157 0.990751 0.915859 0.268452
C26   C     C_1   0.567180 0.630311 0.601681 0.223373
C27   C     C_1   0.571908 0.601838 0.452919 0.237254
C28   C     C_1   0.067180 0.130311 0.601681 0.223373
C29   C     C_1   0.071907 0.101838 0.452919 0.237255
C30   C     C_R   0.295838 0.509056 0.033307 -0.038873
C31   C     C_R   0.694332 0.534935 0.959887 -0.020072
C32   C     C_R   0.795838 0.009056 0.033307 -0.038873
C33   C     C_R   0.194332 0.034935 0.959887 -0.020072
C34   C     C_R   0.245053 0.572257 0.072767 -0.014499
C35   C     C_R   0.755642 0.576314 0.926231 0.006141
C36   C     C_R   0.745053 0.072257 0.072767 -0.014499
C37   C     C_R   0.727523 0.040617 0.146023 0.557310
C38   C     C_R   0.255642 0.076314 0.926231 0.006141
C39   C     C_R   0.197573 0.646444 0.037930 -0.114638
C40   C     C_R   0.810716 0.624130 0.966715 -0.102798
C41   C     C_R   0.697573 0.146445 0.037930 -0.114638
C42   C     C_R   0.310716 0.124130 0.966715 -0.102797
C43   C     C_R   0.196052 0.655406 0.965036 0.248216
C44   C     C_R   0.808354 0.625448 0.040059 0.235126
C45   C     C_R   0.696052 0.155406 0.965036 0.248216
C46   C     C_R   0.308354 0.125448 0.040059 0.235126
C47   C     C_R   0.247713 0.595515 0.924789 0.048830
C48   C     C_R   0.772389 0.542512 0.853373 0.543353
C49   C     C_R   0.747086 0.589612 0.075170 0.071647
C50   C     C_R   0.747713 0.095515 0.924789 0.048830
C51   C     C_R   0.247086 0.089612 0.075170 0.071647
C52   C     C_R   0.546233 0.730062 0.555222 -0.035595
C53   C     C_R   0.557284 0.721130 0.481931 -0.047716
C54   C     C_R   0.046233 0.230062 0.555222 -0.035595
C55   C     C_R   0.057284 0.221130 0.481931 -0.047716
C56   C     C_R   0.546147 0.824060 0.437449 -0.006162
C57   C     C_R   0.512598 0.833750 0.582398 -0.001399
C58   C     C_R   0.046147 0.324060 0.437449 -0.006162
C59   C     C_R   0.227523 0.540617 0.146023 0.557311
C60   C     C_R   0.012598 0.333750 0.582398 -0.001399
C61   C     C_R   0.522221 0.932668 0.467490 -0.153872
C62   C     C_R   0.504021 0.936585 0.538831 -0.158130
C63   C     C_R   0.022221 0.432669 0.467490 -0.153872
C64   C     C_R   0.004021 0.436585 0.538831 -0.158131
C65   C     C_R   0.440850 0.815910 0.862965 0.546562
C66   C     C_R   0.555970 0.819796 0.136894 0.550975
C67   C     C_R   0.940850 0.315910 0.862965 0.546562
C68   C     C_R   0.055970 0.319796 0.136894 0.550975
C69   C     C_R   0.185058 0.598705 0.542677 -0.138571
C70   C     C_3   0.498366 0.710952 0.979230 -0.036709
C71   C     C_R   0.755403 0.710001 0.476532 -0.128855
C72   C     C_R   0.685058 0.098705 0.542677 -0.138570
C73   C     C_R   0.255405 0.210001 0.476532 -0.128855
C74   C     C_R   0.179809 0.595502 0.470203 -0.134500
C75   C     C_R   0.761748 0.689871 0.548534 -0.142747
C76   C     C_R   0.679809 0.095503 0.470203 -0.134500
C77   C     C_R   0.261750 0.189871 0.548534 -0.142748
C78   C     C_R   0.238525 0.569441 0.429140 0.022231
C79   C     C_R   0.755586 0.571165 0.573647 0.044526
C80   C     C_R   0.738525 0.069441 0.429140 0.022231
C81   C     C_3   0.460748 0.757946 0.045483 -0.042376
C82   C     C_R   0.255586 0.071165 0.573647 0.044525
C83   C     C_R   0.302881 0.546094 0.461580 -0.150362
C84   C     C_R   0.742388 0.472493 0.527541 -0.107886
C85   C     C_R   0.802880 0.046094 0.461580 -0.150361
C86   C     C_R   0.242385 0.972494 0.527541 -0.107887
C87   C     C_R   0.308828 0.553981 0.534784 -0.143430
C88   C     C_R   0.737599 0.492532 0.455224 -0.121671
C89   C     C_R   0.808828 0.053980 0.534785 -0.143430
C90   C     C_R   0.237596 0.992533 0.455225 -0.121672
C91   C     C_R   0.250187 0.584918 0.574985 0.019633
C92   C     C_3   0.998366 0.210952 0.979230 -0.036709
C93   C     C_R   0.744932 0.611116 0.430223 0.045123
C94   C     C_R   0.750187 0.084918 0.574985 0.019633
C95   C     C_R   0.244932 0.111116 0.430224 0.045122
C96   C     C_R   0.260128 0.637313 0.851763 0.562438
C97   C     C_R   0.738753 0.635598 0.148144 0.569379
C98   C     C_R   0.760128 0.137313 0.851763 0.562438
C99   C     C_R   0.238753 0.135598 0.148144 0.569379
C100  C     C_R   0.272186 0.043920 0.645767 0.549419
C101  C     C_R   0.726621 0.042173 0.355398 0.538601
C102  C     C_R   0.772186 0.543920 0.645767 0.549419
C103  C     C_3   0.960748 0.257947 0.045483 -0.042376
C104  C     C_R   0.226621 0.542173 0.355398 0.538601
C105  C     C_R   0.472885 0.824335 0.648821 0.553644
C106  C     C_R   0.561095 0.819049 0.360705 0.549782
C107  C     C_R   0.972885 0.324335 0.648821 0.553644
C108  C     C_R   0.061095 0.319049 0.360705 0.549783
C109  C     C_R   0.260045 0.635652 0.644589 0.536706
C110  C     C_R   0.739367 0.638362 0.356541 0.536622
C111  C     C_R   0.760045 0.135652 0.644589 0.536706
C112  C     C_R   0.239367 0.138362 0.356541 0.536622
C113  C     C_3   0.494429 0.944156 0.024789 -0.028481
C114  C     C_R   0.294660 0.516278 0.958773 -0.074817
C115  C     C_3   0.531016 0.898860 0.957490 -0.049247
C116  C     C_3   0.994429 0.444156 0.024789 -0.028481
C117  C     C_3   0.031016 0.398860 0.957490 -0.049247
C118  C     C_3   0.429640 0.865276 0.003505 -0.052674
C119  C     C_3   0.562674 0.790998 0.998978 -0.061933
C120  C     C_3   0.929640 0.365276 0.003505 -0.052675
C121  C     C_3   0.062674 0.290998 0.998978 -0.061933
C122  C     C_3   0.467100 0.819036 0.937205 -0.024706
C123  C     C_3   0.525266 0.834449 0.065319 -0.012353
C124  C     C_3   0.967100 0.319036 0.937205 -0.024706
Cr1   Cr    Cr6+3 0.229630 0.835900 0.747350 1.103919
Cr2   Cr    Cr6+3 0.614200 0.677120 0.250660 1.080619
Cr3   Cr    Cr6+3 0.885800 0.177120 0.749340 1.068462
Cr4   Cr    Cr6+3 0.114200 0.177120 0.250660 1.080619
Cr5   Cr    Cr6+3 0.770370 0.835900 0.252650 1.083645
Cr6   Cr    Cr6+3 0.729630 0.335900 0.747350 1.103919
Cr7   Cr    Cr6+3 0.270370 0.335900 0.252650 1.083645
Cr8   Cr    Cr6+3 0.387410 0.989850 0.750850 1.062412
Cr9   Cr    Cr6+3 0.612590 0.989850 0.249150 1.065749
Cr10  Cr    Cr6+3 0.887410 0.489850 0.750850 1.062412
Cr11  Cr    Cr6+3 0.112590 0.489850 0.249150 1.065749
Cr12  Cr    Cr6+3 0.385800 0.677120 0.749340 1.068461
H1    H     H_    0.139139 0.621307 0.572907 0.149291
H2    H     H_    0.739042 0.379540 0.547220 0.145693
H3    H     H_    0.847983 0.022074 0.430551 0.147584
H4    H     H_    0.239038 0.879542 0.547220 0.145694
H5    H     H_    0.359878 0.543184 0.559156 0.153220
H6    H     H_    0.728894 0.416838 0.419207 0.135243
H7    H     H_    0.859878 0.043183 0.559156 0.153220
H8    H     H_    0.228891 0.916839 0.419208 0.135245
H9    H     H_    0.159886 0.697699 0.067659 0.165915
H10   H     H_    0.859544 0.650261 0.942174 0.155279
H11   H     H_    0.659886 0.197699 0.067659 0.165915
H12   H     H_    0.759210 0.802518 0.456558 0.139307
H13   H     H_    0.359544 0.150261 0.942174 0.155279
H14   H     H_    0.513285 0.012810 0.434935 0.147341
H15   H     H_    0.479320 0.017780 0.558700 0.147959
H16   H     H_    0.013285 0.512810 0.434936 0.147340
H17   H     H_    0.979320 0.517780 0.558700 0.147959
H18   H     H_    0.110547 0.752070 0.968283 0.336917
H19   H     H_    0.899522 0.699288 0.045741 0.344251
H20   H     H_    0.610547 0.252070 0.968283 0.336917
H21   H     H_    0.399522 0.199288 0.045741 0.344251
H22   H     H_    0.639139 0.121307 0.572907 0.149291
H23   H     H_    0.259214 0.302518 0.456558 0.139309
H24   H     H_    0.128910 0.611104 0.446686 0.148483
H25   H     H_    0.772351 0.765447 0.584167 0.128478
H26   H     H_    0.628910 0.111104 0.446686 0.148483
H27   H     H_    0.272355 0.265446 0.584167 0.128479
H28   H     H_    0.347983 0.522074 0.430551 0.147583
N1    N     N_1   0.294303 0.855251 0.009834 -0.330794
N2    N     N_1   0.389069 0.656725 0.149486 -0.255426
N3    N     N_1   0.983485 0.975364 0.963197 -0.242335
N4    N     N_1   0.889069 0.156724 0.149486 -0.255426
N5    N     N_1   0.368803 0.369906 0.882049 -0.254094
N6    N     N_1   0.580999 0.445250 0.097493 -0.226231
N7    N     N_1   0.868803 0.869906 0.882049 -0.254095
N8    N     N_1   0.080999 0.945250 0.097493 -0.226231
N9    N     N_1   0.398098 0.400238 0.098691 -0.192886
N10   N     N_1   0.594204 0.455284 0.877174 -0.196018
N11   N     N_1   0.898098 0.900238 0.098691 -0.192886
N12   N     N_1   0.698014 0.802137 0.989915 -0.345400
N13   N     N_1   0.094204 0.955284 0.877174 -0.196018
N14   N     N_1   0.583811 0.550810 0.638605 -0.260414
N15   N     N_1   0.581767 0.505777 0.430129 -0.278713
N16   N     N_1   0.083811 0.050810 0.638605 -0.260414
N17   N     N_1   0.081765 0.005777 0.430129 -0.278714
N18   N     N_1   0.794303 0.355251 0.009834 -0.330794
N19   N     N_1   0.198014 0.302137 0.989915 -0.345400
N20   N     N_1   0.521678 0.164113 0.072421 -0.262267
N21   N     N_1   0.594712 0.026069 0.857987 -0.216290
N22   N     N_1   0.021678 0.664113 0.072421 -0.262267
N23   N     N_1   0.094712 0.526069 0.857987 -0.216290
N24   N     N_1   0.483485 0.475365 0.963197 -0.242335
O1    O     O_R   0.214270 0.709000 0.827470 -0.418075
O2    O     O_R   0.543270 0.717630 0.330160 -0.481527
O3    O     O_R   0.956730 0.217630 0.669840 -0.499808
O4    O     O_R   0.043270 0.217630 0.330160 -0.481527
O5    O     O_R   0.320620 0.625640 0.672920 -0.509342
O6    O     O_R   0.679380 0.625640 0.327080 -0.505460
O7    O     O_R   0.820620 0.125640 0.672920 -0.509342
O8    O     O_R   0.179380 0.125640 0.327080 -0.505460
O9    O     O_3   0.334280 0.834290 0.749180 -0.302814
O10   O     O_3   0.665720 0.834290 0.250820 -0.324294
O11   O     O_3   0.834280 0.334290 0.749180 -0.302815
O12   O     O_R   0.785730 0.709000 0.172530 -0.428724
O13   O     O_3   0.165720 0.334290 0.250820 -0.324293
O14   O     O_R   0.236160 0.958490 0.823130 -0.479074
O15   O     O_R   0.763840 0.958490 0.176870 -0.479929
O16   O     O_R   0.736160 0.458490 0.823130 -0.479074
O17   O     O_R   0.263840 0.458490 0.176870 -0.479929
O18   O     O_R   0.332080 0.075470 0.831280 -0.518937
O19   O     O_R   0.667920 0.075470 0.168720 -0.514940
O20   O     O_R   0.832080 0.575470 0.831280 -0.518937
O21   O     O_R   0.167920 0.575470 0.168720 -0.514940
O22   O     O_R   0.446300 0.918110 0.826620 -0.489864
O23   O     O_R   0.714270 0.209000 0.827470 -0.418075
O24   O     O_R   0.553700 0.918110 0.173380 -0.475715
O25   O     O_R   0.946300 0.418110 0.826620 -0.489863
O26   O     O_R   0.053700 0.418110 0.173380 -0.475715
O27   O     O_R   0.457110 0.716200 0.831760 -0.489598
O28   O     O_R   0.542890 0.716200 0.168240 -0.480353
O29   O     O_R   0.957110 0.216200 0.831760 -0.489598
O30   O     O_R   0.042890 0.216200 0.168240 -0.480353
O31   O     O_R   0.320980 0.624310 0.823030 -0.525444
O32   O     O_R   0.679020 0.624310 0.176970 -0.526666
O33   O     O_R   0.820980 0.124310 0.823030 -0.525444
O34   O     O_R   0.285730 0.209000 0.172530 -0.428724
O35   O     O_R   0.179020 0.124310 0.176970 -0.526666
O36   O     O_R   0.213890 0.710430 0.665540 -0.518859
O37   O     O_R   0.786110 0.710430 0.334460 -0.514089
O38   O     O_R   0.713890 0.210430 0.665540 -0.518858
O39   O     O_R   0.286110 0.210430 0.334460 -0.514089
O40   O     O_R   0.235810 0.959820 0.673020 -0.488606
O41   O     O_R   0.764190 0.959820 0.326980 -0.507510
O42   O     O_R   0.735810 0.459820 0.673020 -0.488605
O43   O     O_R   0.264190 0.459820 0.326980 -0.507510
O44   O     O_R   0.331700 0.076900 0.669350 -0.516495
O45   O     O_R   0.445950 0.919440 0.676520 -0.500102
O46   O     O_R   0.668300 0.076900 0.330650 -0.526795
O47   O     O_R   0.831700 0.576900 0.669350 -0.516495
O48   O     O_R   0.168300 0.576900 0.330650 -0.526795
O49   O     O_3   0.144976 0.725171 0.932794 -0.636739
O50   O     O_3   0.867246 0.656793 0.078395 -0.647318
O51   O     O_3   0.644976 0.225171 0.932794 -0.636740
O52   O     O_3   0.367246 0.156793 0.078395 -0.647318
O53   O     O_R   0.554050 0.919440 0.323480 -0.495346
O54   O     O_R   0.945950 0.419440 0.676520 -0.500102
O55   O     O_R   0.054050 0.419440 0.323480 -0.495346
O56   O     O_R   0.456730 0.717630 0.669840 -0.499808

loop_
_geom_bond_atom_site_label_1
_geom_bond_atom_site_label_2
_ccdc_geom_bond_type
C44   C49   A    
C77   H27   S    
C47   C114  A    
C83   C87   A    
C83   H28   S    
Cr8   O18   S    
Cr9   O10   S    
C87   C91   A    
C2    C18   S    
C30   C114  A    
C41   C45   A    
C13   C32   A    
C76   H26   S    
C3    C68   S    
C72   C76   A    
C4    C118  S    
C67   C124  S    
Cr1   O9    S    
C36   C41   A    
C10   C116  S    
C90   C95   A    
Cr11  O13   S    
Cr12  O31   S    
C54   C60   A    
C116  C117  S    
Cr2   O6    S    
H18   O49   S    
C104  O48   A    
Cr10  O25   S    
C29   N17   T    
C5    C119  S    
C11   N23   T    
C32   C36   A    
C36   C37   S    
C117  C124  S    
C27   N15   T    
C65   O27   A    
C9    N21   T    
C3    C116  S    
C92   C124  S    
C118  C122  S    
C79   C84   A    
Cr3   O7    S    
C17   N5    T    
C53   C56   A    
Cr11  O26   S    
C23   N11   T    
Cr6   O42   S    
C3    C103  S    
C40   H10   S    
C12   N24   T    
C98   O33   A    
Cr5   O41   S    
C94   C111  S    
C13   C50   A    
C72   H22   S    
C4    N1    T    
C100  O40   A    
C5    N12   T    
C42   C46   A    
Cr11  O55   S    
C89   C94   A    
Cr2   O2    S    
C42   H13   S    
C117  C121  S    
C112  O8    A    
C43   O49   S    
C92   C103  S    
Cr9   O53   S    
C15   C92   S    
C54   C55   A    
C120  C124  S    
C78   C83   A    
Cr10  O54   S    
C20   C24   S    
H19   O50   S    
C41   H11   S    
C110  O6    A    
Cr10  O47   S    
C107  O54   A    
C109  O5    A    
C46   O52   S    
C14   N2    T    
Cr1   O40   S    
C68   O26   A    
C61   H14   S    
C85   H3    S    
C105  O56   A    
Cr5   O10   S    
C86   H4    S    
C93   C110  S    
Cr9   O46   S    
Cr12  O27   S    
C72   C94   A    
C8    N20   T    
C24   C51   A    
C18   N6    T    
C71   H12   S    
C99   O34   A    
C84   H2    S    
C102  O47   A    
Cr12  O5    S    
C112  O39   A    
C69   H1    S    
C37   O19   A    
C97   O12   A    
C15   N3    T    
Cr6   O23   S    
C105  O45   A    
C39   H9    S    
C7    C121  S    
C35   C48   S    
Cr8   O44   S    
Cr4   O35   S    
C88   H6    S    
C22   N10   T    
Cr2   O32   S    
C17   C114  S    
C26   N14   T    
H20   O51   S    
C51   C99   S    
Cr10  O11   S    
C99   O35   A    
Cr1   O14   S    
C50   C98   S    
Cr12  O9    S    
C57   C105  S    
C30   C34   A    
C78   C104  S    
C34   C39   A    
C9    C115  S    
C76   C80   A    
C100  O44   A    
Cr8   O22   S    
C86   C90   A    
C115  C122  S    
C6    C120  S    
C85   C89   A    
C13   C19   S    
C39   C43   A    
C29   C55   S    
C57   C62   A    
C82   C86   A    
C46   C51   A    
Cr3   O3    S    
C116  C120  S    
C115  C119  S    
C44   O50   S    
C2    C31   A    
Cr4   O4    S    
C84   C88   A    
C96   O1    A    
C68   O30   A    
C73   H23   S    
C45   O51   S    
C80   C85   A    
C2    C49   A    
C26   C52   S    
C70   C122  S    
H21   O52   S    
Cr10  O20   S    
C113  C123  S    
C67   O29   A    
C70   C119  S    
C47   C96   S    
C22   C31   S    
C48   O20   A    
C21   C30   S    
C37   O15   A    
C97   O32   A    
C69   C74   A    
C79   C102  S    
Cr7   O39   S    
C65   C122  S    
C87   H5    S    
C60   C107  S    
C1    O18   A    
C28   N16   T    
C56   C106  S    
C65   O22   A    
C109  O36   A    
Cr2   O28   S    
C8    C113  S    
C64   H17   S    
C1    C38   S    
C1    O14   A    
Cr11  O21   S    
C81   C123  S    
C119  C123  S    
C34   C59   S    
C16   C103  S    
C31   C35   A    
C67   O25   A    
C73   C95   A    
C106  O53   A    
C66   O24   A    
Cr6   O11   S    
C11   C117  S    
Cr4   O30   S    
Cr6   O16   S    
C52   C53   A    
Cr3   O29   S    
C95   C112  S    
Cr8   O45   S    
Cr1   O36   S    
Cr7   O43   S    
C58   C63   A    
C12   C70   S    
C88   C93   A    
C73   C77   A    
C66   C123  S    
C20   N8    T    
C56   C61   A    
C111  O38   A    
C82   C100  S    
Cr4   O8    S    
Cr12  O56   S    
C19   N7    T    
C63   C64   A    
C104  O43   A    
C110  O37   A    
Cr3   O11   S    
Cr1   O1    S    
C27   C53   S    
C38   C42   A    
C71   C93   A    
C7    N19   T    
C62   H15   S    
Cr9   O19   S    
C96   O31   A    
C111  O7    A    
C98   O23   A    
C48   O16   A    
C21   N9    T    
C24   C33   A    
C60   C64   A    
C80   C101  S    
C75   H25   S    
Cr2   O10   S    
C23   C32   S    
C91   C109  S    
C35   C40   A    
C28   C54   S    
C74   H24   S    
C89   H7    S    
C92   C121  S    
C71   C75   A    
C59   O17   A    
C43   C47   A    
C77   C82   A    
C16   N4    T    
C81   C118  S    
C108  O55   A    
Cr8   O9    S    
C10   N22   T    
C103  C120  S    
C107  O3    A    
Cr7   O34   S    
C58   C108  S    
Cr4   O13   S    
C66   O28   A    
C61   C62   A    
Cr7   O13   S    
C63   H16   S    
C6    N18   T    
Cr5   O12   S    
C52   C57   A    
Cr3   O33   S    
C49   C97   S    
C113  C118  S    
Cr5   O15   S    
C59   O21   A    
C40   C44   A    
Cr6   O38   S    
C74   C78   A    
C55   C58   A    
Cr5   O37   S    
C101  O46   A    
C102  O42   A    
Cr9   O24   S    
C106  O2    A    
Cr11  O48   S    
C108  O4    A    
C33   C38   A    
C101  O41   A    
C45   C50   A    
C70   C81   S    
C14   C81   S    
C69   C91   A    
C25   N13   T    
C75   C79   A    
C90   H8    S    
C3    C121  S    
C25   C33   S    
C113  C115  S    
Cr7   O17   S    
