data_mof_unit_63844.cif
_audit_creation_date              2013-03-05T15:42:03-0500
_audit_creation_method            fapswitch 2.2
_symmetry_space_group_name_H-M    P1
_symmetry_Int_Tables_number       1
_space_group_crystal_system       triclinic
_cell_length_a                    26.242005
_cell_length_b                    26.251187
_cell_length_c                    22.280795
_cell_angle_alpha                 90.11432
_cell_angle_beta                  54.144435
_cell_angle_gamma                 90.194344
_cell_volume                      12440.1352026

loop_
_atom_site_label
_atom_site_type_symbol
_atom_site_description
_atom_site_fract_x
_atom_site_fract_y
_atom_site_fract_z
_atom_type_partial_charge
Zn1   Zn    Zn3+2 0.823660 0.707100 0.438580 1.005490
Zn2   Zn    Zn3+2 0.823660 0.292900 0.438580 1.009742
Zn3   Zn    Zn3+2 0.323660 0.207100 0.438580 1.007096
Zn4   Zn    Zn3+2 0.323660 0.792900 0.438580 1.011286
Zn5   Zn    Zn3+2 0.676410 0.707120 0.561420 1.047533
Zn6   Zn    Zn3+2 0.676410 0.292880 0.561420 1.047923
Zn7   Zn    Zn3+2 0.176410 0.207120 0.561420 1.044584
Zn8   Zn    Zn3+2 0.176410 0.792880 0.561420 1.044595
Zn9   Zn    Zn3+2 0.737810 0.792950 0.438580 1.070662
Zn10  Zn    Zn3+2 0.737810 0.207050 0.438580 1.060524
Zn11  Zn    Zn3+2 0.237810 0.292950 0.438580 1.069110
Zn12  Zn    Zn3+2 0.237810 0.707050 0.438580 1.063936
Zn13  Zn    Zn3+2 0.762240 0.792950 0.561420 1.065399
Zn14  Zn    Zn3+2 0.762240 0.207050 0.561420 1.074127
Zn15  Zn    Zn3+2 0.262240 0.292950 0.561420 1.068893
Zn16  Zn    Zn3+2 0.262240 0.707050 0.561420 1.074816
O1    O     O_3   0.750030 0.750030 0.500000 -0.532558
O2    O     O_3   0.750030 0.249970 0.500000 -0.532040
O3    O     O_3   0.250030 0.250030 0.500000 -0.532487
O4    O     O_3   0.250030 0.749970 0.500000 -0.532451
O5    O     O_R   0.698090 0.780090 0.663980 -0.616601
O6    O     O_R   0.698090 0.219910 0.663980 -0.616954
O7    O     O_R   0.198090 0.280090 0.663980 -0.610680
O8    O     O_R   0.198090 0.719910 0.663980 -0.615431
O9    O     O_R   0.862050 0.719970 0.336020 -0.623776
O10   O     O_R   0.862050 0.280030 0.336020 -0.615917
O11   O     O_R   0.362050 0.219970 0.336020 -0.620058
O12   O     O_R   0.362050 0.780030 0.336020 -0.613826
O13   O     O_R   0.698510 0.635460 0.542990 -0.620510
O14   O     O_R   0.698510 0.364540 0.542990 -0.628075
O15   O     O_R   0.198510 0.135460 0.542990 -0.623688
O16   O     O_R   0.198510 0.864540 0.542990 -0.629886
O17   O     O_R   0.741470 0.864610 0.457010 -0.615477
O18   O     O_R   0.741470 0.135390 0.457010 -0.616375
O19   O     O_R   0.241470 0.364610 0.457010 -0.616654
O20   O     O_R   0.241470 0.635390 0.457010 -0.615561
O21   O     O_R   0.613960 0.720010 0.542990 -0.624995
O22   O     O_R   0.613960 0.279990 0.542990 -0.613299
O23   O     O_R   0.113960 0.220010 0.542990 -0.623045
O24   O     O_R   0.113960 0.779990 0.542990 -0.613534
O25   O     O_R   0.843120 0.780070 0.542990 -0.582659
O26   O     O_R   0.843120 0.219930 0.542990 -0.589762
O27   O     O_R   0.343120 0.280070 0.542990 -0.583669
O28   O     O_R   0.343120 0.719930 0.542990 -0.589516
O29   O     O_R   0.656940 0.780080 0.457010 -0.590533
O30   O     O_R   0.656940 0.219920 0.457010 -0.608184
O31   O     O_R   0.156940 0.280080 0.457010 -0.591373
O32   O     O_R   0.156940 0.719920 0.457010 -0.607488
O33   O     O_R   0.886110 0.719980 0.457010 -0.649160
O34   O     O_R   0.886110 0.280020 0.457010 -0.639653
O35   O     O_R   0.386110 0.219980 0.457010 -0.649058
O36   O     O_R   0.386110 0.780020 0.457010 -0.640044
O37   O     O_R   0.801570 0.635440 0.457010 -0.641760
O38   O     O_R   0.801570 0.364560 0.457010 -0.643913
O39   O     O_R   0.301570 0.135440 0.457010 -0.640412
O40   O     O_R   0.301570 0.864560 0.457010 -0.643076
O41   O     O_R   0.758570 0.864610 0.542990 -0.627125
O42   O     O_R   0.758570 0.135390 0.542990 -0.617775
O43   O     O_R   0.258570 0.364610 0.542990 -0.625227
O44   O     O_R   0.258570 0.635390 0.542990 -0.618004
O45   O     O_R   0.638020 0.720010 0.663980 -0.606373
O46   O     O_R   0.638020 0.279990 0.663980 -0.604691
O47   O     O_R   0.138020 0.220010 0.663980 -0.611151
O48   O     O_R   0.138020 0.779990 0.663980 -0.608177
O49   O     O_R   0.801960 0.780050 0.336020 -0.611066
O50   O     O_R   0.801960 0.219950 0.336020 -0.626466
O51   O     O_R   0.301960 0.280050 0.336020 -0.615153
O52   O     O_R   0.301960 0.719950 0.336020 -0.622929
C1    C     C_R   0.650631 0.750085 0.698895 0.816262
C2    C     C_R   0.650644 0.249896 0.698845 0.815885
C3    C     C_R   0.150631 0.250098 0.698902 0.814054
C4    C     C_R   0.150651 0.749894 0.698842 0.816804
C5    C     C_R   0.849374 0.750041 0.301166 0.820936
C6    C     C_R   0.849408 0.249960 0.301108 0.821226
C7    C     C_R   0.349383 0.250043 0.301163 0.821945
C8    C     C_R   0.349405 0.749964 0.301118 0.816992
C9    C     C_R   0.750294 0.611375 0.500483 0.872975
C10   C     C_R   0.750251 0.388660 0.499455 0.860314
C11   C     C_R   0.250293 0.111371 0.500463 0.870847
C12   C     C_R   0.250245 0.888657 0.499431 0.860139
C13   C     C_R   0.749779 0.888673 0.500316 0.872710
C14   C     C_R   0.750210 0.111333 0.499846 0.892438
C15   C     C_R   0.250218 0.388673 0.499942 0.874296
C16   C     C_R   0.249770 0.611333 0.500221 0.891716
C17   C     C_R   0.610444 0.751523 0.501947 0.885914
C18   C     C_R   0.611254 0.249260 0.500320 0.897879
C19   C     C_R   0.110486 0.251475 0.501844 0.886964
C20   C     C_R   0.111254 0.749260 0.500319 0.898193
C21   C     C_R   0.887963 0.749479 0.501594 0.800999
C22   C     C_R   0.889113 0.249281 0.499031 0.799827
C23   C     C_R   0.387963 0.249479 0.501594 0.799374
C24   C     C_R   0.389109 0.749306 0.499035 0.799746
C25   C     C_2   0.039513 0.710165 0.475338 0.369617
C26   C     C_2   0.042627 0.287512 0.468523 0.359915
C27   C     C_2   0.539515 0.210166 0.475332 0.369626
C28   C     C_2   0.541935 0.788133 0.469912 0.359489
C29   C     C_2   0.057939 0.750453 0.496368 -0.329361
C30   C     C_2   0.051663 0.255850 0.509225 -0.328941
C31   C     C_2   0.557936 0.250452 0.496372 -0.329108
C32   C     C_2   0.551536 0.755835 0.509498 -0.328668
H1    H     H_    0.034916 0.787088 0.507535 0.168592
H2    H     H_    0.013723 0.231262 0.550466 0.182847
H3    H     H_    0.534908 0.287084 0.507550 0.168801
H4    H     H_    0.513993 0.730654 0.549964 0.182787
C33   C     C_2   0.988596 0.716822 0.466382 -0.334803
C34   C     C_2   0.982975 0.286158 0.476285 -0.312966
C35   C     C_2   0.488598 0.216824 0.466378 -0.334609
C36   C     C_2   0.482320 0.786552 0.477554 -0.313872
C37   C     C_2   0.936034 0.743375 0.514743 0.117178
C38   C     C_2   0.948370 0.243882 0.490222 0.150887
C39   C     C_2   0.436033 0.243372 0.514745 0.117008
C40   C     C_2   0.448362 0.744059 0.490256 0.151815
H5    H     H_    0.994656 0.699038 0.418514 0.212356
H6    H     H_    0.966250 0.322623 0.471201 0.185873
H7    H     H_    0.494661 0.199046 0.418505 0.212799
H8    H     H_    0.464998 0.823044 0.473533 0.185237
C41   C     C_3   0.037578 0.756493 0.043694 0.366148
C42   C     C_3   0.036318 0.259190 0.043525 0.362644
C43   C     C_3   0.537471 0.244735 0.043696 0.364897
C44   C     C_3   0.535168 0.760422 0.043360 0.344867
C45   C     C_3   0.948115 0.798461 0.043360 0.023532
C46   C     C_3   0.959685 0.196028 0.043185 0.018848
C47   C     C_3   0.458489 0.303981 0.043427 0.024446
C48   C     C_3   0.458754 0.697088 0.043238 0.018401
C49   C     C_3   0.990695 0.797367 0.955865 0.016928
C50   C     C_3   0.002278 0.197014 0.955793 0.016651
C51   C     C_3   0.501011 0.303116 0.955882 0.016461
C52   C     C_3   0.511550 0.693766 0.957818 0.044065
H9    H     H_    0.096541 0.799778 0.938815 0.167580
H10   H     H_    0.105813 0.219510 0.938405 0.169260
H11   H     H_    0.605403 0.285379 0.938431 0.168110
H12   H     H_    0.616015 0.739719 0.928591 0.198823
H13   H     H_    0.898272 0.793213 0.065193 0.198664
H14   H     H_    0.909806 0.191544 0.064505 0.199987
H15   H     H_    0.408463 0.306850 0.065146 0.198710
H16   H     H_    0.412573 0.696452 0.052133 0.195731
H17   H     H_    0.020514 0.832097 0.934505 0.172294
H18   H     H_    0.040021 0.168239 0.934817 0.173710
H19   H     H_    0.537587 0.333140 0.934552 0.172777
H20   H     H_    0.552378 0.673205 0.948901 0.185479
C53   C     C_1   0.111346 0.750008 0.777919 0.002141
C54   C     C_1   0.111094 0.250247 0.777942 0.004111
C55   C     C_1   0.611334 0.250042 0.777926 0.002983
C56   C     C_1   0.611072 0.750068 0.777923 -0.001981
C57   C     C_3   0.965265 0.752709 0.073796 -0.136493
C58   C     C_3   0.964916 0.248289 0.073780 -0.136513
C59   C     C_3   0.465587 0.252524 0.073793 -0.135981
C60   C     C_3   0.463644 0.749860 0.073670 -0.133059
C61   C     C_3   0.079151 0.759945 0.955500 -0.091166
C62   C     C_3   0.078583 0.255640 0.955441 -0.093461
C63   C     C_3   0.579813 0.248338 0.955501 -0.090025
C64   C     C_3   0.575447 0.766148 0.955176 -0.102210
C65   C     C_3   0.037695 0.750811 0.926193 -0.185174
C66   C     C_3   0.036630 0.250194 0.926214 -0.183720
C67   C     C_3   0.537729 0.250884 0.926203 -0.185467
C68   C     C_3   0.535832 0.749206 0.926041 -0.198265
C69   C     C_3   0.002408 0.698753 0.958381 0.180505
C70   C     C_3   0.988548 0.295675 0.958695 0.182978
C71   C     C_3   0.492147 0.203868 0.958356 0.179564
C72   C     C_3   0.480037 0.787843 0.956021 0.146240
C73   C     C_3   0.954040 0.701914 0.044599 -0.227430
C74   C     C_3   0.941679 0.291026 0.045112 -0.214932
C75   C     C_3   0.444479 0.208119 0.044541 -0.230967
C76   C     C_3   0.441504 0.792083 0.042841 -0.199494
C77   C     C_1   0.078200 0.750320 0.844510 0.161382
C78   C     C_1   0.077632 0.250279 0.844516 0.170363
C79   C     C_1   0.578198 0.250397 0.844516 0.161348
C80   C     C_1   0.577352 0.749660 0.844467 0.140913
C81   C     C_1   0.923450 0.751661 0.155547 0.130632
C82   C     C_1   0.923267 0.248833 0.155532 0.126092
C83   C     C_1   0.423627 0.251586 0.155542 0.127557
C84   C     C_1   0.422380 0.749767 0.155528 0.178107
C85   C     C_1   0.889424 0.750760 0.222112 -0.021362
C86   C     C_1   0.889328 0.249418 0.222090 -0.024026
C87   C     C_1   0.389482 0.250755 0.222106 -0.022065
C88   C     C_1   0.388928 0.749839 0.222112 -0.013621
H21   H     H_    0.963469 0.669378 0.068578 0.229242
H22   H     H_    0.942008 0.327903 0.069404 0.230481
H23   H     H_    0.446515 0.171855 0.068627 0.229636
H24   H     H_    0.453275 0.829795 0.054236 0.251424
H25   H     H_    0.038051 0.670814 0.948802 0.201695
H26   H     H_    0.016268 0.330797 0.947801 0.195499
H27   H     H_    0.521293 0.170141 0.948883 0.201583
H28   H     H_    0.501350 0.825733 0.932906 0.177646
C89   C     C_2   0.740031 0.027938 0.458856 -0.102378
C90   C     C_2   0.741913 0.971846 0.457329 -0.101000
C91   C     C_2   0.242103 0.527937 0.457074 -0.100772
C92   C     C_2   0.240277 0.471838 0.458738 -0.102420
C93   C     C_2   0.752283 0.056090 0.499345 -0.267795
C94   C     C_2   0.748057 0.943931 0.503131 -0.272341
C95   C     C_2   0.248026 0.556084 0.502981 -0.264820
C96   C     C_2   0.252245 0.443940 0.499559 -0.271255
H29   H     H_    0.728742 0.046458 0.424450 0.210325
H30   H     H_    0.737353 0.953111 0.417165 0.212337
H31   H     H_    0.237714 0.546462 0.416751 0.209466
H32   H     H_    0.229258 0.453081 0.424108 0.212834
H33   H     H_    0.765143 0.039296 0.532968 0.169854
H34   H     H_    0.751106 0.960908 0.545163 0.169460
H35   H     H_    0.250940 0.539281 0.545119 0.169659
H36   H     H_    0.264840 0.460936 0.533434 0.169801
C97   C     C_2   0.800772 0.473086 0.452392 0.148031
C98   C     C_2   0.802258 0.527423 0.467760 0.150434
C99   C     C_2   0.300626 0.973061 0.452002 0.144819
C100  C     C_2   0.302286 0.027396 0.467243 0.150560
C101  C     C_2   0.752018 0.443951 0.504512 -0.307511
C102  C     C_2   0.750306 0.556052 0.495111 -0.303101
C103  C     C_2   0.252017 0.943948 0.504398 -0.309008
C104  C     C_2   0.250281 0.056050 0.495020 -0.305092
H37   H     H_    0.713252 0.461126 0.555717 0.154836
H38   H     H_    0.706938 0.538517 0.509404 0.149687
H39   H     H_    0.213430 0.961137 0.555723 0.152472
H40   H     H_    0.206799 0.038531 0.509659 0.149614
N1    N     N_R   0.067852 0.660611 0.461270 0.243957
O53   O     O_R   0.072985 0.631528 0.410638 -0.335558
O54   O     O_R   0.076255 0.640648 0.508291 -0.336608
N2    N     N_R   0.086996 0.326690 0.422345 0.239005
O55   O     O_R   0.101068 0.333966 0.356476 -0.298350
O56   O     O_R   0.100251 0.362289 0.451969 -0.348392
N3    N     N_R   0.567864 0.160614 0.461247 0.243390
O57   O     O_R   0.573006 0.131541 0.410601 -0.336178
O58   O     O_R   0.576268 0.140643 0.508261 -0.338876
N4    N     N_R   0.585485 0.828209 0.425381 0.239503
O59   O     O_R   0.598627 0.837319 0.360328 -0.297831
O60   O     O_R   0.598813 0.862741 0.456247 -0.349287
N5    N     N_R   0.954388 0.799973 0.924473 0.276803
O61   O     O_R   0.893248 0.802208 0.966442 -0.287970
O62   O     O_R   0.983697 0.809452 0.854217 -0.303299
N6    N     N_R   0.968736 0.181558 0.923805 0.275516
O63   O     O_R   0.907828 0.177020 0.963870 -0.307820
O64   O     O_R   0.001068 0.165145 0.855815 -0.305517
N7    N     N_R   0.466485 0.316372 0.924376 0.277247
O65   O     O_R   0.406715 0.326921 0.966260 -0.286651
O66   O     O_R   0.497948 0.326751 0.854093 -0.304353
N8    N     N_R   0.492604 0.663219 0.918278 0.285170
O67   O     O_R   0.436202 0.644192 0.952523 -0.263412
O68   O     O_R   0.535462 0.647339 0.851476 -0.315497
C105  C     C_3   0.884958 0.692182 0.073161 -0.682864
H41   H     H_    0.852937 0.693869 0.134502 0.220124
H42   H     H_    0.868127 0.719601 0.050819 0.296395
H43   H     H_    0.880414 0.653277 0.057034 0.275068
C106  C     C_3   0.871948 0.285417 0.073509 -0.696646
H44   H     H_    0.854709 0.322050 0.066924 0.280921
H45   H     H_    0.865787 0.255970 0.042664 0.297626
H46   H     H_    0.840838 0.275992 0.133320 0.219356
C107  C     C_3   0.374635 0.209956 0.072994 -0.674467
H47   H     H_    0.342941 0.211966 0.134341 0.222116
H48   H     H_    0.364131 0.242545 0.050573 0.296606
H49   H     H_    0.362333 0.174443 0.056880 0.275720
C108  C     C_3   0.369271 0.794727 0.083386 -0.697810
H50   H     H_    0.356972 0.829803 0.066839 0.284537
H51   H     H_    0.350816 0.761294 0.071197 0.274359
H52   H     H_    0.343865 0.797741 0.144199 0.217470
N9    N     N_R   0.054299 0.711629 0.069349 0.227855
O69   O     O_R   0.067819 0.667644 0.036324 -0.340907
O70   O     O_R   0.053400 0.715070 0.128284 -0.277585
N10   N     N_R   0.040994 0.310016 0.069403 0.227110
O71   O     O_R   0.042852 0.351970 0.037122 -0.345961
O72   O     O_R   0.041058 0.313675 0.127653 -0.264572
N11   N     N_R   0.544773 0.194900 0.069349 0.227307
O73   O     O_R   0.547239 0.152168 0.038047 -0.346590
O74   O     O_R   0.549412 0.193015 0.124391 -0.266639
N12   N     N_R   0.542913 0.806716 0.075546 0.260062
O75   O     O_R   0.495769 0.835200 0.124045 -0.369600
O76   O     O_R   0.597983 0.816848 0.060239 -0.216863
N13   N     N_R   0.136955 0.728987 0.919422 0.265474
O77   O     O_R   0.148215 0.691295 0.875194 -0.327326
O78   O     O_R   0.179631 0.741083 0.929392 -0.230574
N14   N     N_R   0.127176 0.295960 0.919578 0.270072
O79   O     O_R   0.129005 0.329914 0.875851 -0.329576
O80   O     O_R   0.171556 0.296343 0.929155 -0.212027
N15   N     N_R   0.630144 0.209623 0.919778 0.266452
O81   O     O_R   0.633862 0.174893 0.875598 -0.328433
O82   O     O_R   0.674181 0.211616 0.929880 -0.226939
N16   N     N_R   0.604128 0.817099 0.927689 0.249438
O83   O     O_R   0.571535 0.858798 0.955126 -0.327610
O84   O     O_R   0.664483 0.820822 0.877383 -0.267674
N17   N     N_R   0.977074 0.677323 0.919566 0.229166
O85   O     O_R   0.997442 0.633439 0.886571 -0.317645
O86   O     O_R   0.935738 0.701257 0.915875 -0.274393
N18   N     N_R   0.956757 0.304977 0.922784 0.233487
O87   O     O_R   0.931471 0.349333 0.930762 -0.324945
O88   O     O_R   0.959240 0.272860 0.876660 -0.289732
N19   N     N_R   0.463480 0.192076 0.919433 0.229455
O89   O     O_R   0.474963 0.148371 0.886159 -0.318364
O90   O     O_R   0.427998 0.224382 0.915763 -0.269705
N20   N     N_R   0.440567 0.778819 0.929589 0.233149
O91   O     O_R   0.405205 0.815722 0.934722 -0.328633
O92   O     O_R   0.451276 0.741330 0.885504 -0.285834
C109  C     C_3   0.854594 0.452774 0.377744 -0.715467
H53   H     H_    0.883508 0.484381 0.339373 0.239805
H54   H     H_    0.885862 0.428597 0.383948 0.263301
H55   H     H_    0.836191 0.430746 0.351589 0.234472
C110  C     C_3   0.862827 0.548509 0.451959 -0.714300
H56   H     H_    0.894941 0.517247 0.443246 0.241734
H57   H     H_    0.887708 0.572127 0.400989 0.260653
H58   H     H_    0.852906 0.571364 0.499711 0.238106
C111  C     C_3   0.354123 0.952711 0.377183 -0.704941
H59   H     H_    0.382844 0.984304 0.338642 0.241073
H60   H     H_    0.385656 0.928591 0.382998 0.262777
H61   H     H_    0.335388 0.930607 0.351460 0.235693
C112  C     C_3   0.363079 0.048430 0.450862 -0.713669
H62   H     H_    0.395301 0.017144 0.441762 0.241573
H63   H     H_    0.387681 0.072092 0.399942 0.262340
H64   H     H_    0.353512 0.071222 0.498497 0.236939
N21   N     N_R   0.922004 0.760985 0.584326 0.213379
O93   O     O_R   0.899580 0.806484 0.608408 -0.301727
O94   O     O_R   0.925596 0.729810 0.627069 -0.306423
N22   N     N_R   0.971360 0.193348 0.486623 0.202397
O95   O     O_R   0.932809 0.157875 0.530956 -0.316386
O96   O     O_R   0.028062 0.180653 0.431496 -0.340604
N23   N     N_R   0.421998 0.260971 0.584334 0.213178
O97   O     O_R   0.399564 0.306466 0.608433 -0.301018
O98   O     O_R   0.425596 0.229790 0.627068 -0.307488
N24   N     N_R   0.472096 0.693595 0.485183 0.202156
O99   O     O_R   0.433979 0.657441 0.528118 -0.316407
O100  O     O_R   0.529044 0.681720 0.429798 -0.340885
N25   N     N_R   0.050127 0.802705 0.071899 0.245026
O101  O     O_R   0.010984 0.816685 0.140679 -0.299255
O102  O     O_R   0.107185 0.820605 0.035976 -0.268030
N26   N     N_R   0.059742 0.221042 0.071216 0.245536
O103  O     O_R   0.024275 0.205642 0.139707 -0.287494
O104  O     O_R   0.120055 0.214121 0.035347 -0.258354
N27   N     N_R   0.558563 0.284929 0.071855 0.244487
O105  O     O_R   0.522682 0.298876 0.140993 -0.300248
O106  O     O_R   0.618241 0.295494 0.035293 -0.268779
N28   N     N_R   0.557356 0.717153 0.065295 0.223529
O107  O     O_R   0.532786 0.709981 0.135090 -0.289784
O108  O     O_R   0.605339 0.689196 0.017200 -0.315063
N29   N     N_R   0.949999 0.847948 0.073514 0.248637
O109  O     O_R   0.901796 0.862011 0.138681 -0.294170
O110  O     O_R   0.996805 0.879612 0.035249 -0.303912
N30   N     N_R   0.972719 0.152098 0.073410 0.248401
O111  O     O_R   0.026656 0.128751 0.035787 -0.302916
O112  O     O_R   0.927935 0.134066 0.138002 -0.299867
N31   N     N_R   0.469987 0.348963 0.073799 0.249302
O113  O     O_R   0.425414 0.365081 0.139756 -0.297427
O114  O     O_R   0.521900 0.375248 0.035022 -0.301391
N32   N     N_R   0.458539 0.652749 0.084138 0.257435
O115  O     O_R   0.502917 0.618713 0.051993 -0.255650
O116  O     O_R   0.407897 0.642356 0.149513 -0.323464

loop_
_geom_bond_atom_site_label_1
_geom_bond_atom_site_label_2
_geom_bond_distance
_ccdc_geom_bond_type
C31   H3    1.085664 S    
Zn5   O21   1.939458 S    
N29   O110  1.302160 A    
H11   C63   1.113082 S    
C61   N13   1.478130 S    
C45   N29   1.475275 S    
C112  H62   1.110771 S    
O33   C21   1.281433 A    
C51   H19   1.109202 S    
C66   C70   1.574276 S    
O42   C14   1.270708 A    
C27   C31   1.353461 D    
N15   O81   1.301626 A    
C32   H4    1.085307 S    
O46   C2    1.281792 A    
N16   O83   1.301771 A    
C61   C65   1.580233 S    
O34   C22   1.274281 A    
C64   C68   1.576754 S    
C67   C79   1.475214 S    
C27   N3    1.440620 S    
Zn3   O3    1.946067 S    
N28   O107  1.301993 A    
O23   C19   1.277689 A    
Zn16  O28   1.939699 S    
C20   C29   1.452872 S    
O28   C24   1.273730 A    
N17   O86   1.299059 A    
C28   C36   1.471620 S    
C107  H47   1.109522 S    
Zn4   O40   1.941359 S    
C52   N8    1.474431 S    
N8    O68   1.301406 A    
O11   C7    1.282011 A    
N6    O64   1.301727 A    
N6    O63   1.301313 A    
N1    O54   1.301698 A    
C44   C64   1.602343 S    
N27   O105  1.301734 A    
C15   C96   1.451465 S    
C59   C83   1.476860 S    
N31   O114  1.302175 A    
N24   O99   1.301023 A    
C30   H2    1.085594 S    
C42   N26   1.487367 S    
C98   C110  1.515233 S    
C90   C94   1.342013 D    
C57   C73   1.583155 S    
O16   C12   1.280215 A    
C48   C60   1.578706 S    
C104  H40   1.086703 S    
Zn12  O4    1.936631 S    
Zn13  O5    1.913728 S    
Zn2   O10   1.911330 S    
N30   O111  1.302160 A    
C74   C106  1.553294 S    
C18   C31   1.452877 S    
C50   C66   1.579562 S    
Zn6   O14   1.939181 S    
O47   C3    1.279164 A    
C44   C60   1.602533 S    
Zn7   O3    1.941181 S    
H12   C64   1.109137 S    
C45   C57   1.571445 S    
C75   C107  1.550091 S    
C73   H21   1.110993 S    
C47   C51   1.581329 S    
C82   C86   1.202227 T    
C112  H64   1.110764 S    
C93   H33   1.080713 S    
N11   O74   1.302471 A    
O24   C20   1.278798 A    
Zn11  O19   1.938686 S    
C10   C101  1.458268 S    
N20   O92   1.298829 A    
C36   H8    1.087821 S    
C99   C103  1.351494 D    
Zn10  O2    1.936631 S    
C96   H36   1.080682 S    
Zn9   O49   1.914324 S    
C52   C68   1.579454 S    
C69   N17   1.474925 S    
N31   O113  1.301541 A    
Zn4   O4    1.941634 S    
C73   C105  1.550041 S    
C107  H49   1.111139 S    
C47   H15   1.104347 S    
Zn7   O23   1.939458 S    
C41   C61   1.596378 S    
Zn8   O24   1.937231 S    
O26   C22   1.273409 A    
C43   C59   1.603157 S    
O31   C19   1.272016 A    
O25   C21   1.269780 A    
C1    C56   1.427148 S    
H9    C61   1.113305 S    
Zn12  O52   1.913917 S    
C2    C55   1.428100 S    
C27   C35   1.473002 S    
O22   C18   1.278799 A    
C33   H5    1.086547 S    
C100  C112  1.515228 S    
O9    C5    1.282071 A    
N2    O56   1.301643 A    
C6    C86   1.427118 S    
N9    O69   1.301561 A    
Zn13  O41   1.940953 S    
C68   C80   1.473377 S    
O50   C6    1.279539 A    
C37   N21   1.443079 S    
Zn11  O51   1.914324 S    
C42   C62   1.593892 S    
C106  H44   1.110066 S    
Zn16  O44   1.938730 S    
Zn1   O37   1.939135 S    
C46   H14   1.106131 S    
Zn2   O34   1.939413 S    
C41   N9    1.485389 S    
N21   O94   1.301707 A    
N10   O72   1.302195 A    
C99   C111  1.514972 S    
Zn6   O22   1.937231 S    
C46   C58   1.571743 S    
C47   N31   1.475431 S    
N17   O85   1.301434 A    
C103  H39   1.086834 S    
C111  H60   1.109939 S    
N22   O96   1.301721 A    
Zn10  O50   1.913917 S    
C67   C71   1.567462 S    
C60   C76   1.585202 S    
C100  C104  1.351636 D    
C68   C72   1.574927 S    
N18   O87   1.301517 A    
C46   N30   1.475136 S    
O5    C1    1.279629 A    
N27   O106  1.302505 A    
N26   O104  1.302423 A    
C45   C49   1.580473 S    
C110  H56   1.110773 S    
C54   C78   1.202255 T    
C102  H38   1.086695 S    
C70   N18   1.476472 S    
C55   C79   1.202541 T    
C109  H53   1.110699 S    
Zn5   O45   1.911419 S    
C60   C84   1.478301 S    
N4    O60   1.301614 A    
N13   O78   1.301206 A    
Zn7   O47   1.911419 S    
Zn8   O48   1.911823 S    
C43   N27   1.487787 S    
N23   O98   1.301709 A    
C14   C93   1.451183 S    
C75   H23   1.110446 S    
O51   C7    1.282323 A    
C62   N14   1.478313 S    
O8    C4    1.282201 A    
C33   C37   1.346063 D    
C108  H52   1.108303 S    
C65   C77   1.475123 S    
C35   C39   1.346067 D    
C90   H30   1.086414 S    
C66   C78   1.475377 S    
C89   C93   1.341226 D    
N12   O75   1.301653 A    
O52   C8    1.279540 A    
N32   O116  1.301405 A    
C63   C67   1.579691 S    
O40   C12   1.272631 A    
C97   C98   1.471995 S    
C38   N22   1.441718 S    
C92   C96   1.342039 D    
C106  H46   1.108628 S    
Zn14  O6    1.914134 S    
C58   C82   1.476615 S    
C52   H20   1.110343 S    
Zn15  O27   1.941921 S    
C59   C75   1.583020 S    
C28   C32   1.350934 D    
N5    O62   1.301423 A    
N16   O84   1.301583 A    
O41   C13   1.271462 A    
C74   H22   1.110621 S    
O13   C9    1.280276 A    
C105  H43   1.110976 S    
N19   O89   1.301542 A    
C97   C101  1.351573 D    
N28   O108  1.301884 A    
O18   C14   1.273646 A    
O6    C2    1.282361 A    
C84   C88   1.202445 T    
C43   N11   1.485901 S    
Zn9   O29   1.939397 S    
C25   C29   1.353463 D    
Zn11  O31   1.939397 S    
Zn12  O32   1.941618 S    
Zn13  O25   1.941921 S    
N1    O53   1.301119 A    
Zn15  O3    1.936476 S    
C58   C74   1.581844 S    
Zn11  O3    1.941068 S    
C72   C76   1.576474 S    
O43   C15   1.271477 A    
C110  H58   1.110766 S    
Zn5   O1    1.941181 S    
C26   C30   1.351194 D    
N24   O100  1.301727 A    
C109  H55   1.110707 S    
C16   C95   1.451187 S    
C41   C57   1.602719 S    
N29   O109  1.301539 A    
N25   O102  1.302363 A    
O35   C23   1.281429 A    
C50   H18   1.109707 S    
C71   N19   1.474941 S    
O32   C20   1.268760 A    
C76   H24   1.108497 S    
C48   C52   1.568614 S    
C19   C30   1.458352 S    
C39   N23   1.443080 S    
Zn9   O17   1.938686 S    
C69   H25   1.108397 S    
C49   N5    1.477488 S    
C112  H63   1.109875 S    
C40   N24   1.441583 S    
C4    C53   1.428021 S    
Zn14  O42   1.938730 S    
C57   C81   1.476866 S    
C48   H16   1.107578 S    
C25   N1    1.440618 S    
O7    C3    1.279425 A    
C8    C88   1.426754 S    
Zn2   O38   1.941359 S    
C51   C67   1.582621 S    
N3    O57   1.301120 A    
O19   C15   1.273029 A    
C24   C40   1.456049 S    
C49   H17   1.109332 S    
C7    C87   1.427918 S    
C36   C40   1.348168 D    
O37   C9    1.271895 A    
O39   C11   1.271891 A    
C108  H50   1.109371 S    
N7    O66   1.301401 A    
C97   C109  1.514955 S    
C42   N10   1.485398 S    
C56   C80   1.201837 T    
C44   N12   1.482587 S    
C107  H48   1.105464 S    
O36   C24   1.273883 A    
N8    O67   1.302250 A    
O12   C8    1.279006 A    
C69   C73   1.565836 S    
C94   H34   1.080713 S    
Zn3   O35   1.937188 S    
Zn15  O43   1.940953 S    
C95   H35   1.080698 S    
Zn13  O1    1.936476 S    
C53   C77   1.202569 T    
Zn6   O46   1.911823 S    
C76   C108  1.551973 S    
C91   C92   1.473119 S    
C9    C102  1.456955 S    
C89   C90   1.473113 S    
Zn3   O11   1.911733 S    
C72   N20   1.479256 S    
C65   C69   1.567399 S    
C13   C94   1.451529 S    
N14   O79   1.301683 A    
N21   O93   1.301197 A    
C109  H54   1.109945 S    
O38   C10   1.272656 A    
C44   N28   1.485969 S    
C99   C100  1.471959 S    
N19   O90   1.299116 A    
C111  H59   1.110705 S    
Zn14  O2    1.940913 S    
Zn4   O36   1.939413 S    
Zn8   O4    1.945612 S    
C34   H6    1.087812 S    
O21   C17   1.277307 A    
N18   O88   1.299868 A    
N20   O91   1.301538 A    
C11   C104  1.457083 S    
C21   C37   1.461970 S    
O49   C5    1.282215 A    
C23   C39   1.461972 S    
C25   C33   1.473001 S    
Zn1   O33   1.937188 S    
Zn10  O30   1.941618 S    
Zn12  O20   1.940907 S    
N13   O77   1.301674 A    
C91   C95   1.341196 D    
Zn16  O4    1.940913 S    
Zn14  O26   1.939699 S    
Zn15  O7    1.913728 S    
Zn16  O8    1.914134 S    
Zn1   O9    1.911733 S    
N25   O101  1.301733 A    
Zn3   O39   1.939135 S    
Zn4   O12   1.911330 S    
C49   C65   1.582307 S    
Zn5   O13   1.941406 S    
C43   C63   1.595970 S    
Zn6   O2    1.945612 S    
C108  H51   1.108518 S    
Zn7   O15   1.941406 S    
Zn8   O16   1.939181 S    
C42   C58   1.601454 S    
N2    O55   1.300951 A    
N9    O70   1.302409 A    
N12   O76   1.302267 A    
N23   O97   1.301197 A    
C83   C87   1.202558 T    
O27   C23   1.269783 A    
C106  H45   1.106000 S    
C46   C50   1.578547 S    
O29   C17   1.272346 A    
H10   C62   1.113409 S    
N3    O58   1.301699 A    
C101  H37   1.086842 S    
N10   O71   1.301686 A    
C51   N7    1.477479 S    
N5    O61   1.301879 A    
Zn10  O18   1.940907 S    
C70   H26   1.107961 S    
C35   H7    1.086545 S    
C48   N32   1.477639 S    
C3    C54   1.427360 S    
Zn9   O1    1.941068 S    
C47   C59   1.571650 S    
C105  H42   1.105504 S    
C98   C102  1.351559 D    
C111  H61   1.110716 S    
C71   C75   1.565488 S    
C26   N2    1.436910 S    
C22   C38   1.456215 S    
N11   O73   1.301307 A    
N22   O95   1.301116 A    
C34   C38   1.347925 D    
O45   C1    1.278826 A    
N15   O82   1.301208 A    
C26   C34   1.471079 S    
C81   C85   1.202549 T    
C91   H31   1.086409 S    
N14   O80   1.301162 A    
C50   N6    1.476049 S    
C89   H29   1.086418 S    
Zn2   O2    1.941634 S    
O15   C11   1.280357 A    
C28   N4    1.437007 S    
C45   H13   1.104568 S    
N26   O103  1.301734 A    
C110  H57   1.109867 S    
C17   C32   1.458497 S    
C64   N16   1.478842 S    
O44   C16   1.270674 A    
C63   N15   1.478242 S    
C41   N25   1.487169 S    
O20   C16   1.273681 A    
O10   C6    1.279184 A    
O48   C4    1.281898 A    
C5    C85   1.427838 S    
N4    O59   1.300848 A    
C70   C74   1.568644 S    
O14   C10   1.280277 A    
N30   O112  1.301523 A    
C12   C103  1.458103 S    
Zn1   O1    1.946067 S    
C92   H32   1.086418 S    
N32   O115  1.301880 A    
C62   C66   1.579558 S    
N7    O65   1.301886 A    
C71   H27   1.108233 S    
C105  H41   1.109323 S    
O17   C13   1.273070 A    
C72   H28   1.108249 S    
C29   H1    1.085661 S    
O30   C18   1.268763 A    
