data_mof_unit_43267.cif
_audit_creation_date              2013-03-05T16:35:52-0500
_audit_creation_method            fapswitch 2.2
_symmetry_space_group_name_H-M    P1
_symmetry_Int_Tables_number       1
_space_group_crystal_system       triclinic
_cell_length_a                    23.573802
_cell_length_b                    9.089403
_cell_length_c                    7.775155
_cell_angle_alpha                 90.018168
_cell_angle_beta                  90.0
_cell_angle_gamma                 90.000018
_cell_volume                      1665.99626934

loop_
_atom_site_label
_atom_site_type_symbol
_atom_site_description
_atom_site_fract_x
_atom_site_fract_y
_atom_site_fract_z
_atom_type_partial_charge
O1    O     O_R   0.500000 0.288390 0.642760 -0.583905
O2    O     O_R   0.500000 0.711610 0.357240 -0.583905
O3    O     O_R   0.500000 0.711610 0.642760 -0.578679
O4    O     O_R   0.500000 0.288390 0.357240 -0.578679
C1    C     C_R   0.500000 0.219986 0.499982 0.826067
C2    C     C_R   0.500000 0.780014 0.500018 0.826067
O5    O     O_R   0.417880 0.500000 0.642820 -0.530219
O6    O     O_R   0.582120 0.500000 0.357180 -0.530183
O7    O     O_R   0.582120 0.500000 0.642820 -0.530183
O8    O     O_R   0.417880 0.500000 0.357180 -0.530219
C3    C     C_R   0.208536 0.500004 0.500000 -0.160783
C4    C     C_R   0.791477 0.500000 0.500000 -0.161111
C5    C     C_R   0.390504 0.500000 0.500000 0.949571
C6    C     C_R   0.609499 0.500000 0.500000 0.949275
Cu1   Cu    Cu3+1 0.500000 0.500000 0.669080 1.126050
Cu2   Cu    Cu3+1 0.500000 0.500000 0.330920 1.126050
C7    C     C_R   0.297338 0.520961 0.654547 0.496063
C8    C     C_R   0.702673 0.480107 0.345262 0.495933
C9    C     C_R   0.297338 0.479044 0.345453 0.496064
C10   C     C_R   0.702673 0.519893 0.654738 0.495932
C11   C     C_R   0.327747 0.500001 0.500000 -0.527787
C12   C     C_R   0.672261 0.500000 0.500000 -0.528133
C13   C     C_R   0.880426 0.625312 0.453751 0.767323
C14   C     C_R   0.119593 0.374700 0.546277 0.767333
C15   C     C_R   0.880427 0.374690 0.546248 0.767323
C16   C     C_R   0.119592 0.625306 0.453723 0.767335
N1    N     N_R   0.852248 0.500001 0.500000 -0.423606
N2    N     N_R   0.147769 0.500003 0.500000 -0.423577
C17   C     C_R   0.940069 0.371634 0.547484 -0.227586
C18   C     C_R   0.059950 0.628369 0.452506 -0.227575
C19   C     C_R   0.940068 0.628370 0.452516 -0.227587
C20   C     C_R   0.059951 0.371637 0.547493 -0.227574
C21   C     C_R   0.970011 0.500002 0.500000 -0.156908
C22   C     C_R   0.030008 0.500002 0.500000 -0.156882
C23   C     C_R   0.970447 0.244376 0.594582 0.628826
C24   C     C_R   0.029572 0.755626 0.405411 0.628856
C25   C     C_R   0.970446 0.755628 0.405418 0.628826
C26   C     C_R   0.029573 0.244379 0.594589 0.628857
C27   C     C_1   0.500000 0.065371 0.499976 -0.113230
C28   C     C_1   0.500000 0.934629 0.500024 -0.113230
C29   C     C_R   0.238168 0.520807 0.653923 0.589124
C30   C     C_R   0.761844 0.480260 0.345888 0.589027
C31   C     C_R   0.238167 0.479199 0.346077 0.589124
C32   C     C_R   0.761844 0.519740 0.654111 0.589028
N3    N     N_1   0.500000 0.500000 0.076820 0.010204
N4    N     N_1   0.500000 0.500000 0.923180 0.010205
O9    O     O_2   0.850563 0.746223 0.409782 -0.377934
O10   O     O_2   0.149458 0.253811 0.590314 -0.377871
O11   O     O_2   0.850564 0.253779 0.590218 -0.377933
O12   O     O_2   0.149457 0.746196 0.409686 -0.377870
F1    F     F_    0.943333 0.118776 0.641442 -0.509437
F2    F     F_    0.056687 0.881226 0.358548 -0.509371
F3    F     F_    0.943332 0.881228 0.358558 -0.509437
F4    F     F_    0.056687 0.118779 0.641452 -0.509371
F5    F     F_    0.209424 0.541765 0.803193 -0.504637
F6    F     F_    0.790586 0.460328 0.196430 -0.504170
F7    F     F_    0.209424 0.458242 0.196807 -0.504637
F8    F     F_    0.790587 0.539672 0.803570 -0.504170
F9    F     F_    0.324551 0.543125 0.806276 -0.515334
F10   F     F_    0.675466 0.459052 0.193316 -0.514708
F11   F     F_    0.324550 0.456878 0.193724 -0.515333
F12   F     F_    0.675466 0.540947 0.806684 -0.514708

loop_
_geom_bond_atom_site_label_1
_geom_bond_atom_site_label_2
_geom_bond_distance
_ccdc_geom_bond_type
Cu2   N3    1.975666 S    
O4    Cu2   1.934330 S    
C4    C30   1.398514 A    
O7    C6    1.284391 A    
C19   C21   1.412876 A    
C3    C31   1.398510 A    
O1    Cu1   1.934201 S    
C13   N1    1.366805 A    
C15   N1    1.366806 A    
O2    Cu2   1.934200 S    
C17   C23   1.408954 A    
C16   N2    1.366776 A    
C24   F2    1.358272 S    
C18   C24   1.408949 A    
O3    C2    1.272304 A    
C25   F3    1.358266 S    
C6    C12   1.479539 S    
C16   O12   1.349267 S    
O5    Cu1   1.946620 S    
C21   C22   1.414355 A    
O7    Cu1   1.946618 S    
C5    C11   1.479414 S    
C4    C32   1.398514 A    
O8    Cu2   1.946620 S    
N3    N4    1.194576 T    
C23   F1    1.358266 S    
O2    C2    1.272201 A    
C27   C28   1.188362 T    
C3    N2    1.432509 S    
C7    F9    1.357825 S    
O1    C1    1.272201 A    
C8    F10   1.357767 S    
C24   C25   1.393822 A    
C10   C32   1.394902 A    
C9    F11   1.357825 S    
C16   C18   1.406294 A    
C20   C26   1.408949 A    
C8    C30   1.394902 A    
C19   C25   1.408954 A    
C10   F12   1.357767 S    
C15   O11   1.349263 S    
C13   C19   1.406301 A    
C7    C29   1.394892 A    
C13   O9    1.349263 S    
C18   C22   1.412879 A    
C4    N1    1.432587 S    
Cu1   Cu2   2.629247 S    
C14   O10   1.349267 S    
C17   C21   1.412875 A    
O5    C5    1.284357 A    
C2    C28   1.405364 S    
O3    Cu1   1.934329 S    
C15   C17   1.406301 A    
O6    Cu2   1.946618 S    
C3    C29   1.398510 A    
C32   F8    1.357270 S    
C14   C20   1.406294 A    
C1    C27   1.405364 S    
C31   F7    1.357301 S    
C23   C26   1.393822 A    
C29   F5    1.357302 S    
O6    C6    1.284390 A    
C9    C31   1.394892 A    
Cu1   N4    1.975666 S    
C30   F6    1.357270 S    
C20   C22   1.412879 A    
C8    C12   1.412097 A    
C7    C11   1.412069 A    
C14   N2    1.366775 A    
C10   C12   1.412096 A    
O4    C1    1.272304 A    
C9    C11   1.412070 A    
O8    C5    1.284358 A    
C26   F4    1.358271 S    
