data_mof_unit_34580.cif
_audit_creation_date              2013-03-05T16:36:37-0500
_audit_creation_method            fapswitch 2.2
_symmetry_space_group_name_H-M    P1
_symmetry_Int_Tables_number       1
_space_group_crystal_system       triclinic
_cell_length_a                    17.766278
_cell_length_b                    9.093457
_cell_length_c                    7.777838
_cell_angle_alpha                 89.999983
_cell_angle_beta                  90.266139
_cell_angle_gamma                 89.999127
_cell_volume                      1256.5497237

loop_
_atom_site_label
_atom_site_type_symbol
_atom_site_description
_atom_site_fract_x
_atom_site_fract_y
_atom_site_fract_z
_atom_type_partial_charge
O1    O     O_R   0.500000 0.288390 0.642760 -0.570342
O2    O     O_R   0.500000 0.711610 0.357240 -0.581371
O3    O     O_R   0.500000 0.711610 0.642760 -0.581369
O4    O     O_R   0.500000 0.288390 0.357240 -0.570340
C1    C     C_R   0.500000 0.219988 0.500000 0.861588
C2    C     C_R   0.500000 0.780010 0.500000 0.824949
O5    O     O_R   0.391250 0.500000 0.642840 -0.549024
O6    O     O_R   0.608750 0.500000 0.357160 -0.549028
O7    O     O_R   0.608750 0.500000 0.642840 -0.603477
O8    O     O_R   0.391250 0.500000 0.357160 -0.603456
C3    C     C_1   0.500000 0.065361 0.500000 -0.156945
C4    C     C_1   0.500000 0.934631 0.500000 -0.158949
C5    C     C_R   0.355264 0.500952 0.499462 0.855453
C6    C     C_R   0.644735 0.500934 0.500537 0.855459
Cu1   Cu    Cu3+1 0.500000 0.500000 0.669080 1.018148
Cu2   Cu    Cu3+1 0.500000 0.500000 0.330920 1.018149
C7    C     C_R   0.847213 0.589840 0.617115 0.340504
C8    C     C_R   0.152810 0.589825 0.382737 0.340503
C9    C     C_R   0.154191 0.407500 0.614501 0.289851
C10   C     C_R   0.845797 0.407572 0.385273 0.289784
C11   C     C_R   0.768222 0.591299 0.617418 0.016566
C12   C     C_R   0.231795 0.591366 0.382572 0.016593
C13   C     C_R   0.233433 0.408685 0.613969 0.035553
C14   C     C_R   0.766554 0.408714 0.385915 0.035594
C15   C     C_R   0.727640 0.500409 0.501713 -0.163783
C16   C     C_R   0.272363 0.500446 0.498269 -0.163757
C17   C     C_R   0.885571 0.497890 0.501196 -0.186583
C18   C     C_R   0.114432 0.497839 0.498567 -0.186549
C19   C     C_1   0.966270 0.497077 0.500171 0.220282
C20   C     C_1   0.033732 0.497056 0.499500 0.220268
N1    N     N_1   0.500000 0.500000 0.076820 -0.042860
N2    N     N_1   0.500000 0.500000 0.923180 -0.042860
N3    N     N_R   0.888241 0.681964 0.735380 0.159139
O9    O     O_R   0.870308 0.819835 0.753390 -0.249648
O10   O     O_R   0.941852 0.627171 0.830230 -0.243896
N4    N     N_R   0.111798 0.681852 0.264358 0.158998
O11   O     O_R   0.129558 0.819839 0.246677 -0.249611
O12   O     O_R   0.058430 0.626812 0.168964 -0.243782
N5    N     N_R   0.114261 0.316576 0.734765 0.134179
O13   O     O_R   0.125663 0.175318 0.738947 -0.290708
O14   O     O_R   0.064939 0.374361 0.837776 -0.238405
N6    N     N_R   0.885706 0.316759 0.264867 0.134118
O15   O     O_R   0.874345 0.175491 0.260587 -0.290676
O16   O     O_R   0.934944 0.374673 0.161738 -0.238499
N7    N     N_3   0.730371 0.686569 0.736177 -0.493709
H1    H     H_    0.701907 0.622620 0.826545 0.249811
H2    H     H_    0.691828 0.751931 0.668787 0.224161
N8    N     N_3   0.269654 0.686746 0.263947 -0.493756
H3    H     H_    0.298150 0.622880 0.173548 0.249824
H4    H     H_    0.308175 0.752085 0.331442 0.224106
N9    N     N_3   0.275131 0.317467 0.731199 -0.541662
H5    H     H_    0.256866 0.338757 0.856372 0.261196
H6    H     H_    0.264623 0.207291 0.701604 0.265381
N10   N     N_3   0.724845 0.317518 0.268688 -0.541663
H7    H     H_    0.743074 0.338867 0.143503 0.261166
H8    H     H_    0.735378 0.207338 0.298210 0.265387

loop_
_geom_bond_atom_site_label_1
_geom_bond_atom_site_label_2
_geom_bond_distance
_ccdc_geom_bond_type
O4    Cu2   1.935126 S    
C9    C13   1.407899 A    
O7    C6    1.280779 A    
C19   C20   1.198598 T    
O1    Cu1   1.935126 S    
C10   C17   1.407450 A    
C17   C19   1.433781 S    
O2    Cu2   1.935125 S    
C10   N6    1.438010 S    
N1    N2    1.194988 T    
C3    C4    1.188791 T    
O3    C2    1.272706 A    
C18   C20   1.433809 S    
N3    O9    1.301289 A    
O7    Cu1   1.943775 S    
C8    C18   1.407808 A    
Cu1   N2    1.976348 S    
N5    O14   1.300917 A    
O8    Cu2   1.943775 S    
N7    H1    1.044625 S    
Cu2   N1    1.976348 S    
C7    N3    1.439802 S    
C9    C18   1.407465 A    
O2    C2    1.272705 A    
N6    O16   1.300967 A    
O1    C1    1.272714 A    
Cu1   Cu2   2.630154 S    
C9    N5    1.438054 S    
N8    H4    1.045775 S    
N4    O11   1.301280 A    
N3    O10   1.301213 A    
C12   N8    1.435877 S    
C1    C3    1.406093 S    
C11   N7    1.435854 S    
N7    H2    1.045738 S    
C6    C15   1.472918 S    
C2    C4    1.406040 S    
N10   H8    1.044593 S    
C5    C16   1.472841 S    
N6    O15   1.300784 A    
N4    O12   1.301337 A    
C14   N10   1.435931 S    
N9    H5    1.045741 S    
C7    C17   1.407877 A    
O5    C5    1.282884 A    
O3    Cu1   1.935125 S    
C14   C15   1.410739 A    
O6    Cu2   1.941889 S    
C12   C16   1.416603 A    
C13   C16   1.410762 A    
N5    O13   1.300777 A    
C11   C15   1.416618 A    
N10   H7    1.045720 S    
N8    H3    1.044624 S    
O6    C6    1.282872 A    
O5    Cu1   1.941889 S    
C8    C12   1.403346 A    
C8    N4    1.439690 S    
C7    C11   1.403452 A    
C13   N9    1.435955 S    
C10   C14   1.407920 A    
O4    C1    1.272716 A    
N9    H6    1.044611 S    
O8    C5    1.280784 A    
