data_mof_unit_20951.cif
_audit_creation_date              2012-12-10T20:49:45-0500
_audit_creation_method            fapswitch 2.2
_symmetry_space_group_name_H-M    P1
_symmetry_Int_Tables_number       1
_space_group_crystal_system       triclinic
_cell_length_a                    8.094015
_cell_length_b                    8.915785
_cell_length_c                    17.130931
_cell_angle_alpha                 89.901584
_cell_angle_beta                  86.122683
_cell_angle_gamma                 90.081445
_cell_volume                      1233.4121361

loop_
_atom_site_label
_atom_site_type_symbol
_atom_type_description
_atom_site_fract_x
_atom_site_fract_y
_atom_site_fract_z
_atom_type_partial_charge
C1    C     C_R   0.500080 0.782039 0.499964 0.957581
C2    C     C_R   0.499938 0.217978 0.499954 0.901961
C3    C     C_1   0.500114 0.934802 0.499894 -0.141777
C4    C     C_1   0.499905 0.065228 0.499895 -0.179094
C5    C     C_R   0.479337 0.500305 0.652989 0.947910
C6    C     C_R   0.521228 0.504402 0.347689 0.967312
C7    C     C_R   0.475389 0.480477 0.737539 -0.248072
C8    C     C_R   0.531402 0.513530 0.263555 -0.219412
C9    C     C_R   0.614584 0.527657 0.776733 0.193877
C10   C     C_R   0.436447 0.622557 0.227356 0.185972
C11   C     C_R   0.632397 0.479784 0.852711 0.238909
C12   C     C_R   0.437839 0.626699 0.146170 0.227270
C13   C     C_R   0.498258 0.409921 0.894665 -0.059342
C14   C     C_R   0.537317 0.525002 0.102167 -0.050253
C15   C     C_R   0.356523 0.365948 0.857431 0.153528
C16   C     C_R   0.642795 0.423634 0.137766 0.159258
C17   C     C_R   0.347351 0.396325 0.777496 0.150963
C18   C     C_R   0.636717 0.414938 0.219578 0.103490
C19   C     C_2   0.497682 0.402485 0.979320 -0.127778
C20   C     C_2   0.531690 0.526886 0.018088 -0.028071
H1    H     H_    0.551099 0.633204 0.987545 0.198854
H2    H     H_    0.459049 0.300539 0.010018 0.170371
N1    N     N_1   0.926360 0.500000 0.499990 -0.003749
N2    N     N_1   0.073640 0.500000 0.500010 -0.003461
O1    O     O_R   0.363150 0.714660 0.500000 -0.600890
O2    O     O_R   0.636850 0.285340 0.500000 -0.615868
O3    O     O_R   0.636850 0.714660 0.500000 -0.611030
O4    O     O_R   0.363150 0.285340 0.500000 -0.622575
O5    O     O_R   0.346950 0.500000 0.615800 -0.592120
O6    O     O_R   0.653050 0.500000 0.384200 -0.599084
O7    O     O_R   0.620700 0.500000 0.615800 -0.590969
O8    O     O_R   0.379300 0.500000 0.384200 -0.598737
Zn1   Zn    Zn3+2 0.317220 0.500000 0.500010 1.042816
Zn2   Zn    Zn3+2 0.682780 0.500000 0.499990 1.043847
N3    N     N_2   0.221095 0.294649 0.900233 -0.292893
H3    H     H_    0.178084 0.349857 0.950417 0.267027
C21   C     C_3   0.235231 0.133853 0.910216 -0.706014
H4    H     H_    0.118441 0.079625 0.894698 0.267193
H5    H     H_    0.255489 0.106811 0.972181 0.246436
H6    H     H_    0.339456 0.086125 0.872533 0.243399
N4    N     N_2   0.761694 0.339644 0.090711 -0.274532
H7    H     H_    0.883477 0.364997 0.099283 0.245712
C22   C     C_3   0.729374 0.181014 0.081437 -0.710435
H8    H     H_    0.812422 0.114005 0.116925 0.242072
H9    H     H_    0.754438 0.150301 0.019014 0.266785
H10   H     H_    0.598605 0.151907 0.099208 0.240283
Br1   Br    Br    0.300505 0.769084 0.095114 -0.482107
Br2   Br    Br    0.843060 0.506871 0.898444 -0.484126
Br3   Br    Br    0.777037 0.668011 0.730677 -0.433474
Br4   Br    Br    0.311121 0.771742 0.288118 -0.451067
N5    N     N_2   0.735931 0.309048 0.258055 -0.284001
H11   H     H_    0.849546 0.285851 0.229958 0.242756
C23   C     C_3   0.649435 0.175595 0.286956 -0.677017
H12   H     H_    0.610136 0.106607 0.237678 0.248578
H13   H     H_    0.538433 0.205059 0.325354 0.226531
H14   H     H_    0.732969 0.107541 0.321646 0.244276
N6    N     N_2   0.208387 0.345712 0.737800 -0.256797
H15   H     H_    0.096541 0.352557 0.770176 0.289195
C24   C     C_3   0.231291 0.202304 0.699138 -0.673434
H16   H     H_    0.232309 0.110481 0.742868 0.236030
H17   H     H_    0.349287 0.200239 0.662148 0.221042
H18   H     H_    0.127830 0.182413 0.661045 0.246944

loop_
_geom_bond_atom_site_label_1
_geom_bond_atom_site_label_2
_ccdc_geom_bond_type
C18   N5    S    
C6    O8    A    
N1    N2    T    
C15   C17   A    
C21   H4    S    
C14   C20   S    
C9    C11   A    
N4    H7    S    
C2    C4    S    
N2    Zn1   S    
C22   H8    S    
N1    Zn2   S    
C1    O3    A    
O8    Zn1   S    
C19   C20   D    
C13   C15   A    
C11   Br2   S    
O7    Zn2   S    
C24   H16   S    
C2    O2    A    
C16   C18   A    
C23   H12   S    
C1    O1    A    
C22   H9    S    
N4    C22   S    
N6    H15   S    
C10   C12   A    
C12   Br1   S    
C15   N3    S    
N3    C21   S    
C12   C14   A    
O4    Zn1   S    
C21   H6    S    
C5    O5    A    
C23   H13   S    
O3    Zn2   S    
C21   H5    S    
C22   H10   S    
C14   C16   A    
C24   H17   S    
N6    C24   S    
O6    Zn2   S    
N5    C23   S    
N5    H11   S    
C10   Br4   S    
O5    Zn1   S    
C11   C13   A    
C19   H2    S    
C9    Br3   S    
C20   H1    S    
C7    C9    A    
C23   H14   S    
O1    Zn1   S    
C1    C3    S    
C5    C7    S    
C13   C19   S    
C2    O4    A    
C24   H18   S    
C6    C8    S    
C6    O6    A    
C16   N4    S    
O2    Zn2   S    
C8    C10   A    
C8    C18   A    
C3    C4    T    
N3    H3    S    
C17   N6    S    
C5    O7    A    
C7    C17   A    
