data_mof_unit_55903.cif
_audit_creation_date              2012-10-26T21:17:39-0400
_audit_creation_method            fapswitch 2.2
_symmetry_space_group_name_H-M    P1
_symmetry_Int_Tables_number       1
_space_group_crystal_system       triclinic
_cell_length_a                    10.932478
_cell_length_b                    9.085762
_cell_length_c                    7.779092
_cell_angle_alpha                 89.324541
_cell_angle_beta                  89.998997
_cell_angle_gamma                 89.99733
_cell_volume                      772.642682333

loop_
_atom_site_label
_atom_site_type_symbol
_atom_type_description
_atom_site_fract_x
_atom_site_fract_y
_atom_site_fract_z
_atom_type_partial_charge
C1    C     C_R   0.499974 0.220001 0.500196 0.579706
C2    C     C_R   0.064991 0.413776 0.652366 0.019412
C3    C     C_R   0.128679 0.468136 0.504663 0.007092
C4    C     C_R   0.871324 0.468121 0.504643 0.007089
C5    C     C_R   0.063145 0.514184 0.359470 -0.159640
C6    C     C_R   0.936855 0.514184 0.359466 -0.159629
C7    C     C_1   0.499972 0.065291 0.499842 0.010814
C8    C     C_1   0.499981 0.934568 0.498618 -0.005436
C9    C     C_R   0.499993 0.779971 0.499289 0.560243
C10   C     C_R   0.261971 0.488466 0.501126 0.554148
C11   C     C_R   0.738034 0.488457 0.501122 0.554163
C12   C     C_R   0.125000 0.355449 0.800345 0.113492
C13   C     C_R   0.874997 0.355339 0.800268 0.113488
C14   C     C_R   0.063208 0.346815 0.956491 -0.122587
C15   C     C_R   0.936755 0.346713 0.956455 -0.122549
C16   C     C_R   0.935016 0.413748 0.652341 0.019404
Cu1   Cu    Cu3+1 0.500000 0.500000 0.669080 1.088477
Cu2   Cu    Cu3+1 0.500000 0.500000 0.330920 1.056621
H1    H     H_    0.109838 0.556824 0.246572 0.150675
H2    H     H_    0.890163 0.556825 0.246567 0.150685
H3    H     H_    0.110216 0.308235 0.071009 0.151751
H4    H     H_    0.889744 0.308060 0.070928 0.151764
I1    I     I_    0.254005 0.183808 0.782652 -0.319901
I2    I     I_    0.745990 0.183677 0.782416 -0.319905
N1    N     N_1   0.500000 0.500000 0.076820 -0.069613
N2    N     N_1   0.500000 0.500000 0.923180 -0.058085
O1    O     O_R   0.500000 0.288390 0.642760 -0.460670
O2    O     O_R   0.500000 0.711610 0.642760 -0.489054
O3    O     O_R   0.500000 0.288370 0.357190 -0.497391
O4    O     O_R   0.500000 0.711630 0.357190 -0.497744
O5    O     O_R   0.319650 0.500000 0.642810 -0.490279
O6    O     O_R   0.680350 0.500000 0.642810 -0.490262
O7    O     O_R   0.319630 0.500000 0.357240 -0.513148
O8    O     O_R   0.680370 0.500000 0.357240 -0.513131

loop_
_geom_bond_atom_site_label_1
_geom_bond_atom_site_label_2
_ccdc_geom_bond_type
C4    C16   A    
Cu2   O4    S    
C6    H2    S    
C11   O8    A    
C2    C12   A    
C1    O3    A    
C2    C3    A    
C7    C8    T    
C1    O1    A    
C3    C10   S    
C4    C11   S    
Cu2   O8    S    
C12   I1    S    
Cu2   N1    S    
C9    O4    A    
C5    H1    S    
Cu1   N2    S    
C14   H3    S    
C12   C14   A    
C11   O6    A    
Cu1   Cu2   S    
C10   O7    A    
C13   C15   A    
C5    C6    A    
Cu1   O5    S    
Cu2   O7    S    
Cu1   O1    S    
C2    C16   A    
C9    O2    A    
C4    C6    A    
C13   C16   A    
Cu2   O3    S    
Cu1   O6    S    
C14   C15   A    
N1    N2    T    
C1    C7    S    
Cu1   O2    S    
C10   O5    A    
C15   H4    S    
C13   I2    S    
C8    C9    S    
C3    C5    A    
