data_mof_unit_21994.cif
_audit_creation_date              2012-12-10T20:31:04-0500
_audit_creation_method            fapswitch 2.2
_symmetry_space_group_name_H-M    P1
_symmetry_Int_Tables_number       1
_space_group_crystal_system       triclinic
_cell_length_a                    14.881431
_cell_length_b                    10.652166
_cell_length_c                    9.86977
_cell_angle_alpha                 90.077157
_cell_angle_beta                  89.791293
_cell_angle_gamma                 90.497939
_cell_volume                      1564.47992695

loop_
_atom_site_label
_atom_site_type_symbol
_atom_type_description
_atom_site_fract_x
_atom_site_fract_y
_atom_site_fract_z
_atom_type_partial_charge
C1    C     C_R   0.498169 0.259968 0.499995 0.902881
C2    C     C_R   0.907447 0.610693 0.486526 0.156936
C3    C     C_R   0.949576 0.266764 0.529743 0.466496
C4    C     C_R   0.043135 0.266273 0.527168 -0.259821
C5    C     C_R   0.092338 0.378933 0.515773 -0.004441
C6    C     C_R   0.046451 0.494173 0.502225 0.010619
C7    C     C_R   0.094223 0.608659 0.487483 0.155843
C8    C     C_R   0.048743 0.722295 0.473146 -0.201569
C9    C     C_R   0.955528 0.723257 0.472394 -0.226657
C10   C     C_R   0.186364 0.379860 0.516220 0.204599
C11   C     C_R   0.231744 0.494738 0.501006 -0.110054
C12   C     C_R   0.327098 0.498882 0.500270 0.949469
C13   C     C_R   0.186984 0.607669 0.486471 -0.319915
C14   C     C_R   0.493657 0.063977 0.622997 0.177157
C15   C     C_R   0.485367 0.128292 0.501270 -0.082265
C16   C     C_R   0.459542 0.064268 0.383240 -0.170059
C17   C     C_R   0.458258 0.934450 0.383744 -0.249318
C18   C     C_R   0.483672 0.871143 0.501845 -0.115199
C19   C     C_R   0.492900 0.936208 0.623294 0.158021
C20   C     C_3   0.564834 0.929359 0.728317 -0.504543
C21   C     C_3   0.565691 0.071708 0.727908 -0.502039
C22   C     C_R   0.446907 0.417343 0.071280 0.113605
C23   C     C_R   0.497250 0.739903 0.500138 0.861828
C24   C     C_R   0.558659 0.574014 0.072031 0.513966
C25   C     C_R   0.558820 0.572731 0.927335 -0.245282
C26   C     C_R   0.446941 0.417342 0.928953 0.196266
C27   C     C_3   0.347037 0.407602 0.923582 -0.461698
C28   C     C_3   0.346977 0.407720 0.077480 -0.480160
C29   C     C_R   0.672795 0.500490 0.499748 0.876656
C30   C     C_R   0.814502 0.611369 0.485101 -0.244883
C31   C     C_R   0.767778 0.498818 0.499268 -0.045092
C32   C     C_R   0.810874 0.384513 0.513944 -0.236997
C33   C     C_R   0.904125 0.381232 0.515653 0.004853
C34   C     C_R   0.952751 0.495272 0.501960 0.010737
H1    H     H_    0.778297 0.698758 0.473645 0.129209
H2    H     H_    0.443326 0.884706 0.290602 0.160733
H3    H     H_    0.539370 0.888423 0.824726 0.208833
H4    H     H_    0.628151 0.887730 0.689202 0.197144
H5    H     H_    0.540752 0.113472 0.824065 0.210514
H6    H     H_    0.629465 0.113098 0.688382 0.192137
H7    H     H_    0.605741 0.631175 0.871657 0.160766
H8    H     H_    0.315498 0.492426 0.879454 0.220937
H9    H     H_    0.324086 0.316935 0.879168 0.225529
H10   H     H_    0.315440 0.492663 0.121947 0.221949
H11   H     H_    0.771172 0.299111 0.523910 0.155215
H12   H     H_    0.323925 0.317150 0.121995 0.217781
H13   H     H_    0.076183 0.176534 0.533136 0.206184
H14   H     H_    0.224827 0.694667 0.474934 0.149744
H15   H     H_    0.085277 0.810178 0.461962 0.159208
H16   H     H_    0.921012 0.811709 0.460316 0.161396
H17   H     H_    0.445610 0.113446 0.289717 0.171828
N1    N     N_R   0.499390 0.499140 0.142800 -0.148015
N2    N     N_R   0.499390 0.499180 0.857150 -0.126990
O1    O     O_R   0.500010 0.316790 0.614690 -0.605751
O2    O     O_R   0.500000 0.316760 0.385350 -0.623384
O3    O     O_R   0.367850 0.499990 0.614680 -0.607412
O4    O     O_R   0.367840 0.499950 0.385340 -0.620126
O5    O     O_R   0.500000 0.683240 0.614650 -0.618851
O6    O     O_R   0.499990 0.683210 0.385310 -0.621992
O7    O     O_R   0.632160 0.500050 0.614660 -0.628420
O8    O     O_R   0.632150 0.500010 0.385320 -0.562702
Zn1   Zn    Zn3+2 0.500010 0.500020 0.653130 0.955107
Zn2   Zn    Zn3+2 0.499990 0.499980 0.346870 0.984292
O9    O     O_3   0.622104 0.643668 0.142277 -0.611278
C35   C     C_3   0.607674 0.774075 0.125908 0.088858
H18   H     H_    0.601679 0.815607 0.228633 0.185944
H19   H     H_    0.544806 0.798296 0.070466 0.091334
C36   C     C_3   0.688809 0.835480 0.056081 -0.371186
H20   H     H_    0.751628 0.805641 0.106954 0.247091
H21   H     H_    0.691950 0.805178 0.948525 0.207185
C37   C     C_3   0.682997 0.978468 0.062029 -0.942559
H22   H     H_    0.618549 0.010662 0.018516 0.263394
H23   H     H_    0.739113 0.021010 0.003192 0.270456
H24   H     H_    0.687661 0.011363 0.168660 0.270130
O10   O     O_3   0.903275 0.153478 0.532679 -0.649362
C38   C     C_3   0.880817 0.121654 0.667949 0.046426
H25   H     H_    0.815214 0.071051 0.665387 0.166281
H26   H     H_    0.871064 0.204835 0.735348 0.129532
C39   C     C_3   0.951589 0.034126 0.727678 -0.345623
H27   H     H_    0.965244 0.956493 0.655432 0.236032
H28   H     H_    0.015132 0.087224 0.744517 0.223137
C40   C     C_3   0.920277 0.978343 0.862270 -0.934014
H29   H     H_    0.906635 0.054270 0.936609 0.267559
H30   H     H_    0.973507 0.916999 0.903582 0.272995
H31   H     H_    0.858402 0.920913 0.847468 0.261537
Br1   Br    Br    0.254232 0.227053 0.537586 -0.598671

loop_
_geom_bond_atom_site_label_1
_geom_bond_atom_site_label_2
_ccdc_geom_bond_type
C24   N1    A    
C23   O5    A    
O5    Zn1   S    
C32   H11   S    
C19   C20   S    
C16   H17   S    
O10   C38   S    
C39   C40   S    
C7    C8    A    
C23   O6    A    
C28   H12   S    
C26   C27   S    
C30   H1    S    
C14   C21   S    
C38   H26   S    
C5    C6    A    
C16   C17   A    
C3    C33   A    
C15   C16   A    
O7    Zn1   S    
C18   C19   A    
O8    Zn2   S    
C8    C9    A    
C35   H19   S    
O2    Zn2   S    
C38   C39   S    
O4    Zn2   S    
C1    C15   S    
C17   H2    S    
C3    O10   S    
C2    C34   A    
C24   O9    S    
C22   C28   S    
C33   C34   A    
C29   O8    A    
C18   C23   S    
C38   H25   S    
C25   H7    S    
C39   H28   S    
C36   H20   S    
O1    Zn1   S    
C28   H10   S    
C6    C34   A    
C1    O1    A    
C13   H14   S    
C20   H4    S    
N2    Zn1   S    
C31   C32   A    
C21   H5    S    
C29   O7    A    
C35   C36   S    
C17   C18   A    
C24   C25   A    
C12   O3    A    
C12   O4    A    
C35   H18   S    
C40   H30   S    
O3    Zn1   S    
C3    C4    A    
C26   N2    A    
C22   N1    A    
C10   Br1   S    
C14   C19   A    
C9    H16   S    
C25   N2    A    
C4    C5    A    
N1    Zn2   S    
C37   H24   S    
C11   C12   S    
C6    C7    A    
C40   H31   S    
O6    Zn2   S    
C2    C30   A    
O9    C35   S    
C1    O2    A    
C5    C10   A    
C29   C31   S    
C32   C33   A    
C20   H3    S    
C11   C13   A    
C27   H8    S    
C30   C31   A    
C21   H6    S    
C36   C37   S    
C10   C11   A    
C39   H27   S    
C27   H9    S    
C7    C13   A    
C37   H22   S    
C20   C21   S    
C36   H21   S    
C40   H29   S    
C22   C26   A    
C37   H23   S    
C27   C28   S    
C14   C15   A    
C2    C9    A    
C8    H15   S    
C4    H13   S    
