data_mof_unit_49767.cif
_audit_creation_date              2012-12-11T20:34:22-0500
_audit_creation_method            fapswitch 2.2
_symmetry_space_group_name_H-M    P1
_symmetry_Int_Tables_number       1
_space_group_crystal_system       triclinic
_cell_length_a                    24.896949
_cell_length_b                    28.325644
_cell_length_c                    8.456724
_cell_angle_alpha                 90.0
_cell_angle_beta                  96.266712
_cell_angle_gamma                 90.011693
_cell_volume                      5928.23180323

loop_
_atom_site_label
_atom_site_type_symbol
_atom_type_description
_atom_site_fract_x
_atom_site_fract_y
_atom_site_fract_z
_atom_type_partial_charge
Ba1   Ba    Ba6+2 0.999910 0.466800 0.844920 1.632325
Ba2   Ba    Ba6+2 0.999910 0.533200 0.344920 1.634585
Ba3   Ba    Ba6+2 0.499910 0.966800 0.844920 1.632350
Ba4   Ba    Ba6+2 0.499910 0.033200 0.344920 1.634655
C1    C     C_3   0.048764 0.253339 0.683615 -0.095829
C2    C     C_2   0.863907 0.686570 0.836159 -0.131827
C3    C     C_2   0.356201 0.818868 0.346800 -0.137755
C4    C     C_2   0.364003 0.186615 0.836060 -0.131711
C5    C     C_2   0.828695 0.322254 0.190718 -0.068025
C6    C     C_2   0.830436 0.678523 0.692056 -0.063936
C7    C     C_2   0.328685 0.822262 0.190759 -0.068011
C8    C     C_2   0.330486 0.178545 0.692055 -0.063910
C9    C     C_2   0.839373 0.361921 0.096758 -0.129378
C10   C     C_2   0.838270 0.636894 0.604902 -0.129603
C11   C     C_2   0.339362 0.861926 0.096786 -0.129387
C12   C     C_3   0.061028 0.743915 0.168331 -0.092894
C13   C     C_2   0.338278 0.136892 0.604980 -0.129659
C14   C     C_1   0.878274 0.394665 0.153553 0.058063
C15   C     C_1   0.878715 0.605184 0.657803 0.056759
C16   C     C_1   0.378266 0.894669 0.153567 0.058021
C17   C     C_1   0.378735 0.105189 0.657830 0.056684
C18   C     C_R   0.216022 0.717974 0.019457 0.461103
C19   C     C_R   0.215833 0.281742 0.522266 0.462008
C20   C     C_R   0.716017 0.217981 0.019377 0.461045
C21   C     C_R   0.715809 0.781735 0.522270 0.461995
C22   C     C_R   0.789802 0.285295 0.125676 0.453438
C23   C     C_3   0.548760 0.753338 0.683620 -0.095826
C24   C     C_R   0.790045 0.714755 0.628983 0.451980
C25   C     C_R   0.289795 0.785299 0.125734 0.453401
C26   C     C_R   0.290085 0.214773 0.628987 0.451946
C27   C     C_R   0.165650 0.638952 0.078354 0.115661
C28   C     C_R   0.165627 0.360885 0.580287 0.122038
C29   C     C_R   0.665629 0.138970 0.078340 0.115531
C30   C     C_R   0.665628 0.860890 0.580252 0.122037
C31   C     C_R   0.122335 0.606997 0.032281 0.018766
C32   C     C_R   0.122657 0.393088 0.533043 0.024966
C33   C     C_R   0.622318 0.107009 0.032282 0.018736
C34   C     C_3   0.561004 0.244019 0.167745 -0.093274
C35   C     C_R   0.622658 0.893093 0.533020 0.024930
C36   C     C_R   0.100722 0.653616 0.789346 0.024070
C37   C     C_R   0.102144 0.347254 0.288826 0.034119
C38   C     C_R   0.600665 0.153651 0.789393 0.023783
C39   C     C_R   0.602141 0.847257 0.288808 0.034153
C40   C     C_3   0.993701 0.276199 0.092605 0.553354
C41   C     C_3   0.993583 0.724540 0.567726 0.576294
C42   C     C_3   0.493693 0.776201 0.092619 0.553351
C43   C     C_3   0.493551 0.224553 0.567137 0.576428
C44   C     C_R   0.141246 0.686532 0.836199 -0.178226
C45   C     C_3   0.885019 0.359511 0.414315 0.003880
C46   C     C_R   0.142115 0.313891 0.336524 -0.187856
C47   C     C_R   0.641200 0.186561 0.836214 -0.177645
C48   C     C_R   0.642104 0.813890 0.336514 -0.187856
C49   C     C_R   0.173394 0.681562 0.974700 -0.058430
C50   C     C_R   0.173452 0.318290 0.476603 -0.057327
C51   C     C_R   0.673373 0.181577 0.974662 -0.058610
C52   C     C_R   0.673442 0.818289 0.476589 -0.057326
C53   C     C_R   0.090103 0.614748 0.897204 -0.310149
C54   C     C_R   0.091013 0.385732 0.396926 -0.308416
C55   C     C_R   0.590069 0.114769 0.897237 -0.310176
C56   C     C_3   0.910029 0.657093 0.880841 -0.018856
C57   C     C_R   0.591012 0.885738 0.396904 -0.308428
C58   C     C_3   0.989562 0.221660 0.073357 -0.041883
C59   C     C_3   0.986763 0.777482 0.522297 -0.042479
C60   C     C_3   0.489549 0.721662 0.073369 -0.041881
C61   C     C_3   0.486711 0.277440 0.521038 -0.042269
C62   C     C_3   0.153215 0.468639 0.207939 0.355684
C63   C     C_3   0.153017 0.531456 0.707678 0.354739
C64   C     C_3   0.653227 0.968647 0.207971 0.355641
C65   C     C_3   0.652987 0.031469 0.707651 0.354686
C66   C     C_3   0.203421 0.436413 0.220422 0.102070
C67   C     C_3   0.385015 0.859519 0.414338 0.003879
C68   C     C_3   0.203167 0.563765 0.720450 0.102082
C69   C     C_3   0.703438 0.936426 0.220496 0.102064
C70   C     C_3   0.703123 0.063794 0.720405 0.102089
C71   C     C_3   0.848121 0.531442 0.978754 0.306173
C72   C     C_3   0.842356 0.471946 0.458802 0.313215
C73   C     C_3   0.348147 0.031453 0.978776 0.306199
C74   C     C_3   0.342348 0.971948 0.458831 0.313222
C75   C     C_3   0.798767 0.563429 0.961486 -0.374300
C76   C     C_3   0.789139 0.445487 0.423629 -0.378038
C77   C     C_3   0.298799 0.063447 0.961428 -0.374317
C78   C     C_3   0.410126 0.157135 0.880734 -0.019232
C79   C     C_3   0.289133 0.945478 0.423752 -0.378063
C80   C     C_3   0.019638 0.300396 0.646508 0.328516
C81   C     C_3   0.027682 0.698443 0.140999 0.337068
C82   C     C_3   0.519636 0.800396 0.646513 0.328524
C83   C     C_3   0.527694 0.198514 0.140633 0.337180
C84   C     C_2   0.908830 0.386170 0.296577 -0.276166
C85   C     C_2   0.911649 0.613266 0.797553 -0.270674
C86   C     C_2   0.408824 0.886175 0.296592 -0.276155
C87   C     C_2   0.411699 0.113288 0.797523 -0.270485
C88   C     C_3   0.210801 0.661931 0.342592 -0.140224
C89   C     C_2   0.856209 0.318859 0.346763 -0.137764
C90   C     C_3   0.210422 0.337107 0.844107 -0.138604
C91   C     C_3   0.710715 0.162020 0.342570 -0.140231
C92   C     C_3   0.710422 0.837135 0.844083 -0.138589
H1    H     H_    0.028666 0.323240 0.752186 0.113138
H2    H     H_    0.859467 0.478295 0.345370 0.021976
H3    H     H_    0.564178 0.265555 0.938722 0.199484
H4    H     H_    0.210199 0.593867 0.243682 0.221851
H5    H     H_    0.201831 0.644698 0.453606 0.136106
H6    H     H_    0.184306 0.693332 0.320463 0.098574
H7    H     H_    0.253573 0.673253 0.364275 0.124113
H8    H     H_    0.209467 0.405613 0.748343 0.221940
H9    H     H_    0.201616 0.353939 0.956131 0.133276
H10   H     H_    0.253140 0.325578 0.864626 0.122266
H11   H     H_    0.183715 0.305854 0.820728 0.102293
H12   H     H_    0.710139 0.093927 0.243880 0.221897
H13   H     H_    0.364606 0.028871 0.862822 0.012915
H14   H     H_    0.701807 0.144796 0.453666 0.136060
H15   H     H_    0.684153 0.193378 0.320383 0.098534
H16   H     H_    0.753466 0.173404 0.364172 0.124135
H17   H     H_    0.709503 0.905626 0.748198 0.221894
H18   H     H_    0.701614 0.853984 0.956068 0.133353
H19   H     H_    0.753136 0.825600 0.864626 0.122271
H20   H     H_    0.683710 0.805883 0.820741 0.102299
H21   H     H_    0.945411 0.333190 0.025215 0.201224
H22   H     H_    0.911151 0.283000 0.047418 0.139448
H23   H     H_    0.946829 0.664396 0.529057 0.188426
H24   H     H_    0.359437 0.978294 0.345363 0.021937
H25   H     H_    0.911156 0.714426 0.526216 0.134349
H26   H     H_    0.445407 0.833195 0.025242 0.201219
H27   H     H_    0.411143 0.783007 0.047455 0.139442
H28   H     H_    0.446833 0.164366 0.529194 0.188234
H29   H     H_    0.411129 0.214379 0.525757 0.134301
H30   H     H_    0.962780 0.272391 0.308494 0.156304
H31   H     H_    0.990712 0.323813 0.277583 0.115954
H32   H     H_    0.994251 0.685070 0.771468 0.110643
H33   H     H_    0.963368 0.736988 0.781413 0.137478
H34   H     H_    0.462778 0.772394 0.308516 0.156321
H35   H     H_    0.878696 0.547279 0.068759 0.075975
H36   H     H_    0.490714 0.823816 0.277601 0.115949
H37   H     H_    0.494237 0.185299 0.771275 0.110581
H38   H     H_    0.463332 0.237228 0.780669 0.137465
H39   H     H_    0.060161 0.210542 0.219868 0.203461
H40   H     H_    0.066718 0.205382 0.024661 0.203923
H41   H     H_    0.036597 0.806765 0.706510 0.199785
H42   H     H_    0.068891 0.791486 0.548297 0.205873
H43   H     H_    0.560150 0.710540 0.219873 0.203461
H44   H     H_    0.566703 0.705378 0.024664 0.203920
H45   H     H_    0.535421 0.307656 0.705703 0.199208
H46   H     H_    0.870729 0.450489 0.539968 0.038155
H47   H     H_    0.568910 0.291182 0.551219 0.206291
H48   H     H_    0.378706 0.047283 0.068838 0.076085
H49   H     H_    0.370739 0.950500 0.539978 0.038169
H50   H     H_    0.768570 0.550021 0.865624 0.130676
H51   H     H_    0.759574 0.467760 0.349325 0.139434
H52   H     H_    0.268624 0.050052 0.865488 0.130659
H53   H     H_    0.045241 0.671888 0.228002 0.101820
H54   H     H_    0.259553 0.967740 0.349454 0.139423
H55   H     H_    0.810497 0.599800 0.931404 0.073614
H56   H     H_    0.794854 0.412408 0.358096 0.065797
H57   H     H_    0.310547 0.099819 0.931418 0.073654
H58   H     H_    0.294844 0.912393 0.358246 0.065808
H59   H     H_    0.780283 0.564545 0.075193 0.132547
H60   H     H_    0.772493 0.436712 0.536659 0.126896
H61   H     H_    0.280283 0.064555 0.075079 0.132571
H62   H     H_    0.272507 0.936711 0.536820 0.126916
H63   H     H_    0.036308 0.317676 0.545088 -0.011368
H64   H     H_    0.528660 0.823238 0.752197 0.113142
H65   H     H_    0.032755 0.685142 0.020879 -0.045114
H66   H     H_    0.536312 0.817678 0.545106 -0.011366
H67   H     H_    0.532643 0.185284 0.020359 -0.045433
H68   H     H_    0.089934 0.260479 0.743768 0.085690
H69   H     H_    0.104662 0.734731 0.178425 0.064736
H70   H     H_    0.589930 0.760477 0.743778 0.085696
H71   H     H_    0.604620 0.234933 0.175471 0.064492
H72   H     H_    0.960080 0.207063 0.150173 0.080768
H73   H     H_    0.950202 0.792063 0.569526 0.074388
H74   H     H_    0.460066 0.707066 0.150187 0.080764
H75   H     H_    0.545397 0.171942 0.227360 0.101340
H76   H     H_    0.449955 0.291998 0.567221 0.073786
H77   H     H_    0.850031 0.288450 0.420861 0.096066
H78   H     H_    0.858794 0.718467 0.904146 0.089635
H79   H     H_    0.350025 0.788460 0.420903 0.096073
H80   H     H_    0.358928 0.218535 0.903963 0.089504
H81   H     H_    0.818930 0.365646 0.977239 0.106848
H82   H     H_    0.813783 0.630506 0.492614 0.101392
H83   H     H_    0.318917 0.865648 0.977266 0.106832
H84   H     H_    0.313754 0.130483 0.492771 0.101374
H85   H     H_    0.147721 0.715441 0.756500 0.094697
H86   H     H_    0.190051 0.399640 0.237823 0.051390
H87   H     H_    0.148632 0.284984 0.256865 0.095143
H88   H     H_    0.647670 0.215469 0.756509 0.094543
H89   H     H_    0.648615 0.784978 0.256865 0.095143
H90   H     H_    0.950398 0.398290 0.316262 0.056543
H91   H     H_    0.944821 0.589292 0.832543 0.065092
H92   H     H_    0.450392 0.898292 0.316267 0.056543
H93   H     H_    0.444874 0.089314 0.832470 0.065075
H94   H     H_    0.057692 0.590403 0.859750 0.071560
H95   H     H_    0.058817 0.410205 0.358754 0.070829
H96   H     H_    0.557660 0.090421 0.859793 0.071557
H97   H     H_    0.189653 0.600547 0.737163 0.054739
H98   H     H_    0.558817 0.910212 0.358736 0.070848
H99   H     H_    0.026725 0.232393 0.765614 0.136967
H100  H     H_    0.053837 0.760877 0.281168 0.147369
H101  H     H_    0.526717 0.732392 0.765615 0.136960
H102  H     H_    0.554477 0.260651 0.281654 0.147786
H103  H     H_    0.973292 0.212397 0.949784 0.101606
H104  H     H_    0.979535 0.781314 0.391114 0.126826
H105  H     H_    0.473277 0.712401 0.949795 0.101601
H106  H     H_    0.479817 0.281142 0.389785 0.127784
H107  H     H_    0.136501 0.469863 0.323831 -0.045462
H108  H     H_    0.690074 0.899654 0.237967 0.051396
H109  H     H_    0.136043 0.530386 0.823196 -0.044780
H110  H     H_    0.636513 0.969879 0.323865 -0.045456
H111  H     H_    0.636008 0.030403 0.823166 -0.044800
H112  H     H_    0.122542 0.453444 0.116919 0.063295
H113  H     H_    0.122479 0.546502 0.616024 0.067370
H114  H     H_    0.622556 0.953440 0.116965 0.063253
H115  H     H_    0.622444 0.046501 0.615976 0.067533
H116  H     H_    0.254118 0.484314 0.344167 0.200433
H117  H     H_    0.224155 0.445981 0.460305 0.175939
H118  H     H_    0.253944 0.516126 0.845039 0.200408
H119  H     H_    0.689591 0.100572 0.737126 0.054780
H120  H     H_    0.223506 0.554280 0.960550 0.176603
H121  H     H_    0.754149 0.984344 0.344115 0.200424
H122  H     H_    0.724172 0.946050 0.460354 0.175936
H123  H     H_    0.753925 0.016170 0.845003 0.200422
H124  H     H_    0.723476 0.054322 0.960510 0.176603
H125  H     H_    0.260118 0.412798 0.081848 0.181911
H126  H     H_    0.248319 0.470620 0.065948 0.200791
H127  H     H_    0.248161 0.529290 0.566801 0.200695
H128  H     H_    0.260325 0.587066 0.582931 0.181964
H129  H     H_    0.760153 0.912806 0.081993 0.181958
H130  H     H_    0.864552 0.528858 0.862757 0.012968
H131  H     H_    0.748303 0.970623 0.065890 0.200803
H132  H     H_    0.748101 0.029337 0.566668 0.200671
H133  H     H_    0.760276 0.087103 0.582871 0.182005
H134  H     H_    0.015111 0.218451 0.484540 0.216028
H135  H     H_    0.075161 0.245203 0.464921 0.191480
H136  H     H_    0.007754 0.781877 0.014186 0.209200
H137  H     H_    0.065258 0.764658 0.938949 0.199203
H138  H     H_    0.515107 0.718449 0.484545 0.216025
H139  H     H_    0.575157 0.745203 0.464925 0.191489
H140  H     H_    0.506880 0.282049 0.016368 0.209307
N1    N     N_R   0.265087 0.705825 0.095038 -0.226900
N2    N     N_R   0.741391 0.702161 0.551416 -0.234069
N3    N     N_R   0.241850 0.797497 0.043227 -0.235470
N4    N     N_R   0.241437 0.202174 0.551388 -0.234072
N5    N     N_R   0.205641 0.764586 0.991966 -0.245787
N6    N     N_R   0.204998 0.234943 0.499934 -0.244010
N7    N     N_R   0.705647 0.264593 0.991896 -0.245967
N8    N     N_R   0.704959 0.734937 0.499965 -0.244019
N9    N     N_3   0.242572 0.449117 0.355633 -0.488627
N10   N     N_3   0.242146 0.551260 0.856274 -0.489026
N11   N     N_3   0.742592 0.949154 0.355675 -0.488607
N12   N     N_R   0.265423 0.294196 0.593074 -0.227640
N13   N     N_3   0.742115 0.051302 0.856224 -0.489010
N14   N     N_3   0.229242 0.438000 0.073274 -0.483186
N15   N     N_3   0.229264 0.562013 0.573801 -0.482871
N16   N     N_3   0.729254 0.937990 0.073334 -0.483201
N17   N     N_3   0.729214 0.062057 0.573734 -0.482870
N18   N     N_3   0.053717 0.225428 0.541228 -0.482856
N19   N     N_3   0.049567 0.777929 0.039597 -0.483989
N20   N     N_3   0.553713 0.725427 0.541232 -0.482850
N21   N     N_3   0.548760 0.278352 0.040420 -0.483924
N22   N     N_2   0.204411 0.628661 0.211390 -0.417772
N23   N     N_R   0.765080 0.205825 0.094945 -0.226854
N24   N     N_2   0.204019 0.370912 0.714464 -0.418586
N25   N     N_2   0.704365 0.128712 0.211467 -0.417735
N26   N     N_2   0.704029 0.870921 0.714396 -0.418591
N27   N     N_3   0.945611 0.296969 0.004587 -0.449845
N28   N     N_3   0.946267 0.699304 0.491168 -0.429176
N29   N     N_3   0.445603 0.796975 0.004612 -0.449847
N30   N     N_3   0.446250 0.199232 0.490883 -0.428835
N31   N     N_3   0.996058 0.287677 0.262794 -0.525212
N32   N     N_3   0.996917 0.720490 0.741234 -0.530596
N33   N     N_3   0.496057 0.787679 0.262809 -0.525208
N34   N     N_R   0.765404 0.794182 0.593058 -0.227607
N35   N     N_3   0.496890 0.220690 0.740681 -0.530465
N36   N     N_3   0.041430 0.197719 0.112133 -0.477986
N37   N     N_3   0.033433 0.806256 0.582354 -0.486652
N38   N     N_3   0.541416 0.697717 0.112141 -0.477990
N39   N     N_3   0.533192 0.306344 0.581767 -0.487000
N40   N     N_R   0.800970 0.238714 0.148642 -0.257332
N41   N     N_R   0.801508 0.761491 0.646522 -0.259266
N42   N     N_R   0.300972 0.738719 0.148722 -0.257342
N43   N     N_R   0.301534 0.261511 0.646543 -0.259322
N44   N     N_R   0.741862 0.297498 0.043164 -0.235551
O1    O     O_2   0.893910 0.433590 0.874460 -0.458077
O2    O     O_3   0.041202 0.707715 0.507813 -0.604376
O3    O     O_3   0.540364 0.791387 0.023800 -0.610678
O4    O     O_3   0.541185 0.207678 0.507444 -0.604402
O5    O     O_3   0.061740 0.523180 0.062830 -0.492336
O6    O     O_3   0.061740 0.476820 0.562830 -0.491619
O7    O     O_3   0.561740 0.023180 0.062830 -0.492338
O8    O     O_3   0.561740 0.976820 0.562830 -0.491643
O9    O     O_3   0.938210 0.476710 0.126870 -0.496046
O10   O     O_3   0.938210 0.523290 0.626870 -0.489143
O11   O     O_3   0.438210 0.976710 0.126870 -0.496063
O12   O     O_2   0.893910 0.566410 0.374460 -0.469354
O13   O     O_3   0.438210 0.023290 0.626870 -0.489167
O14   O     O_3   0.981570 0.392580 0.636990 -0.494881
O15   O     O_3   0.981570 0.607420 0.136990 -0.491470
O16   O     O_3   0.481570 0.892580 0.636990 -0.494885
O17   O     O_3   0.481570 0.107420 0.136990 -0.491218
O18   O     O_2   0.898687 0.350315 0.745548 -0.466188
O19   O     O_2   0.891680 0.648450 0.209046 -0.465937
O20   O     O_2   0.398692 0.850314 0.745568 -0.466185
O21   O     O_2   0.391667 0.148446 0.208845 -0.465890
O22   O     O_3   0.832459 0.486647 0.026298 -0.630548
O23   O     O_2   0.393910 0.933590 0.874460 -0.458069
O24   O     O_3   0.831517 0.514594 0.531524 -0.628816
O25   O     O_3   0.332467 0.986657 0.026272 -0.630532
O26   O     O_3   0.331513 0.014600 0.531535 -0.628814
O27   O     O_3   0.963403 0.293594 0.613535 -0.604683
O28   O     O_3   0.972630 0.705770 0.161021 -0.588576
O29   O     O_3   0.463402 0.793596 0.613515 -0.604703
O30   O     O_3   0.472672 0.205759 0.161241 -0.588576
O31   O     O_2   0.105800 0.433150 0.815270 -0.442357
O32   O     O_2   0.105800 0.566850 0.315270 -0.441715
O33   O     O_2   0.605800 0.933150 0.815270 -0.442316
O34   O     O_2   0.393910 0.066410 0.374460 -0.469343
O35   O     O_2   0.605800 0.066850 0.315270 -0.441684
O36   O     O_3   0.018000 0.392500 0.052760 -0.484410
O37   O     O_3   0.018000 0.607500 0.552760 -0.483064
O38   O     O_3   0.518000 0.892500 0.052760 -0.484409
O39   O     O_3   0.518000 0.107500 0.552760 -0.482931
O40   O     O_2   0.107439 0.357103 0.968677 -0.499680
O41   O     O_2   0.108712 0.640697 0.474489 -0.498526
O42   O     O_2   0.607434 0.857099 0.968660 -0.499696
O43   O     O_2   0.608715 0.140658 0.474648 -0.498310
O44   O     O_3   0.167720 0.485826 0.665677 -0.657460
O45   O     O_3   0.167758 0.514227 0.165043 -0.656805
O46   O     O_3   0.667710 0.985838 0.665697 -0.657486
O47   O     O_3   0.667763 0.014233 0.165022 -0.656799
O48   O     O_3   0.040372 0.291389 0.023797 -0.610669
P1    P     P_3+3 0.888690 0.449140 0.046940 0.979896
P2    P     P_3+3 0.065729 0.652934 0.585140 0.926957
P3    P     P_3+3 0.565981 0.847180 0.086681 0.921704
P4    P     P_3+3 0.565702 0.152942 0.585141 0.927069
P5    P     P_3+3 0.936707 0.654382 0.097684 0.962350
P6    P     P_3+3 0.931650 0.349180 0.600838 0.954853
P7    P     P_3+3 0.436738 0.154398 0.097644 0.962455
P8    P     P_3+3 0.431649 0.849182 0.600846 0.954852
P9    P     P_3+3 0.888690 0.550860 0.546940 0.983677
P10   P     P_3+3 0.388690 0.949140 0.046940 0.979899
P11   P     P_3+3 0.388690 0.050860 0.546940 0.983685
P12   P     P_3+3 0.111080 0.448680 0.642780 0.981113
P13   P     P_3+3 0.111080 0.551320 0.142780 0.979724
P14   P     P_3+3 0.611080 0.948680 0.642780 0.981105
P15   P     P_3+3 0.611080 0.051320 0.142780 0.979756
P16   P     P_3+3 0.065985 0.347182 0.086692 0.921686

loop_
_geom_bond_atom_site_label_1
_geom_bond_atom_site_label_2
_ccdc_geom_bond_type
C29   C51   S    
C30   C52   S    
C22   N44   A    
C79   H58   S    
Ba4   P11   S    
H31   N31   S    
Ba1   O14   S    
O15   P5    S    
Ba2   O9    S    
C43   C61   S    
H139  N20   S    
H37   N35   S    
H120  N10   S    
O33   P14   D    
O23   P10   D    
C68   N10   S    
C19   N12   A    
C5    C9    A    
N12   N43   A    
H128  N15   S    
C7    C11   A    
O16   P8    S    
H43   N38   S    
C65   H115  S    
C75   H50   S    
C63   H109  S    
C88   H6    S    
C69   N16   S    
Ba1   P1    S    
C92   H18   S    
C64   O47   S    
Ba2   O15   S    
Ba1   O6    S    
O48   P16   S    
C80   H63   S    
C5    C22   S    
C34   H71   S    
C35   C57   D    
O44   P12   S    
O20   P8    D    
C41   N28   S    
C2    H78   S    
C13   C17   A    
C78   C87   A    
C23   C82   S    
C74   H24   S    
O17   P7    S    
C83   H75   S    
N23   N40   A    
H40   N36   S    
C9    C14   A    
C12   C81   S    
O4    P4    S    
H138  N20   S    
C72   O24   S    
C39   C57   S    
C21   N8    A    
C36   C44   A    
C92   N26   S    
C10   C15   A    
H121  N11   S    
C26   N4    A    
Ba3   O16   S    
C80   O27   S    
C69   N11   S    
H122  N11   S    
H38   N35   S    
Ba4   O11   S    
C15   P9    S    
Ba1   O1    S    
C62   C66   S    
C42   N29   S    
C89   H77   S    
C63   H113  S    
C47   C51   D    
O6    P12   S    
C56   P5    S    
C66   N9    S    
C75   H59   S    
C91   N25   S    
H125  N14   S    
C92   H20   S    
C45   C89   A    
C71   C75   S    
C18   N5    A    
C58   H72   S    
C11   H83   S    
C64   H114  S    
Ba3   P10   S    
O24   P9    S    
C87   H93   S    
C28   C32   A    
N34   N41   A    
C78   P7    S    
C37   C54   S    
C12   N19   S    
C39   C48   A    
O39   P4    S    
C77   H57   S    
C63   C68   S    
Ba2   O12   S    
C37   P16   S    
C59   N37   S    
C90   N24   S    
H22   N27   S    
C34   H102  S    
C58   H103  S    
C23   N20   S    
C79   H54   S    
H136  N19   S    
C32   P12   S    
C66   H86   S    
C40   N31   S    
C44   C49   D    
C90   H11   S    
Ba4   O7    S    
O7    P15   S    
C61   H76   S    
C30   C35   A    
C28   N24   S    
C6    C10   A    
C1    C80   S    
O14   P6    S    
C35   P14   S    
C14   C84   A    
C71   O22   S    
O25   P10   S    
C73   H13   S    
H23   N28   S    
C12   H69   S    
C4    C8    A    
O8    P14   S    
N3    N5    A    
C10   H82   S    
H117  N9    S    
C33   C55   D    
H33   N32   S    
Ba2   O5    S    
H126  N14   S    
O18   P6    D    
C64   H110  S    
O38   P3    S    
C62   O45   S    
H45   N39   S    
Ba3   Ba4   S    
O46   P14   S    
C70   N13   S    
C43   N30   S    
O30   P7    S    
C41   O2    S    
C72   C76   S    
C38   C55   S    
C4    H80   S    
O19   P5    D    
C67   C86   A    
C67   P8    S    
O2    P2    S    
C27   N22   S    
H17   N26   S    
C68   N15   S    
C39   P3    S    
H132  N17   S    
C43   N35   S    
Ba1   O36   S    
O13   P11   S    
O43   P4    D    
C82   O29   S    
C60   H105  S    
C90   H9    S    
C6    C24   S    
C70   H119  S    
C61   N39   S    
C81   H65   S    
C23   H101  S    
Ba1   O5    S    
C24   N41   A    
Ba3   O7    S    
C46   C50   D    
C19   C50   S    
C4    C78   A    
C80   H1    S    
Ba3   O33   S    
C91   H16   S    
H25   N28   S    
C44   H85   S    
H3    N21   S    
C29   N25   S    
C59   H104  S    
H8    N24   S    
C24   N2    A    
C74   C79   S    
C33   P15   S    
C73   O25   S    
C61   H106  S    
C8    C13   A    
O10   P9    S    
C66   N14   S    
O5    P13   S    
H124  N13   S    
H47   N39   S    
C85   H91   S    
C45   C84   A    
C55   H96   S    
Ba3   O8    S    
C40   N27   S    
O3    P3    S    
Ba4   O35   S    
C28   C50   S    
C36   P2    S    
O26   P11   S    
C40   O48   S    
C65   O46   S    
H4    N22   S    
C65   H111  S    
C77   H61   S    
H42   N37   S    
Ba3   O13   S    
C47   H88   S    
C68   H97   S    
H34   N33   S    
Ba2   P9    S    
C60   N38   S    
C25   N42   A    
C29   C33   A    
O41   P2    D    
C11   C16   A    
C12   H100  S    
C62   H112  S    
C73   C77   S    
C77   H52   S    
H32   N32   S    
H12   N25   S    
Ba4   P15   S    
Ba1   P12   S    
C88   H5    S    
C81   O28   S    
O9    P1    S    
H129  N16   S    
C27   C31   A    
Ba4   O17   S    
O28   P5    S    
C37   C46   A    
H36   N33   S    
C45   P6    S    
C17   C87   A    
H127  N15   S    
C36   C53   S    
C8    C26   S    
C17   P11   S    
H116  N9    S    
H134  N18   S    
C91   H14   S    
N7    N44   A    
C2    C6    A    
C88   N22   S    
O37   P2    S    
C34   C83   S    
C31   C53   D    
N1    N42   A    
O27   P6    S    
C22   N40   A    
H28   N30   S    
C79   H62   S    
C9    H81   S    
H39   N36   S    
Ba1   O10   S    
C72   H2    S    
O35   P15   D    
C70   N17   S    
C23   H70   S    
H21   N27   S    
H123  N13   S    
C54   H95   S    
C82   H64   S    
O22   P1    S    
H131  N16   S    
C83   H67   S    
N2    N8    A    
H29   N30   S    
C46   H87   S    
C21   C52   S    
O36   P16   S    
C56   C85   A    
C20   C51   S    
C3    C7    A    
C20   N23   A    
H140  N21   S    
Ba4   O8    S    
C14   P1    S    
C32   C54   D    
C3    C67   A    
C59   H73   S    
C26   N43   A    
C20   N7    A    
Ba1   Ba2   S    
Ba3   O38   S    
H44   N38   S    
H135  N18   S    
C88   H7    S    
C76   H51   S    
C3    H79   S    
C92   H19   S    
C82   H66   S    
C38   P4    S    
C21   N34   A    
C74   H49   S    
C38   C47   A    
Ba2   O6    S    
C83   O30   S    
C84   H90   S    
Ba1   O31   S    
Ba2   O32   S    
C60   H74   S    
C42   O3    S    
C31   P13   S    
Ba3   O23   S    
O11   P10   S    
C71   H35   S    
C76   H60   S    
C18   C49   S    
C41   N32   S    
C69   H108  S    
C30   N26   S    
C1    H68   S    
C2    C56   A    
C65   C70   S    
O29   P8    S    
O21   P7    D    
Ba4   O34   S    
C40   C58   S    
C64   C69   S    
C74   O26   S    
C16   C86   A    
C41   C59   S    
C42   C60   S    
C1    N18   S    
C15   C85   A    
C16   P10   S    
H27   N29   S    
O12   P9    D    
N4    N6    A    
H118  N10   S    
C27   C49   S    
C19   N6    A    
Ba4   O39   S    
O47   P15   S    
C62   H107  S    
C13   H84   S    
C42   N33   S    
H30   N31   S    
C48   H89   S    
C34   N21   S    
C5    C89   A    
O45   P13   S    
Ba2   P13   S    
C75   H55   S    
C76   H56   S    
C90   H10   S    
C71   H130  S    
H133  N17   S    
Ba2   O37   S    
C1    H99   S    
C18   N1    A    
C73   H48   S    
C53   H94   S    
C91   H15   S    
O34   P11   D    
Ba3   P14   S    
O32   P13   D    
C86   H92   S    
O42   P3    D    
H41   N37   S    
C25   N3    A    
O1    P1    D    
C81   H53   S    
C43   O4    S    
H137  N19   S    
C63   O44   S    
C7    C25   S    
O31   P12   D    
C57   H98   S    
O40   P16   D    
C48   C52   D    
H26   N29   S    
C58   N36   S    
C72   H46   S    
