data_mof_unit_9723.cif
_audit_creation_date              2012-12-10T17:53:20-0500
_audit_creation_method            fapswitch 2.2
_symmetry_space_group_name_H-M    P1
_symmetry_Int_Tables_number       1
_space_group_crystal_system       triclinic
_cell_length_a                    23.410026
_cell_length_b                    10.63499
_cell_length_c                    9.908009
_cell_angle_alpha                 89.85813
_cell_angle_beta                  89.951388
_cell_angle_gamma                 91.692385
_cell_volume                      2465.66673073

loop_
_atom_site_label
_atom_site_type_symbol
_atom_type_description
_atom_site_fract_x
_atom_site_fract_y
_atom_site_fract_z
_atom_type_partial_charge
C1    C     C_R   0.501610 0.260850 0.500198 0.882864
C2    C     C_R   0.966840 0.273639 0.595354 -0.164543
C3    C     C_R   0.026307 0.273010 0.595563 -0.156859
C4    C     C_R   0.058202 0.377583 0.547363 -0.015696
C5    C     C_R   0.029948 0.483577 0.498354 -0.019795
C6    C     C_R   0.061554 0.588948 0.449488 -0.013124
C7    C     C_R   0.033039 0.694169 0.401119 -0.156489
C8    C     C_R   0.973603 0.694982 0.401409 -0.158334
C9    C     C_R   0.117888 0.379363 0.546740 0.503607
C10   C     C_R   0.121129 0.586173 0.450844 0.502137
C11   C     C_R   0.237729 0.504852 0.620760 -0.112149
C12   C     C_R   0.389395 0.498111 0.500105 0.856032
C13   C     C_R   0.297036 0.509425 0.621111 -0.233362
C14   C     C_R   0.327147 0.492023 0.500337 -0.043291
C15   C     C_R   0.297297 0.468049 0.379817 -0.249894
C16   C     C_R   0.238014 0.463916 0.379795 -0.103921
C17   C     C_R   0.208380 0.482764 0.500070 0.325374
C18   C     C_R   0.761625 0.475612 0.379829 -0.193928
C19   C     C_R   0.702518 0.479367 0.379174 -0.206534
C20   C     C_R   0.672830 0.496558 0.500315 -0.081727
C21   C     C_R   0.702876 0.509394 0.622261 -0.374439
C22   C     C_R   0.762541 0.502569 0.624037 0.540198
C23   C     C_R   0.501292 0.739436 0.499786 0.919792
C24   C     C_R   0.791460 0.488099 0.501305 0.251784
C25   C     C_R   0.597392 0.136325 0.622096 -0.156562
C26   C     C_R   0.642573 0.073039 0.680140 -0.123834
C27   C     C_R   0.642531 0.942232 0.678953 -0.117822
C28   C     C_R   0.597286 0.874307 0.619840 -0.158785
C29   C     C_R   0.550633 0.937013 0.562038 0.036297
C30   C     C_R   0.550816 0.068793 0.562989 0.101736
C31   C     C_R   0.505004 0.128946 0.500317 -0.161782
C32   C     C_R   0.461219 0.063328 0.434313 -0.307669
C33   C     C_R   0.459914 0.934410 0.435556 0.473794
C34   C     C_R   0.610618 0.499966 0.499964 0.865943
C35   C     C_R   0.504325 0.872129 0.499389 -0.231012
C36   C     C_R   0.424988 0.335177 0.140665 -0.163282
C37   C     C_R   0.388025 0.254015 0.070739 -0.188886
C38   C     C_R   0.388016 0.254015 0.931036 -0.181490
C39   C     C_R   0.424990 0.335133 0.860461 -0.155791
C40   C     C_R   0.463026 0.418773 0.927956 0.165908
C41   C     C_R   0.463030 0.418814 0.072586 0.174253
C42   C     C_R   0.535426 0.577574 0.071223 -0.102418
C43   C     C_R   0.535420 0.577535 0.928065 -0.115500
C44   C     C_R   0.882095 0.589407 0.451865 0.531950
C45   C     C_R   0.878720 0.381940 0.546119 0.547645
C46   C     C_R   0.938314 0.378914 0.547104 -0.023741
C47   C     C_R   0.969949 0.484311 0.498413 -0.020757
C48   C     C_R   0.941731 0.590526 0.449917 -0.023483
H1    H     H_    0.943361 0.191653 0.633253 0.193826
H2    H     H_    0.680177 0.468976 0.283986 0.170528
H3    H     H_    0.680109 0.526531 0.715183 0.161267
H4    H     H_    0.427141 0.112356 0.384278 0.156263
H5    H     H_    0.599884 0.237949 0.622256 0.149068
H6    H     H_    0.678004 0.125720 0.724831 0.141822
H7    H     H_    0.677931 0.893198 0.722744 0.150301
H8    H     H_    0.599813 0.772981 0.618296 0.141372
H9    H     H_    0.564366 0.640956 0.124771 0.149107
H10   H     H_    0.047145 0.190540 0.633576 0.193157
H11   H     H_    0.422411 0.329512 0.247666 0.196808
H12   H     H_    0.359228 0.190714 0.125491 0.158228
H13   H     H_    0.359204 0.190707 0.876810 0.157387
H14   H     H_    0.422495 0.329371 0.753452 0.204619
H15   H     H_    0.564352 0.640900 0.873975 0.144950
H16   H     H_    0.056505 0.776150 0.363166 0.193593
H17   H     H_    0.952774 0.777575 0.363677 0.193575
H18   H     H_    0.214487 0.519705 0.713632 0.141219
H19   H     H_    0.319191 0.527713 0.715285 0.168932
H20   H     H_    0.319641 0.453394 0.285666 0.166787
H21   H     H_    0.215005 0.446770 0.286555 0.140898
H22   H     H_    0.784476 0.463280 0.285928 0.154945
N1    N     N_R   0.852199 0.486303 0.499608 -0.337645
N2    N     N_R   0.147691 0.482569 0.499030 -0.359173
N3    N     N_R   0.499460 0.498800 0.142780 -0.121172
N4    N     N_R   0.499440 0.498720 0.857170 -0.121909
O1    O     O_R   0.500000 0.316780 0.614690 -0.641485
O2    O     O_2   0.847376 0.281648 0.590672 -0.574441
O3    O     O_2   0.146065 0.279029 0.592802 -0.556984
O4    O     O_2   0.152440 0.686139 0.405271 -0.567239
O5    O     O_R   0.500000 0.316750 0.385360 -0.629070
O6    O     O_R   0.416160 0.499970 0.614690 -0.641830
O7    O     O_R   0.416150 0.499950 0.385360 -0.629454
O8    O     O_R   0.500000 0.683250 0.614640 -0.630174
O9    O     O_R   0.500000 0.683220 0.385310 -0.570743
O10   O     O_R   0.583850 0.500050 0.614640 -0.635323
O11   O     O_R   0.583840 0.500030 0.385310 -0.622027
O12   O     O_2   0.854035 0.690522 0.407366 -0.551865
Zn1   Zn    Zn3+2 0.500000 0.500020 0.653130 0.925960
Zn2   Zn    Zn3+2 0.500000 0.499980 0.346870 0.959194
O13   O     O_3   0.794227 0.520593 0.741185 -0.606731
C49   C     C_3   0.774326 0.438887 0.844931 0.104291
H23   H     H_    0.762783 0.343011 0.806180 0.156522
H24   H     H_    0.736713 0.478969 0.895977 0.132555
C50   C     C_3   0.821327 0.425447 0.949410 -0.766050
H25   H     H_    0.833093 0.518804 0.992931 0.259122
H26   H     H_    0.806190 0.361850 0.031878 0.196944
H27   H     H_    0.859662 0.385290 0.901734 0.268117
O14   O     O_3   0.416705 0.869462 0.367698 -0.591902
C51   C     C_3   0.369177 0.853934 0.454618 0.056187
H28   H     H_    0.357164 0.944398 0.502151 0.137685
H29   H     H_    0.378529 0.784382 0.535187 0.141758
C52   C     C_3   0.318183 0.804894 0.373369 -0.721279
H30   H     H_    0.329705 0.719198 0.317099 0.262796
H31   H     H_    0.281824 0.781587 0.441971 0.236401
H32   H     H_    0.304949 0.877573 0.300018 0.247893

loop_
_geom_bond_atom_site_label_1
_geom_bond_atom_site_label_2
_ccdc_geom_bond_type
C18   H22   S    
C50   H25   S    
C23   O8    A    
C45   N1    A    
C19   C20   A    
O10   Zn1   S    
C36   H11   S    
O14   C51   S    
C10   O4    S    
C43   H15   S    
C7    C8    A    
C45   C46   A    
C2    C46   A    
C5    C47   A    
C26   C27   A    
C29   C30   A    
C23   O9    A    
C45   O2    S    
C18   C24   A    
C5    C6    A    
C28   C29   A    
C25   H5    S    
O6    Zn1   S    
C30   C31   A    
C27   H7    S    
O8    Zn1   S    
C1    C31   S    
C44   N1    A    
C18   C19   A    
C32   H4    S    
C11   C17   A    
C47   C48   A    
C16   C17   A    
C9    N2    A    
N4    Zn1   S    
C11   H18   S    
C38   H13   S    
C20   C34   S    
C43   N4    A    
O9    Zn2   S    
C8    H17   S    
C52   H31   S    
C21   C22   A    
C36   C41   A    
C34   O10   A    
C44   O12   S    
C26   H6    S    
C42   H9    S    
O5    Zn2   S    
C28   H8    S    
C1    O1    A    
C52   H30   S    
C39   C40   A    
C25   C26   A    
C34   O11   A    
C8    C48   A    
N3    Zn2   S    
C37   C38   A    
C2    H1    S    
C49   H24   S    
C31   C32   A    
C9    O3    S    
C37   H12   S    
O1    Zn1   S    
C40   C41   A    
C12   C14   S    
C50   H27   S    
C23   C35   S    
C1    O5    A    
C22   C24   A    
C42   C43   A    
C3    C4    A    
C21   H3    S    
C49   C50   S    
C13   H19   S    
O11   Zn2   S    
C25   C30   A    
C39   H14   S    
C46   C47   A    
C36   C37   A    
C42   N3    A    
C16   H21   S    
C4    C5    A    
C6    C10   A    
C6    C7    A    
C52   H32   S    
C51   C52   S    
C29   C35   A    
C51   H29   S    
C32   C33   A    
C2    C3    A    
C4    C9    A    
C11   C13   A    
C19   H2    S    
C49   H23   S    
C38   C39   A    
C15   H20   S    
C12   O6    A    
C33   C35   A    
C22   O13   S    
C40   N4    A    
C12   O7    A    
C33   O14   S    
C7    H16   S    
O7    Zn2   S    
C41   N3    A    
C3    H10   S    
C44   C48   A    
C20   C21   A    
C17   N2    S    
C50   H26   S    
C51   H28   S    
C27   C28   A    
C14   C15   A    
O13   C49   S    
C13   C14   A    
C15   C16   A    
C24   N1    S    
C10   N2    A    
