data_mof_unit_59480.cif
_audit_creation_date              2012-10-26T21:20:55-0400
_audit_creation_method            fapswitch 2.2
_symmetry_space_group_name_H-M    P1
_symmetry_Int_Tables_number       1
_space_group_crystal_system       triclinic
_cell_length_a                    10.805457
_cell_length_b                    10.977133
_cell_length_c                    9.745133
_cell_angle_alpha                 89.406713
_cell_angle_beta                  88.561858
_cell_angle_gamma                 89.363573
_cell_volume                      1155.40477439

loop_
_atom_site_label
_atom_site_type_symbol
_atom_type_description
_atom_site_fract_x
_atom_site_fract_y
_atom_site_fract_z
_atom_type_partial_charge
C1    C     C_R   0.505274 0.265623 0.500173 0.571356
C2    C     C_2   0.525632 0.133742 0.499427 0.235909
C3    C     C_2   0.539524 0.410347 0.925040 0.225043
C4    C     C_R   0.262605 0.488955 0.502778 0.603947
C5    C     C_2   0.507465 0.403278 0.076313 0.118780
C6    C     C_R   0.492196 0.733953 0.499516 0.619749
C7    C     C_R   0.737706 0.501473 0.498055 0.532503
C8    C     C_R   0.096400 0.509119 0.763897 -0.009109
C9    C     C_R   0.044504 0.594454 0.857713 -0.033421
C10   C     C_R   0.941715 0.667492 0.818051 0.074076
C11   C     C_R   0.886935 0.646298 0.690609 0.228402
C12   C     C_R   0.056253 0.510940 0.626231 -0.052841
C13   C     C_R   0.937324 0.555030 0.602079 -0.062777
C14   C     C_2   0.628964 0.318685 0.871093 0.245415
C15   C     C_2   0.558723 0.607405 0.106431 0.513100
C16   C     C_2   0.173214 0.405086 0.815459 0.287310
C17   C     C_2   0.101890 0.609819 0.992975 0.307167
C18   C     C_2   0.883976 0.761935 0.909011 0.371049
C19   C     C_2   0.369056 0.910827 0.600653 0.245690
C20   C     C_R   0.127864 0.471033 0.510428 0.047068
C21   C     C_R   0.067829 0.428040 0.394314 0.277261
C22   C     C_R   0.938122 0.431965 0.393012 0.220834
C23   C     C_R   0.872643 0.501270 0.493959 -0.026823
C24   C     C_2   0.511056 0.934609 0.395761 0.206621
C25   C     C_2   0.462530 0.863723 0.497536 0.069032
C26   C     C_2   0.486100 0.066875 0.394259 0.214996
Cu1   Cu    Cu3+1 0.500020 0.500020 0.638630 1.053208
Cu2   Cu    Cu3+1 0.499980 0.499980 0.361370 1.083065
H1    H     H_    0.495794 0.314134 0.123200 0.185304
H2    H     H_    0.788193 0.725241 0.551079 0.346727
H3    H     H_    0.808186 0.324588 0.338745 0.342179
H4    H     H_    0.618595 0.951465 0.234188 0.360041
H5    H     H_    0.333924 0.003563 0.594815 0.144659
H6    H     H_    0.400786 0.054618 0.222515 0.348844
H7    H     H_    0.083819 0.351762 0.213691 0.368349
H8    H     H_    0.622271 0.139239 0.665365 0.350062
H9    H     H_    0.675362 0.331129 0.772839 0.141279
H10   H     H_    0.374476 0.616855 0.826074 0.400439
H11   H     H_    0.510900 0.694374 0.116075 0.160840
H12   H     H_    0.217405 0.408792 0.913782 0.127879
H13   H     H_    0.112011 0.532748 0.062235 0.116820
H14   H     H_    0.827846 0.834398 0.865264 0.173763
N1    N     N_2   0.498640 0.498660 0.846910 -0.105302
N2    N     N_2   0.498610 0.498630 0.153040 -0.267554
O1    O     O_R   0.500020 0.321960 0.617040 -0.545677
O2    O     O_3   0.590006 0.076705 0.603762 -0.709029
O3    O     O_2   0.654749 0.228075 0.938774 -0.503703
O4    O     O_3   0.403363 0.563347 0.901069 -0.649899
O5    O     O_2   0.665591 0.604705 0.062326 -0.467011
O6    O     O_2   0.185031 0.311480 0.749459 -0.467616
O7    O     O_2   0.141820 0.708626 0.026016 -0.414092
O8    O     O_2   0.893903 0.758233 0.033470 -0.415829
O9    O     O_3   0.788878 0.720181 0.652652 -0.670668
O10   O     O_3   0.878802 0.367325 0.293754 -0.660030
O11   O     O_3   0.590230 0.885046 0.296790 -0.668815
O12   O     O_R   0.499980 0.321920 0.382900 -0.474859
O13   O     O_2   0.327589 0.845134 0.692267 -0.467886
O14   O     O_3   0.422901 0.119829 0.286902 -0.685675
O15   O     O_R   0.319670 0.500020 0.617100 -0.510477
O16   O     O_R   0.319630 0.499980 0.382950 -0.457477
O17   O     O_R   0.500020 0.678080 0.617100 -0.451916
O18   O     O_R   0.499980 0.678040 0.382960 -0.502556
O19   O     O_R   0.680370 0.500020 0.617050 -0.511081
O20   O     O_R   0.680330 0.499980 0.382900 -0.474573
O21   O     O_3   0.137533 0.373336 0.290399 -0.652069

loop_
_geom_bond_atom_site_label_1
_geom_bond_atom_site_label_2
_ccdc_geom_bond_type
Cu2   N2    S    
C4    O16   A    
C13   C23   A    
H8    O2    S    
C14   O3    D    
Cu1   N1    S    
C17   O7    D    
C2    O2    S    
C11   C13   A    
N1    O4    S    
H4    O11   S    
H10   O4    S    
C11   O9    S    
C6    O18   A    
C8    C12   A    
C15   H11   S    
Cu1   O1    S    
C8    C16   S    
C15   O5    D    
Cu2   O12   S    
C3    C5    S    
C18   O8    D    
C2    C26   D    
Cu1   O15   S    
C21   C22   A    
C24   C25   D    
C24   O11   S    
C26   O14   S    
C7    O19   A    
C3    C14   S    
Cu1   O19   S    
C12   C20   A    
C16   H12   S    
C7    C23   S    
C3    N1    D    
C6    O17   A    
C9    C17   S    
C1    O12   A    
C24   C26   S    
C15   N2    S    
C5    H1    S    
Cu2   O16   S    
H3    O10   S    
C19   H5    S    
C10   C18   S    
H2    O9    S    
C17   H13   S    
C7    O20   A    
C6    C25   S    
C10   C11   A    
H7    O21   S    
C19   C25   S    
C4    C20   S    
Cu2   O20   S    
C12   C13   A    
C4    O15   A    
C22   O10   S    
C1    C2    S    
C9    C10   A    
C1    O1    A    
Cu1   Cu2   S    
H6    O14   S    
C22   C23   A    
Cu1   O17   S    
C18   H14   S    
C21   O21   S    
C20   C21   A    
C5    N2    D    
C19   O13   D    
C16   O6    D    
C8    C9    A    
C14   H9    S    
Cu2   O18   S    
