data_mof_unit_11787.cif
_audit_creation_date              2012-12-10T17:57:27-0500
_audit_creation_method            fapswitch 2.2
_symmetry_space_group_name_H-M    P1
_symmetry_Int_Tables_number       1
_space_group_crystal_system       triclinic
_cell_length_a                    9.525246
_cell_length_b                    10.831956
_cell_length_c                    13.515402
_cell_angle_alpha                 90.457629
_cell_angle_beta                  72.653083
_cell_angle_gamma                 89.770197
_cell_volume                      1330.98180476

loop_
_atom_site_label
_atom_site_type_symbol
_atom_type_description
_atom_site_fract_x
_atom_site_fract_y
_atom_site_fract_z
_atom_type_partial_charge
C1    C     C_R   0.499799 0.737908 0.500173 0.797185
C2    C     C_R   0.450485 0.470433 0.971642 0.032590
C3    C     C_R   0.475163 0.520612 0.871230 0.026226
C4    C     C_R   0.552519 0.499220 0.026688 -0.016892
C5    C     C_R   0.690830 0.550092 0.973557 -0.025423
C6    C     C_R   0.712953 0.598791 0.875240 -0.138743
C7    C     C_R   0.600941 0.593800 0.829199 -0.145239
C8    C     C_R   0.514745 0.493621 0.134767 0.554308
C9    C     C_R   0.767751 0.536077 0.128366 0.579980
C10   C     C_R   0.376361 0.492982 0.813767 -0.091181
C11   C     C_R   0.625995 0.935693 0.503393 -0.169705
C12   C     C_R   0.421553 0.503685 0.700068 0.814246
C13   C     C_R   0.626264 0.063414 0.503192 -0.137833
C14   C     C_R   0.500179 0.128231 0.500031 -0.028241
C15   C     C_R   0.373832 0.064302 0.497035 -0.162571
C16   C     C_R   0.373599 0.936591 0.497161 -0.123401
C17   C     C_R   0.499686 0.871768 0.500302 -0.028361
C18   C     C_R   0.897616 0.577940 0.563507 -0.182631
C19   C     C_R   0.045392 0.577515 0.564574 0.455927
C20   C     C_R   0.102229 0.422763 0.435479 -0.111076
C21   C     C_R   0.953411 0.422544 0.435584 0.744580
C22   C     C_R   0.500155 0.262095 0.499947 0.798024
C23   C     C_R   0.578312 0.501460 0.299957 0.900683
C24   C     C_R   0.799868 0.562098 0.023212 -0.268601
C25   C     C_R   0.622554 0.507742 0.186148 -0.323513
C26   C     C_R   0.245218 0.431002 0.861667 -0.258261
C27   C     C_R   0.223346 0.378005 0.958123 -0.154093
C28   C     C_R   0.329617 0.388707 0.009639 0.478121
Cu1   Cu    Cu3+1 0.359340 0.499980 0.500000 1.039421
Cu2   Cu    Cu3+1 0.640660 0.500020 0.500000 1.039341
H1    H     H_    0.724954 0.111099 0.505622 0.178237
H2    H     H_    0.275255 0.112677 0.494432 0.163795
H3    H     H_    0.274971 0.888935 0.494590 0.190179
H4    H     H_    0.819574 0.641138 0.613402 0.169171
H5    H     H_    0.180533 0.360880 0.383865 0.212266
H6    H     H_    0.812868 0.648162 0.837016 0.186105
H7    H     H_    0.908245 0.595739 0.981539 0.199108
H8    H     H_    0.166891 0.411056 0.819835 0.190763
H9    H     H_    0.129360 0.318607 0.988416 0.195947
H10   H     H_    0.614907 0.646906 0.759754 0.150046
H11   H     H_    0.724561 0.887309 0.506011 0.167724
N1    N     N_R   0.147940 0.499970 0.499970 -0.231038
N2    N     N_R   0.852060 0.500060 0.499990 -0.240079
O1    O     O_R   0.381250 0.680340 0.500010 -0.538362
O2    O     O_R   0.618820 0.680370 0.500010 -0.601633
O3    O     O_R   0.323240 0.499950 0.650980 -0.536326
O4    O     O_R   0.560810 0.499980 0.650980 -0.605358
O5    O     O_R   0.381180 0.319630 0.499990 -0.604575
O6    O     O_R   0.618750 0.319660 0.499990 -0.549599
O7    O     O_R   0.439190 0.500020 0.349020 -0.522435
O8    O     O_R   0.676760 0.500050 0.349020 -0.482368
F1    F     F_    0.875066 0.550432 0.174708 -0.595010
Cl1   Cl    Cl    0.091705 0.679156 0.651521 -0.648031
F2    F     F_    0.911712 0.344800 0.370647 -0.611671
F3    F     F_    0.369847 0.493824 0.189995 -0.602374
Cl2   Cl    Cl    0.321383 0.276237 0.105299 -0.529351

loop_
_geom_bond_atom_site_label_1
_geom_bond_atom_site_label_2
_ccdc_geom_bond_type
C20   N1    A    
C22   O5    A    
Cu2   O8    S    
C9    C24   A    
C6    C7    A    
C16   H3    S    
C24   H7    S    
C11   C13   A    
Cu2   O2    S    
C23   O8    A    
C19   N1    A    
Cu1   O3    S    
C4    C8    A    
C1    O2    A    
C19   Cl1   S    
C5    C24   A    
C2    C3    A    
C28   Cl2   S    
C9    C25   A    
C15   H2    S    
C3    C10   A    
C13   C14   A    
C18   N2    A    
C8    C25   A    
C18   H4    S    
C14   C22   S    
C26   C27   A    
Cu1   Cu2   S    
C9    F1    S    
C10   C12   S    
C12   O4    A    
C5    C6    A    
C2    C4    A    
C8    F3    S    
Cu2   O6    S    
C6    H6    S    
C11   H11   S    
C3    C7    A    
Cu1   O7    S    
C23   C25   S    
Cu1   O1    S    
C21   F2    S    
Cu1   N1    S    
Cu2   N2    S    
Cu1   O5    S    
C15   C16   A    
Cu2   O4    S    
C4    C5    A    
C20   C21   A    
C12   O3    A    
C18   C19   A    
C22   O6    A    
C27   C28   A    
C13   H1    S    
C14   C15   A    
C11   C17   A    
C23   O7    A    
C2    C28   A    
C1    O1    A    
C21   N2    A    
C7    H10   S    
C1    C17   S    
C20   H5    S    
C10   C26   A    
C26   H8    S    
C27   H9    S    
C16   C17   A    
