data_mof_unit_11418.cif
_audit_creation_date              2012-12-11T14:25:50-0500
_audit_creation_method            fapswitch 2.2
_symmetry_space_group_name_H-M    P1
_symmetry_Int_Tables_number       1
_space_group_crystal_system       triclinic
_cell_length_a                    6.982218
_cell_length_b                    14.783197
_cell_length_c                    16.248561
_cell_angle_alpha                 90.564953
_cell_angle_beta                  90.895274
_cell_angle_gamma                 89.385409
_cell_volume                      1676.78839704

loop_
_atom_site_label
_atom_site_type_symbol
_atom_type_description
_atom_site_fract_x
_atom_site_fract_y
_atom_site_fract_z
_atom_type_partial_charge
O1    O     O_R   0.494490 0.416160 0.413410 -0.544924
O2    O     O_R   0.823830 0.407240 0.585990 -0.518574
O3    O     O_R   0.994160 0.583840 0.586590 -0.523208
C1    C     C_R   0.657018 0.385021 0.613040 0.819066
O4    O     O_R   0.824200 0.405280 0.414020 -0.556924
O5    O     O_R   0.994530 0.581860 0.413390 -0.561541
C2    C     C_R   0.655664 0.386295 0.384011 0.695327
O6    O     O_R   0.494110 0.418140 0.586610 -0.523721
O7    O     O_3   0.660810 0.557940 0.500000 -0.373664
V1    V     V_3+5 0.935650 0.489250 0.500000 1.602479
O8    O     O_R   0.324250 0.592760 0.414010 -0.525862
C3    C     C_R   0.154363 0.607208 0.381717 0.772775
O9    O     O_R   0.323880 0.594720 0.585980 -0.522886
C4    C     C_R   0.155654 0.619673 0.612408 0.825966
V2    V     V_3+5 0.435660 0.510750 0.500000 1.623903
O10   O     O_3   0.160630 0.442060 0.500000 -0.373065
C5    C     C_3   0.945861 0.696678 0.718012 -0.277265
H1    H     H_    0.830534 0.709451 0.673224 0.263615
H2    H     H_    0.916009 0.628745 0.742804 0.202786
C6    C     C_3   0.929744 0.765746 0.788957 -0.318505
H3    H     H_    0.889909 0.729981 0.846147 0.148600
H4    H     H_    0.811583 0.812817 0.776234 0.247166
C7    C     C_3   0.196384 0.794814 0.643629 0.159811
C8    C     C_3   0.286921 0.670466 0.751004 -0.358864
C9    C     C_3   0.148554 0.695380 0.678280 -0.108199
H5    H     H_    0.438744 0.664586 0.733272 0.211743
H6    H     H_    0.251114 0.601919 0.773756 0.205722
C10   C     C_3   0.120278 0.816510 0.802288 -0.083356
C11   C     C_3   0.170009 0.869607 0.718640 0.190633
C12   C     C_3   0.268078 0.738894 0.822682 -0.393594
H7    H     H_    0.218093 0.701815 0.877596 0.161908
H8    H     H_    0.411116 0.762440 0.842529 0.209029
C13   C     C_2   0.998839 0.719553 0.289263 0.025942
C14   C     C_2   0.143639 0.661626 0.306430 -0.203038
H9    H     H_    0.876188 0.722868 0.329505 0.160898
H10   H     H_    0.259144 0.652499 0.263758 0.173827
C15   C     C_2   0.992112 0.777228 0.214497 -0.254534
C16   C     C_2   0.139165 0.826299 0.185412 0.299034
H11   H     H_    0.853207 0.783158 0.184200 0.160042
C17   C     C_2   0.761325 0.221806 0.791425 -0.264309
C18   C     C_2   0.604105 0.195165 0.831708 0.232535
H12   H     H_    0.894823 0.184528 0.799164 0.196155
C19   C     C_2   0.766103 0.303622 0.739365 0.544788
C20   C     C_2   0.652967 0.309332 0.671293 -0.286506
H13   H     H_    0.556748 0.254180 0.656079 0.162010
C21   C     C_2   0.762512 0.209448 0.213195 -0.233402
C22   C     C_2   0.604065 0.164253 0.187305 0.295559
H14   H     H_    0.893431 0.200825 0.178790 0.151574
C23   C     C_2   0.778038 0.267527 0.288516 -0.004377
C24   C     C_2   0.643910 0.329239 0.309332 -0.215907
H15   H     H_    0.908794 0.261989 0.325281 0.186045
H16   H     H_    0.520585 0.340035 0.269587 0.189035
O11   O     O_R   0.770850 0.076180 0.907410 -0.533291
O12   O     O_R   0.440600 0.088970 0.079950 -0.512655
O13   O     O_R   0.270430 0.912340 0.080550 -0.514479
C25   C     C_R   0.607668 0.107412 0.111024 0.656592
O14   O     O_R   0.441120 0.087010 0.907980 -0.515301
O15   O     O_R   0.270950 0.910370 0.907350 -0.545186
C26   C     C_R   0.607795 0.113542 0.884556 0.710496
O16   O     O_R   0.770320 0.078150 0.080620 -0.568034
O17   O     O_3   0.604200 0.936340 0.994000 -0.385888
V3    V     V_3+5 0.329300 0.004970 0.993950 1.591928
O18   O     O_R   0.941240 0.899420 0.907920 -0.531621
C27   C     C_R   0.109425 0.879685 0.877614 0.756135
O19   O     O_R   0.940720 0.901380 0.079890 -0.568327
C28   C     C_R   0.112568 0.883244 0.110626 0.624804
V4    V     V_3+5 0.829310 0.983370 0.993880 1.481757
O20   O     O_3   0.104280 0.052120 0.993920 -0.374242
C29   C     C_2   0.398974 0.802489 0.610505 0.832768
O21   O     O_2   0.515492 0.741112 0.615997 -0.554765
O22   O     O_R   0.444098 0.879974 0.565941 -0.576935
H17   H     H_    0.564802 0.873148 0.532809 0.376269
C30   C     C_2   0.353459 0.925704 0.736474 0.752742
O23   O     O_2   0.362644 0.005877 0.718960 -0.470381
O24   O     O_R   0.510968 0.886565 0.775857 -0.694194
H18   H     H_    0.605576 0.933254 0.796686 0.322420
S1    S     S_3+6 0.369182 0.830615 0.236756 0.062021
O25   O     O_2   0.347900 0.827663 0.328548 -0.235720
O26   O     O_2   0.488598 0.751015 0.209209 -0.403842
O27   O     O_3   0.488272 0.925521 0.214740 -0.440742
H19   H     H_    0.595366 0.906345 0.179106 0.337755
S2    S     S_3+6 0.388145 0.261266 0.830354 0.078363
O28   O     O_2   0.428470 0.360294 0.821374 -0.273520
O29   O     O_2   0.265026 0.230338 0.758961 -0.300306
O30   O     O_3   0.269024 0.247963 0.918723 -0.474997
H20   H     H_    0.153180 0.213055 0.903703 0.364714
S3    S     S_3+6 0.900416 0.396763 0.776218 0.058253
O31   O     O_2   0.072200 0.409984 0.723243 -0.304848
O32   O     O_2   0.775581 0.480090 0.773452 -0.368707
O33   O     O_3   0.972097 0.378905 0.873966 -0.464476
H21   H     H_    0.047612 0.432973 0.889470 0.386083
S4    S     S_3+6 0.386550 0.164039 0.244905 0.062514
O34   O     O_2   0.429035 0.167347 0.335843 -0.266008
O35   O     O_2   0.266232 0.245083 0.221677 -0.388595
O36   O     O_3   0.257510 0.070562 0.225223 -0.431744
H22   H     H_    0.154545 0.089166 0.186164 0.336341
S5    S     S_3+6 0.060457 0.811579 0.545733 0.092729
O37   O     O_2   0.047596 0.908619 0.520136 -0.193764
O38   O     O_2   0.168940 0.763163 0.479295 -0.352322
O39   O     O_3   0.840318 0.768343 0.543841 -0.490823
H23   H     H_    0.809064 0.757484 0.484915 0.359766
S6    S     S_3+6 0.982988 0.955472 0.695870 0.071145
O40   O     O_2   0.934082 0.006732 0.772717 -0.378736
O41   O     O_2   0.051958 0.023953 0.635487 -0.219093
O42   O     O_3   0.782719 0.910211 0.657033 -0.473056
H24   H     H_    0.703291 0.963561 0.641915 0.399254

loop_
_geom_bond_atom_site_label_1
_geom_bond_atom_site_label_2
_ccdc_geom_bond_type
O15   V3    S    
S3    O31   D    
S6    O40   D    
C30   O23   D    
C7    C29   S    
O36   H22   S    
C8    H6    S    
C1    O6    A    
O13   C28   A    
S5    O37   D    
O11   C26   A    
O14   V3    S    
S1    O25   D    
C21   C23   S    
C7    C11   S    
C10   C11   S    
C8    H5    S    
O5    C3    A    
C12   H7    S    
O14   C26   A    
C11   C30   S    
V2    O10   S    
O13   V3    S    
C5    C6    S    
S6    O42   S    
C22   S4    S    
C29   O22   S    
S4    O34   D    
C13   H9    S    
O8    V2    S    
C17   C19   S    
C16   C28   S    
O16   V4    S    
O19   V4    S    
C24   H16   S    
O1    V2    S    
O7    V1    S    
C17   H12   S    
O9    C4    A    
C30   O24   S    
O17   V3    S    
S5    O38   D    
C13   C14   D    
O18   V4    S    
S1    O26   D    
O15   C27   A    
O12   C25   A    
V4    O20   S    
C8    C9    S    
C18   C26   S    
O4    C2    A    
C1    C20   S    
C23   H15   S    
O30   H20   S    
O12   V3    S    
S4    O36   S    
C13   C15   S    
C25   O16   A    
O2    C1    A    
O24   H18   S    
C15   C16   D    
O17   V4    S    
S4    O35   D    
C5    H1    S    
S6    O41   D    
O3    C4    A    
C10   C27   S    
C17   C18   D    
C7    S5    S    
C6    H4    S    
S2    O28   D    
O6    V2    S    
S2    O29   D    
O9    V2    S    
C19   C20   D    
O19   C28   A    
C3    C14   S    
O2    V1    S    
S5    O39   S    
C20   H13   S    
S1    O27   S    
C21   C22   D    
O1    C2    A    
C2    C24   S    
O27   H19   S    
O5    V1    S    
O8    C3    A    
C16   S1    S    
S2    O30   S    
C6    C10   S    
O42   H24   S    
V3    O20   S    
C5    C9    S    
S3    O32   D    
O7    V2    S    
C19   S3    S    
O4    V1    S    
C15   H11   S    
O3    V1    S    
V1    O10   S    
C12   H8    S    
O33   H21   S    
C18   S2    S    
C10   C12   S    
O39   H23   S    
C5    H2    S    
C11   S6    S    
C14   H10   S    
C7    C9    S    
C4    C9    S    
C29   O21   D    
O11   V4    S    
C8    C12   S    
O18   C27   A    
C21   H14   S    
O22   H17   S    
C6    H3    S    
C23   C24   D    
S3    O33   S    
C22   C25   S    
