data_mof_unit_53496.cif
_audit_creation_date              2012-12-11T16:35:25-0500
_audit_creation_method            fapswitch 2.2
_symmetry_space_group_name_H-M    P1
_symmetry_Int_Tables_number       1
_space_group_crystal_system       triclinic
_cell_length_a                    6.930485
_cell_length_b                    17.576796
_cell_length_c                    19.59544
_cell_angle_alpha                 109.105976
_cell_angle_beta                  90.48352
_cell_angle_gamma                 90.289033
_cell_volume                      2255.38512881

loop_
_atom_site_label
_atom_site_type_symbol
_atom_type_description
_atom_site_fract_x
_atom_site_fract_y
_atom_site_fract_z
_atom_type_partial_charge
O1    O     O_R   0.505700 0.440210 0.561730 -0.558685
O2    O     O_R   0.169350 0.406300 0.412660 -0.493394
O3    O     O_R   0.005650 0.559790 0.438270 -0.506038
C1    C     C_R   0.336849 0.380721 0.386155 0.827316
O4    O     O_R   0.175560 0.430650 0.559600 -0.518947
O5    O     O_R   0.011900 0.584320 0.586250 -0.546912
C2    C     C_R   0.345415 0.414427 0.579906 0.714796
O6    O     O_R   0.499450 0.415680 0.413750 -0.564351
O7    O     O_3   0.341370 0.550390 0.508570 -0.331141
V1    V     V_3+5 0.063940 0.490650 0.498410 1.650074
O8    O     O_R   0.682570 0.593700 0.587340 -0.524056
C3    C     C_R   0.851228 0.619980 0.612458 0.725870
O9    O     O_R   0.676370 0.569350 0.440400 -0.508185
C4    C     C_R   0.844952 0.584514 0.418673 0.816363
V2    V     V_3+5 0.564750 0.509350 0.501590 1.621483
O10   O     O_3   0.837190 0.449610 0.491430 -0.372390
C5    C     C_R   0.025667 0.727497 0.321725 -0.115259
H1    H     H_    0.156515 0.760706 0.319772 0.204577
C6    C     C_R   0.018009 0.682722 0.368954 0.381775
C7    C     C_R   0.853978 0.634325 0.369581 -0.339703
C8    C     C_R   0.694759 0.636409 0.323831 0.387906
C9    C     C_R   0.695312 0.689363 0.283476 0.494613
C10   C     C_R   0.867561 0.730836 0.277804 -0.094670
C11   C     C_R   0.837180 0.741405 0.151975 0.451400
C12   C     C_R   0.838850 0.787663 0.105527 0.283372
C13   C     C_R   0.915288 0.867567 0.130226 -0.325041
C14   C     C_R   0.976166 0.901152 0.203590 0.371306
C15   C     C_R   0.958360 0.855646 0.250037 -0.086919
H2    H     H_    0.998973 0.883174 0.306344 0.212789
C16   C     C_R   0.887367 0.776322 0.225636 -0.157908
C17   C     C_R   0.985441 0.902390 0.740866 0.331887
C18   C     C_R   0.935329 0.925391 0.681277 0.270576
C19   C     C_R   0.817669 0.873713 0.626348 0.266431
C20   C     C_R   0.784517 0.794477 0.625384 0.321706
C21   C     C_R   0.849120 0.769237 0.684079 -0.118841
C22   C     C_R   0.914366 0.829702 0.747766 -0.147404
C23   C     C_R   0.855529 0.687537 0.682089 -0.031538
C24   C     C_R   0.884688 0.669741 0.747125 -0.058220
C25   C     C_R   0.921694 0.732455 0.813612 -0.024227
C26   C     C_R   0.920924 0.814089 0.814571 -0.044939
C27   C     C_R   0.870838 0.589509 0.746864 -0.229869
C28   C     C_R   0.896930 0.569656 0.809300 0.255014
C29   C     C_R   0.958883 0.629566 0.873474 0.293533
C30   C     C_R   0.972313 0.710846 0.875646 0.277399
H3    H     H_    0.830916 0.540911 0.698318 0.148156
C31   C     C_R   0.313827 0.206835 0.376368 0.176581
C32   C     C_R   0.369998 0.131578 0.379462 0.397955
C33   C     C_R   0.455841 0.075725 0.320139 0.301340
C34   C     C_R   0.474060 0.092324 0.254739 0.215076
C35   C     C_R   0.422093 0.169687 0.250987 -0.058563
C36   C     C_R   0.359702 0.230636 0.315296 -0.132461
C37   C     C_R   0.432121 0.187140 0.184706 -0.042471
C38   C     C_R   0.411068 0.268320 0.185508 -0.075838
C39   C     C_R   0.346249 0.328978 0.249527 -0.056560
C40   C     C_R   0.339164 0.311942 0.315938 -0.035585
C41   C     C_R   0.456160 0.292441 0.124669 0.262456
C42   C     C_R   0.404129 0.367845 0.122617 -0.155008
C43   C     C_R   0.314603 0.423030 0.180455 0.331114
C44   C     C_R   0.287065 0.405359 0.245043 0.237650
H4    H     H_    0.437341 0.384546 0.075421 0.220912
C45   C     C_R   0.259264 0.338392 0.736488 -0.115567
H5    H     H_    0.168018 0.354421 0.783602 0.206319
C46   C     C_R   0.240781 0.380672 0.687582 -0.151824
H6    H     H_    0.137268 0.429027 0.698403 0.173060
C47   C     C_R   0.358578 0.362969 0.626625 -0.190179
C48   C     C_R   0.493255 0.298914 0.613657 0.374255
C49   C     C_R   0.510011 0.256252 0.663115 0.493786
C50   C     C_R   0.394905 0.276604 0.725550 -0.035358
C51   C     C_R   0.239519 0.190850 0.788811 -0.095791
H7    H     H_    0.107938 0.193173 0.759397 0.229398
C52   C     C_R   0.237982 0.150113 0.839344 0.440112
C53   C     C_R   0.412641 0.140218 0.874372 -0.212850
C54   C     C_R   0.577807 0.181858 0.863696 -0.175491
H8    H     H_    0.710148 0.179746 0.892565 0.211660
C55   C     C_R   0.572996 0.229035 0.818048 0.472379
C56   C     C_R   0.405000 0.230929 0.777608 -0.049994
O11   O     O_R   0.273230 0.084330 0.086440 -0.561369
O12   O     O_R   0.596660 0.069390 0.940470 -0.528782
O13   O     O_R   0.760270 0.915710 0.913690 -0.553316
C57   C     C_R   0.426189 0.086952 0.920707 0.846693
O14   O     O_R   0.603330 0.093680 0.087390 -0.493197
O15   O     O_R   0.766990 0.940160 0.061660 -0.536742
C58   C     C_R   0.435713 0.119053 0.114115 0.840190
O16   O     O_R   0.266510 0.059870 0.938470 -0.527176
O17   O     O_3   0.431050 0.949630 0.991510 -0.370156
V3    V     V_3+5 0.708490 0.009340 0.001580 1.589823
O18   O     O_R   0.096270 0.930570 0.059390 -0.533567
C59   C     C_R   0.927446 0.915636 0.080712 0.734312
O19   O     O_R   0.089600 0.906290 0.912460 -0.492221
C60   C     C_R   0.921991 0.883446 0.884073 0.822500
V4    V     V_3+5 0.207670 0.990600 0.998190 1.585564
O20   O     O_3   0.935250 0.050360 0.008480 -0.369697
Cl1   Cl    Cl    0.193866 0.947894 0.788615 -0.582932
O21   O     O_3   0.010149 0.996788 0.677160 -0.568634
H9    H     H_    0.013319 0.994115 0.625915 0.349373
O22   O     O_3   0.738617 0.897702 0.571765 -0.558446
H10   H     H_    0.722646 0.956923 0.589800 0.353884
Cl2   Cl    Cl    0.630248 0.736384 0.555689 -0.501378
O23   O     O_3   0.860836 0.490947 0.805114 -0.625915
H11   H     H_    0.824370 0.489799 0.853516 0.344561
O24   O     O_3   0.049765 0.768754 0.935732 -0.650568
H12   H     H_    0.106595 0.743844 0.969725 0.352127
Cl3   Cl    Cl    0.248161 0.515482 0.169924 -0.488185
Cl4   Cl    Cl    0.150641 0.260397 0.443442 -0.565402
Cl5   Cl    Cl    0.329210 0.106117 0.458502 -0.368982
Cl6   Cl    Cl    0.216804 0.692895 0.428090 -0.471900
Cl7   Cl    Cl    0.539417 0.983968 0.328386 -0.528913
O25   O     O_3   0.555812 0.035895 0.195721 -0.633112
H13   H     H_    0.536091 0.981111 0.198189 0.330263
Cl8   Cl    Cl    0.612150 0.240225 0.055050 -0.684551
O26   O     O_3   0.193696 0.459300 0.302679 -0.636793
H14   H     H_    0.156393 0.508259 0.291824 0.348473
O27   O     O_3   0.607536 0.274756 0.552944 -0.566563
H15   H     H_    0.552232 0.294393 0.515188 0.311987
Cl9   Cl    Cl    0.667128 0.173092 0.642702 -0.459428
O28   O     O_3   0.534954 0.587354 0.316806 -0.560724
H16   H     H_    0.579923 0.533914 0.316694 0.290120
O29   O     O_3   0.062940 0.121139 0.852791 -0.592839
H17   H     H_    0.045441 0.141999 0.905793 0.302299
Cl10  Cl    Cl    0.775846 0.288894 0.816204 -0.626054
O30   O     O_3   0.525171 0.697283 0.249214 -0.562459
H18   H     H_    0.530031 0.747819 0.237314 0.310947
Cl11  Cl    Cl    0.776737 0.638002 0.115118 -0.423506
O31   O     O_3   0.765317 0.751704 0.036552 -0.583755
H19   H     H_    0.741458 0.792557 0.012967 0.307110
O32   O     O_3   0.047692 0.978727 0.233450 -0.608571
H20   H     H_    0.044602 0.007172 0.197534 0.292317
O33   O     O_3   0.010018 0.610676 0.934315 -0.594221
H21   H     H_    0.058822 0.554816 0.919291 0.327294

loop_
_geom_bond_atom_site_label_1
_geom_bond_atom_site_label_2
_ccdc_geom_bond_type
C18   O21   S    
O18   C59   A    
C46   C47   A    
O32   H20   S    
C48   O27   S    
O18   V4    S    
C54   H8    S    
O26   H14   S    
C57   O16   A    
O33   H21   S    
O17   V4    S    
C38   C39   A    
O25   H13   S    
C13   C14   A    
O24   H12   S    
C15   H2    S    
C21   C23   A    
C17   C22   A    
O5    C3    A    
C24   C25   A    
C14   O32   S    
O12   C57   A    
C33   Cl7   S    
O11   C58   A    
V2    O10   S    
C41   C42   A    
C51   C56   A    
C51   C52   A    
C20   C21   A    
C27   C28   A    
C3    C23   S    
C45   C46   A    
C49   Cl9   S    
O29   H17   S    
O13   C60   A    
C5    C6    A    
C31   C32   A    
O8    V2    S    
C32   C33   A    
C32   Cl5   S    
C44   O26   S    
O1    V2    S    
O16   V4    S    
O19   V4    S    
O7    V1    S    
O14   V3    S    
C1    O6    A    
O12   V3    S    
C48   C49   A    
O9    C4    A    
C54   C55   A    
C45   H5    S    
C8    O28   S    
C41   Cl8   S    
O14   C58   A    
C35   C36   A    
C34   O25   S    
C39   C44   A    
C49   C50   A    
C10   C16   S    
C4    C7    S    
C22   C26   A    
C11   C12   A    
C24   C27   A    
V4    O20   S    
O4    C2    A    
C42   H4    S    
C12   C13   A    
C17   Cl1   S    
C31   Cl4   S    
C31   C36   A    
C11   Cl11  S    
C21   C22   A    
C37   C58   S    
O2    C1    A    
C55   C56   A    
C23   C24   A    
C2    C47   S    
C35   C37   A    
O23   H11   S    
C30   O24   S    
O22   H10   S    
C5    H1    S    
O30   H18   S    
O21   H9    S    
C5    C10   A    
O17   V3    S    
O3    C4    A    
C33   C34   A    
C47   C48   A    
O6    V2    S    
O9    V2    S    
C1    C40   S    
C28   C29   A    
O2    V1    S    
C19   O22   S    
C25   C26   A    
C37   C38   A    
C9    O30   S    
O27   H15   S    
C38   C41   A    
C39   C40   A    
O11   V4    S    
C52   O29   S    
O1    C2    A    
C17   C18   A    
C55   Cl10  S    
C53   C54   A    
C29   O33   S    
O5    V1    S    
O8    C3    A    
C25   C30   A    
C50   C56   S    
C18   C19   A    
C6    C7    A    
C15   C16   A    
C43   C44   A    
C52   C53   A    
C53   C57   S    
O3    V1    S    
V1    O10   S    
C28   O23   S    
O15   V3    S    
C45   C50   A    
C42   C43   A    
C29   C30   A    
O15   C59   A    
C20   Cl2   S    
C19   C20   A    
O28   H16   S    
C36   C40   A    
O7    V2    S    
C51   H7    S    
C12   O31   S    
C11   C16   A    
C46   H6    S    
C6    Cl6   S    
O4    V1    S    
C7    C8    A    
C13   C59   S    
C34   C35   A    
C14   C15   A    
C27   H3    S    
C9    C10   A    
V3    O20   S    
C43   Cl3   S    
C26   C60   S    
O19   C60   A    
C8    C9    A    
O13   V3    S    
O31   H19   S    
