data_mof_unit_67861.cif
_audit_creation_date              2013-03-05T15:41:50-0500
_audit_creation_method            fapswitch 2.2
_symmetry_space_group_name_H-M    P1
_symmetry_Int_Tables_number       1
_space_group_crystal_system       triclinic
_cell_length_a                    8.347896
_cell_length_b                    8.988368
_cell_length_c                    11.006388
_cell_angle_alpha                 100.515569
_cell_angle_beta                  84.806168
_cell_angle_gamma                 94.041593
_cell_volume                      807.420302096

loop_
_atom_site_label
_atom_site_type_symbol
_atom_site_description
_atom_site_fract_x
_atom_site_fract_y
_atom_site_fract_z
_atom_type_partial_charge
O1    O     O_R   0.389250 0.738570 0.508410 -0.615896
O2    O     O_R   0.610750 0.261430 0.491590 -0.620876
O3    O     O_R   0.678390 0.711620 0.486450 -0.552438
O4    O     O_R   0.321610 0.288380 0.513550 -0.558787
C1    C     C_R   0.542515 0.791057 0.494692 0.864763
C2    C     C_R   0.458345 0.207630 0.496202 0.820461
O5    O     O_R   0.355460 0.513510 0.697030 -0.626859
O6    O     O_R   0.644540 0.486490 0.302970 -0.624519
O7    O     O_R   0.644600 0.486560 0.675070 -0.557248
O8    O     O_R   0.355400 0.513440 0.324930 -0.569413
C3    C     C_R   0.499353 0.507691 0.742655 0.950401
C4    C     C_R   0.500906 0.495756 0.258906 0.926987
Zn1   Zn    Zn3+2 0.306940 0.517990 0.514670 1.071514
Zn2   Zn    Zn3+2 0.693060 0.482010 0.485330 1.075793
N1    N     N_2   0.950320 0.457950 0.465730 -0.003432
N2    N     N_2   0.049680 0.542050 0.534270 -0.002688
C5    C     C_3   0.366604 0.574538 0.989849 0.259153
C6    C     C_3   0.633532 0.444762 0.018034 0.300807
C7    C     C_3   0.498912 0.646514 0.072988 -0.043246
C8    C     C_3   0.501350 0.370987 0.937589 -0.073139
C9    C     C_3   0.506429 0.498647 0.123240 -0.346382
C10   C     C_3   0.493552 0.515657 0.882177 -0.319207
C11   C     C_3   0.374507 0.427098 0.040485 0.312761
C12   C     C_3   0.625382 0.593020 0.967524 0.408118
C13   C     C_2   0.565044 0.954755 0.499614 0.032971
C14   C     C_2   0.441962 0.042177 0.479177 0.034579
N3    N     N_2   0.498337 0.786027 0.164321 -0.274513
H1    H     H_    0.564129 0.781615 0.238207 0.222794
C15   C     C_3   0.527203 0.929994 0.124780 -0.480716
H2    H     H_    0.492666 0.019820 0.203668 0.242705
H3    H     H_    0.458289 0.935966 0.045033 0.303547
H4    H     H_    0.656912 0.953224 0.103386 0.254164
N4    N     N_2   0.491276 0.210268 0.888610 -0.258780
H5    H     H_    0.562119 0.142408 0.923967 0.278433
C16   C     C_3   0.452251 0.160947 0.764090 -0.678034
H6    H     H_    0.426006 0.036408 0.747245 0.257239
H7    H     H_    0.557604 0.190477 0.704904 0.256843
H8    H     H_    0.345726 0.217017 0.744888 0.241574
S1    S     S_3+6 0.198030 0.671978 0.982604 0.134149
O9    O     O_2   0.242120 0.809048 0.924036 -0.295831
O10   O     O_2   0.094773 0.560181 0.903306 -0.169439
O11   O     O_3   0.108623 0.724927 0.125546 -0.422225
H9    H     H_    0.156062 0.664735 0.178365 0.395628
S2    S     S_3+6 0.811295 0.357903 0.014355 0.093509
O12   O     O_2   0.912445 0.472790 0.093089 -0.155684
O13   O     O_2   0.785712 0.213396 0.065096 -0.375072
O14   O     O_3   0.890100 0.322621 0.866718 -0.464714
H10   H     H_    0.808168 0.255648 0.821203 0.362347
S3    S     S_3+6 0.230534 0.296778 0.087464 0.091120
O15   O     O_2   0.319819 0.186118 0.136694 -0.320226
O16   O     O_2   0.129604 0.386116 0.188652 -0.304542
O17   O     O_3   0.123670 0.202947 0.972935 -0.395871
H11   H     H_    0.156507 0.253713 0.901636 0.382850
S4    S     S_3+6 0.767732 0.718570 0.912244 0.066553
O18   O     O_2   0.872435 0.795030 0.011376 -0.198533
O19   O     O_2   0.862104 0.624484 0.809305 -0.257679
O20   O     O_3   0.669578 0.846787 0.859412 -0.590316
H12   H     H_    0.725725 0.944947 0.890927 0.378777
N5    N     N_2   0.003629 0.318032 0.411678 -0.153350
H13   H     H_    0.124715 0.320009 0.386501 0.312672
C17   C     C_3   0.905290 0.238466 0.315503 -0.233202
H14   H     H_    0.976955 0.162568 0.243877 0.256982
H15   H     H_    0.851562 0.319957 0.270850 0.251861
H16   H     H_    0.809058 0.165198 0.349787 0.217738
N6    N     N_2   0.998491 0.683766 0.584275 -0.157588
H17   H     H_    0.877748 0.682676 0.610162 0.316817
C18   C     C_3   0.097372 0.765611 0.679057 -0.265412
H18   H     H_    0.025248 0.836970 0.753509 0.234919
H19   H     H_    0.187855 0.843070 0.643140 0.224404
H20   H     H_    0.158177 0.686567 0.721231 0.254484
S5    S     S_3+6 0.767042 0.014406 0.541775 0.029633
O21   O     O_2   0.875106 0.945845 0.432347 -0.196108
O22   O     O_2   0.820340 0.177807 0.581171 -0.270806
O23   O     O_3   0.796412 0.933533 0.661744 -0.548355
H21   H     H_    0.866336 0.007633 0.713844 0.384174
S6    S     S_3+6 0.245758 0.978267 0.431117 0.050608
O24   O     O_2   0.207953 0.813185 0.384404 -0.255419
O25   O     O_2   0.131484 0.034216 0.540247 -0.220740
O26   O     O_3   0.211173 0.067428 0.317213 -0.531035
H22   H     H_    0.169264 0.988268 0.251188 0.433482

loop_
_geom_bond_atom_site_label_1
_geom_bond_atom_site_label_2
_geom_bond_distance
_ccdc_geom_bond_type
N3    C15   1.436866 S    
C6    C9    1.531829 S    
C16   H6    1.110161 S    
S6    O26   1.661980 S    
S1    O10   1.486105 D    
S2    O12   1.487697 D    
O5    C3    1.351094 A    
C5    C11   1.536166 S    
O1    C1    1.337265 A    
C16   H7    1.093051 S    
S6    O25   1.498435 D    
C15   H4    1.100637 S    
C11   S3    1.730336 S    
C12   S4    1.728136 S    
N1    N2    1.282671 D    
C5    S1    1.724323 S    
O4    Zn1   2.073781 S    
C17   H15   1.093997 S    
N4    C16   1.421159 S    
N6    C18   1.449489 S    
C14   S6    1.790474 S    
C13   S5    1.808228 S    
C7    N3    1.457022 S    
S2    O14   1.679760 S    
N5    H13   1.023430 S    
O2    C2    1.328762 A    
S2    O13   1.499563 D    
S1    O11   1.680151 S    
S4    O19   1.483937 D    
N5    C17   1.450562 S    
O23   H21   0.989725 S    
C18   H18   1.103927 S    
C16   H8    1.107032 S    
S6    O24   1.500190 D    
C6    C12   1.542582 S    
O4    C2    1.375832 A    
S1    O9    1.500642 D    
S5    O22   1.501143 D    
S3    O16   1.481255 D    
C13   C14   1.394245 D    
C4    C9    1.494649 S    
C18   H19   1.088034 S    
C17   H16   1.087517 S    
O7    Zn2   2.084404 S    
C15   H2    1.104770 S    
C6    S2    1.718763 S    
O14   H10   0.987445 S    
C8    C11   1.519155 S    
O6    C4    1.346827 A    
S3    O17   1.674992 S    
N4    H5    1.025844 S    
O7    C3    1.370103 A    
O3    Zn2   2.073781 S    
O8    C4    1.361619 A    
C1    C13   1.461848 S    
C8    N4    1.446160 S    
C8    C10   1.541327 S    
S3    O15   1.487550 D    
C9    C11   1.524451 S    
C10   C12   1.554963 S    
O1    Zn1   2.063262 S    
O11   H9    0.987020 S    
O17   H11   0.986565 S    
S4    O18   1.497013 D    
O6    Zn2   2.091223 S    
C7    C9    1.537089 S    
N1    N5    1.375311 S    
O3    C1    1.369853 A    
O8    Zn1   2.084404 S    
S5    O23   1.663167 S    
C3    C10   1.520705 S    
C5    C10   1.558951 S    
C18   H20   1.091680 S    
C7    C12   1.529437 S    
S5    O21   1.501625 D    
C15   H3    1.103267 S    
O20   H12   0.988879 S    
C2    C14   1.462767 S    
C5    C7    1.530347 S    
C6    C8    1.516808 S    
C17   H14   1.104814 S    
O2    Zn2   2.063262 S    
O26   H22   0.989425 S    
O5    Zn1   2.091225 S    
N6    H17   1.022192 S    
Zn1   N2    2.161010 S    
N3    H1    1.029682 S    
Zn2   N1    2.161010 S    
N2    N6    1.373433 S    
S4    O20   1.673820 S    
