data_mof_unit_24520.cif
_audit_creation_date              2013-03-05T16:15:05-0500
_audit_creation_method            fapswitch 2.2
_symmetry_space_group_name_H-M    P1
_symmetry_Int_Tables_number       1
_space_group_crystal_system       triclinic
_cell_length_a                    23.534461
_cell_length_b                    10.613312
_cell_length_c                    9.442076
_cell_angle_alpha                 89.833328
_cell_angle_beta                  89.859397
_cell_angle_gamma                 89.756641
_cell_volume                      2358.39002822

loop_
_atom_site_label
_atom_site_type_symbol
_atom_site_description
_atom_site_fract_x
_atom_site_fract_y
_atom_site_fract_z
_atom_type_partial_charge
O1    O     O_R   0.500030 0.316850 0.620870 -0.519069
O2    O     O_R   0.499970 0.683150 0.379130 -0.532471
O3    O     O_R   0.500000 0.316860 0.379090 -0.602539
O4    O     O_R   0.500000 0.683140 0.620910 -0.592197
C1    C     C_R   0.500055 0.259474 0.499988 0.818954
C2    C     C_R   0.500043 0.740498 0.500021 0.814905
O5    O     O_R   0.417890 0.499960 0.620920 -0.555925
O6    O     O_R   0.582110 0.500040 0.379080 -0.601934
O7    O     O_R   0.417870 0.499970 0.379140 -0.561292
O8    O     O_R   0.582130 0.500030 0.620860 -0.513471
C3    C     C_R   0.391016 0.496722 0.500222 0.858603
C4    C     C_R   0.609014 0.502077 0.499879 0.851982
Cu1   Cu    Cu3+1 0.500010 0.499990 0.643150 1.064892
Cu2   Cu    Cu3+1 0.499990 0.500010 0.356850 1.011210
C5    C     C_R   0.880220 0.607378 0.476810 0.617238
C6    C     C_R   0.119890 0.384249 0.464279 0.619352
N1    N     N_R   0.852164 0.494472 0.477788 -0.446931
N2    N     N_R   0.147907 0.496606 0.476786 -0.447709
C7    C     C_R   0.880952 0.382234 0.470006 0.603554
C8    C     C_R   0.119088 0.608961 0.480883 0.600279
C9    C     C_R   0.940533 0.380519 0.464304 -0.022565
C10   C     C_R   0.059529 0.611097 0.475751 -0.022359
C11   C     C_R   0.970059 0.495640 0.468474 -0.006966
C12   C     C_R   0.030020 0.496107 0.468256 -0.007071
C13   C     C_R   0.939774 0.610257 0.474133 -0.021774
C14   C     C_R   0.060321 0.381538 0.461822 -0.022336
C15   C     C_R   0.971179 0.266834 0.456640 -0.131862
C16   C     C_R   0.028894 0.724929 0.480025 -0.132601
C17   C     C_R   0.030464 0.267369 0.454813 -0.125024
C18   C     C_R   0.969623 0.724535 0.478627 -0.126483
O9    O     O_2   0.850498 0.716382 0.479113 -0.489007
O10   O     O_2   0.149651 0.275610 0.454988 -0.486286
O11   O     O_2   0.852007 0.272753 0.469786 -0.497698
O12   O     O_2   0.147994 0.718024 0.491867 -0.498117
C19   C     C_R   0.240882 0.542734 0.374427 -0.116656
C20   C     C_R   0.759257 0.458235 0.371196 -0.110631
H1    H     H_    0.219909 0.579923 0.281180 0.194425
H2    H     H_    0.780326 0.427825 0.275006 0.195522
C21   C     C_R   0.299800 0.540605 0.379929 -0.210223
C22   C     C_R   0.700302 0.462414 0.376131 -0.227979
H3    H     H_    0.323220 0.578182 0.290634 0.230489
H4    H     H_    0.676898 0.432484 0.283603 0.196837
C23   C     C_R   0.328221 0.492418 0.499019 -0.209001
C24   C     C_R   0.671851 0.503305 0.498625 -0.198521
C25   C     C_R   0.296112 0.443088 0.613850 0.218241
C26   C     C_R   0.703934 0.541528 0.617888 0.241785
C27   C     C_R   0.236087 0.446637 0.608302 0.296917
C28   C     C_R   0.763848 0.534778 0.613590 0.291531
C29   C     C_R   0.208781 0.496653 0.487583 0.186125
C30   C     C_R   0.791274 0.493878 0.488686 0.186373
C31   C     C_3   0.547192 0.041270 0.565110 -0.114112
C32   C     C_3   0.453068 0.958635 0.434912 -0.132206
C33   C     C_3   0.546452 0.957793 0.431113 -0.151980
C34   C     C_3   0.453808 0.042058 0.568907 -0.151793
H5    H     H_    0.585665 0.078169 0.618347 0.201288
H6    H     H_    0.414590 0.921723 0.381705 0.199312
C35   C     C_3   0.500134 0.877470 0.500430 -0.034046
C36   C     C_3   0.500106 0.122450 0.499598 -0.043585
C37   C     C_3   0.500886 0.958626 0.634596 -0.071677
C38   C     C_3   0.499374 0.041263 0.365420 -0.084501
H7    H     H_    0.501526 0.922239 0.744970 0.203033
H8    H     H_    0.498743 0.077635 0.255041 0.200533
C39   C     C_3   0.479508 0.602067 0.047934 0.424147
C40   C     C_3   0.520587 0.397979 0.952027 0.461814
C41   C     C_3   0.448660 0.512208 0.949245 -0.125814
C42   C     C_3   0.551405 0.487981 0.050777 -0.130090
H9    H     H_    0.406031 0.527676 0.902879 0.212602
H10   H     H_    0.594376 0.475511 0.096984 0.183437
N3    N     N_3   0.500040 0.499970 0.858290 -0.234252
N4    N     N_3   0.499960 0.500030 0.141710 -0.236912
C43   C     C_3   0.530424 0.592395 0.948398 -0.105943
C44   C     C_3   0.469581 0.407583 0.051580 -0.119834
H11   H     H_    0.554732 0.671299 0.900877 0.211343
H12   H     H_    0.444789 0.329428 0.099381 0.183518
H13   H     H_    0.949495 0.177098 0.452778 0.194151
H14   H     H_    0.050574 0.814613 0.485209 0.194961
N5    N     N_R   0.455550 0.718227 0.104322 0.139402
O13   O     O_R   0.406986 0.716510 0.170218 -0.368981
O14   O     O_R   0.480849 0.825128 0.081434 -0.365142
N6    N     N_R   0.545029 0.282462 0.895297 0.134810
O15   O     O_R   0.593272 0.285670 0.827989 -0.329687
O16   O     O_R   0.520551 0.174826 0.919148 -0.362095
H15   H     H_    0.052775 0.178021 0.449631 0.195258
H16   H     H_    0.947318 0.813933 0.482800 0.195732
N7    N     N_R   0.323781 0.387907 0.734568 0.148873
O17   O     O_R   0.359104 0.294468 0.717820 -0.351551
O18   O     O_R   0.309109 0.421347 0.862050 -0.315941
N8    N     N_R   0.676199 0.589179 0.742124 0.165044
O19   O     O_R   0.683119 0.533227 0.863691 -0.304055
O20   O     O_R   0.647812 0.694498 0.735827 -0.352605
N9    N     N_R   0.202790 0.396389 0.722902 0.165209
O21   O     O_R   0.160174 0.460292 0.774077 -0.324786
O22   O     O_R   0.212908 0.283528 0.771061 -0.241035
N10   N     N_R   0.796890 0.571744 0.734359 0.160331
O23   O     O_R   0.839622 0.502981 0.776075 -0.325002
O24   O     O_R   0.785765 0.676644 0.800019 -0.246197
H17   H     H_    0.584284 0.920040 0.374735 0.176710
H18   H     H_    0.415918 0.079234 0.625373 0.209795

loop_
_geom_bond_atom_site_label_1
_geom_bond_atom_site_label_2
_geom_bond_distance
_ccdc_geom_bond_type
C42   H10   1.109632 S    
C39   C41   1.522912 S    
C15   C17   1.395338 A    
C40   N6    1.455079 S    
C25   N7    1.436212 S    
C27   C29   1.411094 A    
N5    O13   1.300132 A    
O5    C3    1.305340 A    
C28   N10   1.438224 S    
C1    C36   1.454287 S    
O1    C1    1.295224 A    
C19   H1    1.083080 S    
C12   C14   1.408425 A    
C17   H15   1.083163 S    
C34   C36   1.531209 S    
C35   C37   1.534141 S    
C36   C38   1.534412 S    
C38   H8    1.110463 S    
C25   C27   1.414105 A    
O4    Cu1   1.954529 S    
N3    C43   1.487023 S    
C32   C38   1.545485 S    
C24   C26   1.418517 A    
C41   H9    1.107010 S    
C19   C29   1.395567 A    
C11   C12   1.411174 A    
C3    C23   1.478823 S    
C31   H5    1.110068 S    
C8    O12   1.349496 S    
C28   C30   1.411646 A    
C9    C15   1.405024 A    
C10   C16   1.404918 A    
Cu1   Cu2   2.703268 S    
Cu2   N4    2.031369 S    
C2    C35   1.453749 S    
O2    C2    1.295167 A    
C15   H13   1.083164 S    
C33   C38   1.545623 S    
C32   C34   1.546517 S    
C26   N8    1.433438 S    
C34   C37   1.545369 S    
N5    O14   1.300830 A    
C6    C14   1.402597 A    
C26   C28   1.412070 A    
C37   H7    1.110474 S    
N7    O18   1.301340 A    
C20   C22   1.388655 A    
C44   H12   1.110331 S    
C7    O11   1.349421 S    
N9    O21   1.301194 A    
C43   H11   1.109278 S    
C33   C35   1.531191 S    
C21   C23   1.403849 A    
C33   H17   1.110183 S    
N7    O17   1.301090 A    
C31   C33   1.546851 S    
C40   C42   1.523892 S    
C19   C21   1.387789 A    
O7    Cu2   1.943564 S    
N9    O22   1.301237 A    
O7    C3    1.305394 A    
C42   C43   1.548480 S    
C39   N4    1.476667 S    
O5    Cu1   1.944530 S    
O6    C4    1.306190 A    
C31   C36   1.531379 S    
C40   N3    1.476815 S    
N10   O24   1.301220 A    
C23   C25   1.420128 A    
C39   C43   1.524368 S    
O3    Cu2   1.954529 S    
O8    C4    1.304632 A    
O4    C2    1.292071 A    
C8    C10   1.402728 A    
C9    C11   1.408852 A    
C10   C12   1.408790 A    
C31   C37   1.545539 S    
C20   H2    1.083075 S    
C16   H14   1.083170 S    
C20   C30   1.396606 A    
C39   N5    1.455239 S    
C13   C18   1.405005 A    
C5    N1    1.370627 A    
O6    Cu2   1.944526 S    
C7    C9    1.403139 A    
C27   N9    1.437141 S    
N8    O20   1.301062 A    
N6    O15   1.300299 A    
O3    C1    1.292280 A    
O8    Cu1   1.943562 S    
N1    C30   1.436504 S    
C5    O9    1.349581 S    
C6    O10   1.349494 S    
C41   C44   1.549378 S    
C16   C18   1.395018 A    
C4    C24   1.478978 S    
C42   N4    1.487828 S    
Cu1   N3    2.031369 S    
C41   N3    1.486869 S    
C22   H4    1.083072 S    
N1    C7    1.369965 A    
N6    O16   1.300407 A    
N2    C8    1.369941 A    
C40   C44   1.526066 S    
C18   H16   1.083169 S    
N10   O23   1.301223 A    
O2    Cu2   1.955680 S    
C5    C13   1.402189 A    
C32   C35   1.530966 S    
C22   C24   1.403938 A    
C11   C13   1.408367 A    
O1    Cu1   1.955680 S    
N8    O19   1.301090 A    
C21   H3    1.082287 S    
C14   C17   1.405097 A    
C6    N2    1.370609 A    
C34   H18   1.109500 S    
N4    C44   1.487233 S    
C32   H6    1.110077 S    
N2    C29   1.436504 S    
