data_mof_unit_67165.cif
_audit_creation_date              2013-03-05T15:58:59-0500
_audit_creation_method            fapswitch 2.2
_symmetry_space_group_name_H-M    P1
_symmetry_Int_Tables_number       1
_space_group_crystal_system       triclinic
_cell_length_a                    8.322488
_cell_length_b                    12.972805
_cell_length_c                    14.998272
_cell_angle_alpha                 97.440981
_cell_angle_beta                  97.601243
_cell_angle_gamma                 98.438126
_cell_volume                      1569.2802738

loop_
_atom_site_label
_atom_site_type_symbol
_atom_site_description
_atom_site_fract_x
_atom_site_fract_y
_atom_site_fract_z
_atom_type_partial_charge
P1    P     P_3+3 0.998730 0.403530 0.291970 0.498154
O1    O     O_2   0.827880 0.435260 0.277750 -0.374177
O2    O     O_3   0.100280 0.438960 0.391170 -0.314359
O3    O     O_3   0.625580 0.634130 0.333250 -0.368837
O4    O     O_2   0.702923 0.555730 0.175000 -0.424086
O5    O     O_3   0.937958 0.266845 0.270649 -0.663393
O6    O     O_3   0.630037 0.745537 0.190146 -0.537898
C1    C     C_3   0.433505 0.857005 0.159906 -1.192897
H1    H     H_    0.362735 0.913272 0.192421 0.233719
H2    H     H_    0.514529 0.897315 0.117970 0.295062
P2    P     P_3+3 0.687380 0.751030 0.571310 0.486946
P3    P     P_3+3 0.109605 0.826284 0.379892 0.461972
O7    O     O_2   0.857130 0.766340 0.543890 -0.304652
O8    O     O_3   0.056550 0.691050 0.379010 -0.396657
O9    O     O_2   0.993448 0.880015 0.436141 -0.335220
O10   O     O_3   0.757731 0.786737 0.689456 -0.506093
O11   O     O_3   0.055523 0.855497 0.270145 -0.540119
C2    C     C_3   0.036768 0.763999 0.205540 0.332759
H3    H     H_    0.936480 0.704185 0.217881 0.166408
H4    H     H_    0.152192 0.730270 0.209045 -0.081063
C3    C     C_3   0.993184 0.793153 0.110481 0.498982
H5    H     H_    0.094587 0.852825 0.098510 0.074500
C4    C     C_3   0.231847 0.772764 0.644822 0.406196
H6    H     H_    0.322155 0.742579 0.605250 0.023675
H7    H     H_    0.110158 0.745966 0.604541 0.173444
C5    C     C_3   0.262873 0.892818 0.659337 -0.872342
H8    H     H_    0.396156 0.923142 0.668219 0.191318
H9    H     H_    0.204487 0.921544 0.598649 0.279854
H10   H     H_    0.210883 0.924642 0.719462 0.295132
Ba1   Ba    Ba6+2 0.843750 0.550210 0.455600 1.614314
C6    C     C_3   0.037771 0.217795 0.327945 1.128432
H11   H     H_    0.163047 0.231288 0.311254 0.009539
C7    C     C_3   0.971227 0.100362 0.314327 -0.462994
H12   H     H_    0.857649 0.088395 0.345891 0.172092
H13   H     H_    0.060769 0.058436 0.349683 0.191981
C8    C     C_3   0.644430 0.747265 0.743017 0.365465
H14   H     H_    0.694997 0.686851 0.778331 0.062218
H15   H     H_    0.525263 0.714069 0.702738 0.140430
C9    C     C_3   0.622139 0.832627 0.817800 -0.986079
H16   H     H_    0.736977 0.890401 0.839906 0.283862
H17   H     H_    0.587408 0.796965 0.877408 0.238619
H18   H     H_    0.521350 0.873246 0.793778 0.265579
P4    P     P_3+3 0.190990 0.596560 0.708040 0.454612
O12   O     O_2   0.361830 0.564780 0.722310 -0.409116
O13   O     O_3   0.089430 0.561130 0.608830 -0.387340
O14   O     O_3   0.564130 0.365960 0.666760 -0.422139
O15   O     O_3   0.239464 0.734866 0.728529 -0.584660
P5    P     P_3+3 0.086097 0.171807 0.617580 0.617584
O16   O     O_3   0.601940 0.368240 0.453770 -0.340130
O17   O     O_3   0.133170 0.309040 0.621000 -0.283758
O18   O     O_2   0.207232 0.122154 0.562433 -0.383283
O19   O     O_3   0.141107 0.140870 0.726996 -0.581973
Ba2   Ba    Ba6+2 0.346090 0.449880 0.544410 1.594697
P6    P     P_3+3 0.579391 0.618852 0.215915 0.424425
C10   C     C_3   0.534396 0.812423 0.232633 1.420587
H19   H     H_    0.447771 0.774086 0.273763 -0.147803
H20   H     H_    0.347895 0.792265 0.114402 0.215034
O20   O     O_3   0.587780 0.631850 0.546230 -0.472392
C11   C     C_3   0.551390 0.224777 0.249457 0.503718
H21   H     H_    0.672589 0.248869 0.291693 0.121375
C12   C     C_3   0.560961 0.127363 0.179978 -0.422974
H22   H     H_    0.435161 0.087600 0.148476 0.194281
H23   H     H_    0.617336 0.070392 0.217684 0.214730
P7    P     P_3+3 0.502762 0.232806 0.420641 0.487165
O21   O     O_2   0.332590 0.233690 0.456160 -0.321427
O22   O     O_3   0.431079 0.196836 0.303163 -0.629251
C13   C     C_3   0.137299 0.228344 0.792334 1.136418
H24   H     H_    0.220122 0.298753 0.780323 0.014684
C14   C     C_3   0.198960 0.207364 0.888054 -0.460523
H25   H     H_    0.225576 0.284498 0.933819 0.130856
H26   H     H_    0.316384 0.175900 0.889795 0.189404
P8    P     P_3+3 0.611776 0.376225 0.785757 0.408452
C15   C     C_3   0.590780 0.175804 0.743604 0.467583
H27   H     H_    0.693434 0.205808 0.708292 0.097417
O23   O     O_2   0.491296 0.441571 0.827385 -0.416498
O24   O     O_3   0.556594 0.250290 0.812386 -0.551104
H28   H     H_    0.478734 0.148222 0.692205 0.111807
H29   H     H_    0.753509 0.109305 0.835701 0.314105
C16   C     C_3   0.638930 0.083352 0.786227 -1.006071
H30   H     H_    0.661060 0.021987 0.732680 0.244749
H31   H     H_    0.539156 0.051167 0.822260 0.257043
C17   C     C_R   0.831994 0.434727 0.832073 0.202427
C18   C     C_R   0.900785 0.441046 0.924098 0.005685
C19   C     C_R   0.039724 0.454533 0.110231 -0.037677
C20   C     C_R   0.880370 0.400909 0.076778 -0.129892
C21   C     C_R   0.811030 0.395849 0.986361 -0.147303
C22   C     C_R   0.107206 0.464957 0.204134 0.172330
H32   H     H_    0.805633 0.363947 0.120552 0.175266
H33   H     H_    0.685854 0.355603 0.966303 0.178510
C23   C     C_R   0.267663 0.519147 0.232676 -0.437893
C24   C     C_R   0.088550 0.533167 0.799110 0.211294
C25   C     C_R   0.158028 0.541518 0.892456 -0.054317
C26   C     C_R   0.065159 0.492816 0.954365 0.021178
C27   C     C_R   0.316428 0.596701 0.926232 -0.064844
C28   C     C_R   0.385947 0.599818 0.016494 -0.196385
C29   C     C_R   0.296282 0.553581 0.078754 -0.025435
C30   C     C_R   0.133862 0.500221 0.047874 0.035438
C31   C     C_R   0.363805 0.559900 0.171278 0.128231
C32   C     C_R   0.932358 0.473797 0.771434 -0.210231
H34   H     H_    0.510521 0.640967 0.036701 0.194162
H35   H     H_    0.389712 0.637400 0.883300 0.160981
H36   H     H_    0.321516 0.525764 0.303342 0.170893
C33   C     C_R   0.773943 0.176181 0.520675 0.384895
C34   C     C_R   0.426034 0.811728 0.464780 -0.471540
C35   C     C_R   0.390584 0.984527 0.430928 -0.057471
C36   C     C_R   0.326730 0.878513 0.428449 0.179501
C37   C     C_R   0.583299 0.850425 0.514126 0.376035
C38   C     C_R   0.648519 0.961054 0.520218 -0.231648
C39   C     C_R   0.550516 0.027626 0.475115 -0.144803
C40   C     C_R   0.614232 0.136328 0.476788 0.006126
C41   C     C_R   0.871267 0.113648 0.564796 -0.018575
C42   C     C_R   0.807167 0.008200 0.567883 0.589430
H37   H     H_    0.313929 0.032937 0.398251 0.143751
H38   H     H_    0.376437 0.728706 0.458104 0.154310
F1    F     F_    0.638232 0.893862 0.290293 -0.729272
F2    F     F_    0.037643 0.255394 0.417946 -0.617683
N1    N     N_2   0.930952 0.056122 0.219184 -0.077446
H39   H     H_    0.860200 0.982780 0.210038 0.322350
C43   C     C_3   0.063955 0.062748 0.166209 -0.804760
H40   H     H_    0.020907 0.018190 0.097039 0.255119
H41   H     H_    0.169395 0.031287 0.199584 0.251756
H42   H     H_    0.102216 0.145172 0.157513 0.229434
N2    N     N_2   0.512095 0.313188 0.205005 -0.100442
H43   H     H_    0.523003 0.381756 0.250150 0.209569
C44   C     C_3   0.364695 0.297073 0.138203 -0.990286
H44   H     H_    0.256494 0.300651 0.173070 0.240682
H45   H     H_    0.347012 0.221502 0.091789 0.253329
H46   H     H_    0.375076 0.359490 0.094659 0.261691
N3    N     N_2   0.656637 0.154458 0.109270 -0.076161
H47   H     H_    0.624644 0.217042 0.079469 0.209924
C45   C     C_3   0.663532 0.068025 0.039363 -0.844234
H48   H     H_    0.746738 0.096187 0.992417 0.251277
H49   H     H_    0.539039 0.037472 0.999947 0.238245
H50   H     H_    0.713369 0.003544 0.069096 0.294264
N4    N     N_2   0.969012 0.702700 0.040181 -0.146879
H51   H     H_    0.874156 0.644887 0.047074 0.203076
C46   C     C_3   0.957036 0.730195 0.949244 -0.901785
H52   H     H_    0.905627 0.659644 0.898307 0.224070
H53   H     H_    0.080626 0.763629 0.935791 0.254721
H54   H     H_    0.873740 0.788590 0.940975 0.288012
F3    F     F_    0.979246 0.249847 0.789134 -0.778924
N5    N     N_2   0.076285 0.137155 0.921618 -0.072433
H55   H     H_    0.070398 0.158499 0.989608 0.197439
C47   C     C_3   0.076355 0.025504 0.897551 -0.810107
H56   H     H_    0.983668 0.980427 0.930716 0.225328
H57   H     H_    0.198739 0.005628 0.921285 0.229191
H58   H     H_    0.042838 0.001463 0.822943 0.309323
N6    N     N_2   0.874281 0.454008 0.678678 -0.080476
H59   H     H_    0.834537 0.375814 0.653993 0.239981
C48   C     C_3   0.774345 0.528543 0.650666 -0.475340
H60   H     H_    0.706335 0.494395 0.583784 0.298041
H61   H     H_    0.849390 0.606098 0.651671 0.209526
H62   H     H_    0.682380 0.541613 0.695307 0.178281
F4    F     F_    0.900510 0.955167 0.620074 -0.644514
F5    F     F_    0.836897 0.277656 0.518551 -0.624794
F6    F     F_    0.850620 0.835983 0.105252 -0.691594

loop_
_geom_bond_atom_site_label_1
_geom_bond_atom_site_label_2
_geom_bond_distance
_ccdc_geom_bond_type
P1    C22   1.887056 S    
C10   H19   1.113341 S    
C7    N1    1.443230 S    
Ba2   O20   2.862633 S    
C2    C3    1.533104 S    
P2    O7    1.515563 D    
C17   C32   1.406366 A    
Ba1   O13   2.840757 S    
C41   C42   1.402425 A    
C19   C22   1.427015 A    
O6    C10   1.409326 S    
C32   N6    1.388547 S    
C45   H50   1.104604 S    
C34   C36   1.394219 A    
N2    H43   1.030521 S    
C9    H17   1.110461 S    
C20   C21   1.391091 A    
P1    Ba1   3.414028 S    
C46   H53   1.110611 S    
C5    H8    1.105536 S    
C33   C40   1.394998 A    
C19   C30   1.428615 A    
C35   H37   1.075253 S    
C8    H14   1.103282 S    
N6    C48   1.432477 S    
P1    O1    1.533296 D    
C14   H25   1.112802 S    
N1    C43   1.444425 S    
C11   O22   1.401876 S    
C20   H32   1.072329 S    
C18   C26   1.419736 A    
C38   C39   1.442491 A    
C14   H26   1.111480 S    
C2    H3    1.104992 S    
C15   H27   1.112381 S    
C4    C5    1.522808 S    
C12   H23   1.107244 S    
C23   H36   1.082147 S    
O12   Ba2   2.859779 S    
P4    Ba2   3.414582 S    
P5    O18   1.545500 D    
C28   C29   1.409504 A    
P2    Ba1   3.451658 S    
C1    H1    1.107924 S    
C48   H62   1.098680 S    
C29   C31   1.413833 A    
P3    O11   1.752479 S    
C44   H46   1.104995 S    
C4    H6    1.102133 S    
C6    C7    1.520243 S    
P2    O20   1.615480 S    
Ba2   O21   2.921808 S    
O14   P8    1.759553 S    
C12   N3    1.456043 S    
P5    O17   1.758383 S    
O5    C6    1.393320 S    
O13   Ba2   2.944265 S    
C11   H21   1.097071 S    
O16   P7    1.804123 S    
C42   F4    1.350938 S    
C3    H5    1.108172 S    
C47   H58   1.108470 S    
C27   C28   1.393125 A    
O8    Ba1   2.815407 S    
P8    O23   1.546548 D    
C1    C10   1.514258 S    
C46   H54   1.107038 S    
C7    H12   1.111779 S    
C9    H18   1.100003 S    
C43   H41   1.108607 S    
C11   N2    1.455115 S    
Ba1   Ba2   4.577007 S    
C11   C12   1.549094 S    
O17   Ba2   2.815993 S    
C4    O15   1.403517 S    
C13   H24   1.110221 S    
O7    Ba1   2.921467 S    
N4    H51   1.031658 S    
C19   C20   1.399044 A    
C27   H35   1.078342 S    
C47   H57   1.111555 S    
C9    H16   1.107553 S    
C16   H31   1.109659 S    
C28   H34   1.079000 S    
C14   N5    1.451611 S    
P4    C24   1.913654 S    
C38   C42   1.424246 A    
P1    O2    1.585994 S    
P7    O22   1.762229 S    
O2    Ba1   2.943409 S    
P4    O12   1.533531 D    
C1    H20   1.107273 S    
P2    O10   1.769357 S    
O4    P6    1.545295 D    
P7    C40   1.882377 S    
C6    H11   1.098719 S    
P3    O9    1.547037 D    
C37   C38   1.444639 A    
C29   C30   1.413364 A    
P5    C41   1.862141 S    
C25   C27   1.399786 A    
O11   C2    1.407085 S    
C15   C16   1.509830 S    
P8    O24   1.742656 S    
N6    H59   1.023398 S    
P4    O13   1.586149 S    
O19   C13   1.407054 S    
C34   H38   1.082150 S    
C33   F5    1.349566 S    
Ba1   O16   2.863184 S    
P3    O8    1.743000 S    
P2    C37   1.888439 S    
C44   H44   1.103218 S    
C15   O24   1.406783 S    
C48   H61   1.100774 S    
C45   H48   1.109115 S    
C13   F3    1.380157 S    
C26   C30   1.428257 A    
C6    F2    1.374779 S    
C24   C25   1.426303 A    
N5    C47   1.446759 S    
N3    H47   1.027517 S    
C46   H52   1.105392 S    
C43   H42   1.099514 S    
C13   C14   1.531588 S    
N4    C46   1.448397 S    
C35   C39   1.405599 A    
O3    P6    1.729841 S    
H29   C16   1.107773 S    
C8    C9    1.520656 S    
C47   H56   1.108559 S    
C45   H49   1.112124 S    
C21   H33   1.079424 S    
C43   H40   1.106489 S    
C33   C41   1.393613 A    
C35   C36   1.393657 A    
C5    H9    1.107913 S    
O1    Ba1   2.859221 S    
P7    O21   1.578763 D    
C8    H15   1.087550 S    
N1    H39   1.025286 S    
O10   C8    1.400686 S    
P3    C36   1.849189 S    
O2    Ba2   2.841519 S    
C10   F1    1.381505 S    
O16   Ba2   2.925487 S    
Ba1   O20   2.926251 S    
O14   Ba2   2.839326 S    
C25   C26   1.434292 A    
C7    H13   1.105207 S    
C3    F6    1.379409 S    
C3    N4    1.443347 S    
C2    H4    1.110387 S    
C4    H7    1.091750 S    
C12   H22   1.110392 S    
P8    C17   1.880413 S    
N2    C44   1.448353 S    
C16   H30   1.108693 S    
P5    O19   1.757689 S    
C18   C21   1.404149 A    
C5    H10   1.109082 S    
C1    H2    1.103477 S    
C17   C18   1.409746 A    
C22   C23   1.398585 A    
P1    O5    1.746250 S    
C44   H45   1.105074 S    
C15   H28   1.110101 S    
C48   H60   1.088104 S    
P6    C31   1.843683 S    
N5    H55   1.031014 S    
O6    P6    1.741361 S    
C24   C32   1.391362 A    
C39   C40   1.427680 A    
P4    O15   1.757374 S    
C23   C31   1.401643 A    
C34   C37   1.402680 A    
O3    Ba1   2.839985 S    
N3    C45   1.445739 S    
