data_mof_unit_32493.cif
_audit_creation_date              2012-12-10T16:51:28-0500
_audit_creation_method            fapswitch 2.2
_symmetry_space_group_name_H-M    P1
_symmetry_Int_Tables_number       1
_space_group_crystal_system       triclinic
_cell_length_a                    7.835511
_cell_length_b                    8.546463
_cell_length_c                    12.157466
_cell_angle_alpha                 91.629364
_cell_angle_beta                  101.207873
_cell_angle_gamma                 93.902234
_cell_volume                      796.035132572

loop_
_atom_site_label
_atom_site_type_symbol
_atom_type_description
_atom_site_fract_x
_atom_site_fract_y
_atom_site_fract_z
_atom_type_partial_charge
C1    C     C_R   0.042570 0.794291 0.493545 0.961454
C2    C     C_R   0.399198 0.486747 0.989194 0.113250
C3    C     C_R   0.309888 0.429475 0.882368 -0.080013
C4    C     C_R   0.572508 0.448257 0.026453 0.125163
C5    C     C_R   0.647857 0.337150 0.964746 0.091086
C6    C     C_R   0.547789 0.262364 0.866478 -0.096460
C7    C     C_R   0.374112 0.301272 0.828859 -0.163134
C8    C     C_R   0.673883 0.518996 0.124372 -0.217211
C9    C     C_R   0.909730 0.357237 0.110495 -0.208534
C10   C     C_R   0.159667 0.504461 0.832442 -0.266951
C11   C     C_2   0.060422 0.956947 0.482264 -0.318241
C12   C     C_R   0.106515 0.504438 0.710458 0.945454
C13   C     C_2   0.928438 0.041157 0.497220 -0.283488
C14   C     C_R   0.953797 0.205190 0.499167 0.981716
C15   C     C_R   0.892863 0.491070 0.289974 0.813441
C16   C     C_R   0.819885 0.297426 0.006588 -0.156334
C17   C     C_R   0.832383 0.463534 0.170793 -0.050301
C18   C     C_R   0.076154 0.600041 0.898553 0.663261
C19   C     C_R   0.148809 0.631691 0.010760 -0.201543
C20   C     C_R   0.310407 0.579293 0.055537 -0.292571
H1    H     H_    0.034420 0.313822 0.146140 0.159592
H2    H     H_    0.804809 0.990636 0.513190 0.209498
H3    H     H_    0.470496 0.374679 0.417627 0.131559
H4    H     H_    0.882059 0.212488 0.963527 0.145808
H5    H     H_    0.628916 0.612238 0.170478 0.143618
H6    H     H_    0.360211 0.609943 0.143061 0.159801
H7    H     H_    0.083321 0.703052 0.062247 0.171780
H8    H     H_    0.182980 0.007434 0.464655 0.202742
N1    N     N_2   0.434800 0.456690 0.470850 -0.084139
N2    N     N_2   0.565200 0.543310 0.529150 0.223934
O1    O     O_R   0.893060 0.738880 0.507150 -0.597540
O2    O     O_R   0.172250 0.711130 0.488470 -0.569660
O3    O     O_R   0.944700 0.520730 0.667600 -0.526666
O4    O     O_R   0.223890 0.492980 0.648920 -0.554419
O5    O     O_R   0.827750 0.288870 0.511530 -0.612454
O6    O     O_R   0.106940 0.261120 0.492850 -0.609910
O7    O     O_R   0.776110 0.507020 0.351080 -0.657302
O8    O     O_R   0.055300 0.479270 0.332400 -0.645461
Zn1   Zn    Zn3+2 0.813580 0.518530 0.512470 1.090331
Zn2   Zn    Zn3+2 0.186420 0.481470 0.487530 1.048603
F1    F     F_    0.520960 0.651165 0.598024 -0.502814
C21   C     C_2   0.622492 0.138253 0.806635 0.954986
O9    O     O_2   0.667131 0.165784 0.717776 -0.552353
O10   O     O_R   0.643413 0.991367 0.853004 -0.774597
H9    H     H_    0.696034 0.916948 0.804706 0.408465
F2    F     F_    0.927990 0.668029 0.853995 -0.632783
C22   C     C_2   0.252774 0.191058 0.747345 0.936051
O11   O     O_2   0.303145 0.131158 0.668470 -0.553868
O12   O     O_R   0.082945 0.149363 0.761367 -0.768299
H10   H     H_    0.058124 0.191617 0.834640 0.295450

loop_
_geom_bond_atom_site_label_1
_geom_bond_atom_site_label_2
_ccdc_geom_bond_type
N2    Zn1   S    
O5    Zn1   S    
H3    N1    S    
N2    F1    S    
N1    N2    D    
C19   H7    S    
C2    C4    A    
C8    C17   A    
C1    C11   S    
C1    O1    A    
C4    C8    A    
C2    C3    A    
C22   O12   S    
C3    C10   A    
C13   C14   S    
O8    Zn2   S    
C8    H5    S    
C11   C13   D    
C9    H1    S    
O3    Zn1   S    
C15   O8    A    
C21   O10   S    
C11   H8    S    
C10   C18   A    
O4    Zn2   S    
C10   C12   S    
N1    Zn2   S    
C9    C17   A    
C9    C16   A    
O1    Zn1   S    
C13   H2    S    
C18   C19   A    
C6    C7    A    
C3    C7    A    
O2    Zn2   S    
C14   O6    A    
C5    C6    A    
O7    Zn1   S    
C21   O9    D    
C2    C20   A    
C22   O11   D    
C18   F2    S    
O6    Zn2   S    
O10   H9    S    
C16   H4    S    
O12   H10   S    
C6    C21   S    
C14   O5    A    
C15   C17   S    
C15   O7    A    
C5    C16   A    
C12   O3    A    
C12   O4    A    
C1    O2    A    
C19   C20   A    
C4    C5    A    
C20   H6    S    
C7    C22   S    
