data_mof_unit_15692.cif
_audit_creation_date              2012-12-11T14:30:15-0500
_audit_creation_method            fapswitch 2.2
_symmetry_space_group_name_H-M    P1
_symmetry_Int_Tables_number       1
_space_group_crystal_system       triclinic
_cell_length_a                    12.653318
_cell_length_b                    12.653315
_cell_length_c                    27.062921
_cell_angle_alpha                 89.999983
_cell_angle_beta                  90.000022
_cell_angle_gamma                 120.000331
_cell_volume                      3752.42996603

loop_
_atom_site_label
_atom_site_type_symbol
_atom_type_description
_atom_site_fract_x
_atom_site_fract_y
_atom_site_fract_z
_atom_type_partial_charge
C1    C     C_R   0.558633 0.455942 0.822408 0.546052
C2    C     C_R   0.455942 0.558634 0.177592 0.546051
C3    C     C_R   0.005120 0.311737 0.474420 -0.124244
C4    C     C_R   0.306615 0.994875 0.025581 -0.124244
C5    C     C_R   0.688283 0.693362 0.474414 -0.124246
C6    C     C_R   0.311732 0.005109 0.525582 -0.124244
C7    C     C_R   0.994939 0.306648 0.974412 -0.124245
C8    C     C_R   0.693386 0.688261 0.525580 -0.124244
C9    C     C_R   0.311719 0.005080 0.974415 -0.124245
C10   C     C_R   0.994916 0.306637 0.525586 -0.124245
C11   C     C_R   0.693359 0.688283 0.974414 -0.124246
C12   C     C_R   0.441366 0.897307 0.322408 0.546052
C13   C     C_R   0.102694 0.544058 0.177591 0.546051
C14   C     C_R   0.992976 0.498416 0.974216 0.063161
C15   C     C_R   0.505447 0.007041 0.525781 0.063160
C16   C     C_R   0.501588 0.494556 0.974217 0.063161
C17   C     C_R   0.992971 0.498413 0.525783 0.063161
C18   C     C_R   0.505444 0.007034 0.974218 0.063161
C19   C     C_R   0.501598 0.494549 0.525780 0.063161
C20   C     C_R   0.498408 0.992964 0.474218 0.063160
C21   C     C_R   0.897308 0.441366 0.677592 0.546051
C22   C     C_R   0.007053 0.505452 0.025779 0.063160
C23   C     C_R   0.494559 0.501587 0.474217 0.063161
C24   C     C_R   0.498405 0.992957 0.025781 0.063161
C25   C     C_R   0.007047 0.505450 0.474220 0.063160
C26   C     C_R   0.494551 0.501595 0.025781 0.063161
C27   C     C_R   0.990665 0.689497 0.974395 -0.124367
C28   C     C_R   0.698824 0.009321 0.525606 -0.124367
C29   C     C_R   0.310504 0.301165 0.974395 -0.124367
C30   C     C_R   0.990676 0.689503 0.525606 -0.124367
C31   C     C_R   0.698833 0.009338 0.974395 -0.124367
C32   C     C_R   0.544058 0.102692 0.822408 0.546051
C33   C     C_R   0.310495 0.301175 0.525606 -0.124367
C34   C     C_R   0.689502 0.990677 0.474394 -0.124367
C35   C     C_R   0.009308 0.698817 0.025606 -0.124368
C36   C     C_R   0.301174 0.310495 0.474394 -0.124368
C37   C     C_R   0.689510 0.990694 0.025607 -0.124368
C38   C     C_R   0.009320 0.698824 0.474394 -0.124367
C39   C     C_R   0.301183 0.310487 0.025607 -0.124368
C40   C     C_R   0.959750 0.576621 0.897297 -0.135255
C41   C     C_R   0.616866 0.040246 0.602703 -0.135254
C42   C     C_R   0.423379 0.383129 0.897297 -0.135255
C43   C     C_R   0.558634 0.455942 0.677592 0.546051
C44   C     C_R   0.959754 0.576623 0.602703 -0.135255
C45   C     C_R   0.616871 0.040252 0.897297 -0.135254
C46   C     C_R   0.423379 0.383133 0.602702 -0.135255
C47   C     C_R   0.576621 0.959754 0.397297 -0.135255
C48   C     C_R   0.040243 0.616863 0.102702 -0.135256
C49   C     C_R   0.383132 0.423376 0.397296 -0.135255
C50   C     C_R   0.576623 0.959759 0.102703 -0.135256
C51   C     C_R   0.040246 0.616866 0.397298 -0.135255
C52   C     C_R   0.383137 0.423376 0.102703 -0.135256
C53   C     C_R   0.049482 0.524379 0.127802 -0.004981
C54   C     C_R   0.897308 0.441366 0.822408 0.546051
C55   C     C_R   0.474904 0.950526 0.372196 -0.004983
C56   C     C_R   0.475622 0.525099 0.127803 -0.004982
C57   C     C_R   0.049478 0.524378 0.372197 -0.004982
C58   C     C_R   0.474900 0.950522 0.127803 -0.004981
C59   C     C_R   0.475624 0.525092 0.372195 -0.004983
C60   C     C_R   0.524378 0.049476 0.627804 -0.004983
C61   C     C_R   0.950532 0.474909 0.872194 -0.004984
C62   C     C_R   0.525100 0.475620 0.627803 -0.004982
C63   C     C_R   0.524378 0.049473 0.872196 -0.004984
C64   C     C_R   0.950530 0.474907 0.627805 -0.004983
C65   C     C_R   0.544058 0.102693 0.677592 0.546051
C66   C     C_R   0.525093 0.475622 0.872195 -0.004984
C67   C     C_R   0.982539 0.589678 0.948350 0.016771
C68   C     C_R   0.607138 0.017461 0.551649 0.016772
C69   C     C_R   0.410323 0.392858 0.948351 0.016772
C70   C     C_R   0.982543 0.589680 0.551650 0.016773
C71   C     C_R   0.607141 0.017466 0.948351 0.016772
C72   C     C_R   0.410324 0.392861 0.551648 0.016774
C73   C     C_R   0.589678 0.982540 0.448351 0.016772
C74   C     C_R   0.017460 0.607136 0.051648 0.016774
C75   C     C_R   0.392863 0.410319 0.448350 0.016773
C76   C     C_R   0.455942 0.558633 0.322408 0.546052
C77   C     C_R   0.589679 0.982545 0.051649 0.016773
C78   C     C_R   0.017463 0.607138 0.448352 0.016773
C79   C     C_R   0.392865 0.410319 0.051649 0.016774
C80   C     C_R   0.971237 0.390427 0.897866 -0.128098
C81   C     C_R   0.419201 0.028792 0.602129 -0.128095
C82   C     C_R   0.609579 0.580806 0.897868 -0.128097
C83   C     C_R   0.971226 0.390420 0.602132 -0.128096
C84   C     C_R   0.419195 0.028776 0.897869 -0.128097
C85   C     C_R   0.609597 0.580796 0.602128 -0.128094
C86   C     C_R   0.390413 0.971217 0.397869 -0.128094
C87   C     C_R   0.441365 0.897307 0.177592 0.546051
C88   C     C_R   0.028811 0.419207 0.102126 -0.128092
C89   C     C_R   0.580807 0.609580 0.397868 -0.128096
C90   C     C_R   0.390404 0.971200 0.102128 -0.128093
C91   C     C_R   0.028797 0.419202 0.397872 -0.128094
C92   C     C_R   0.580796 0.609597 0.102128 -0.128093
C93   C     C_R   0.988110 0.399040 0.948648 0.013967
C94   C     C_R   0.410943 0.011922 0.551347 0.013966
C95   C     C_R   0.600966 0.589065 0.948650 0.013967
C96   C     C_R   0.988097 0.399033 0.551350 0.013966
C97   C     C_R   0.410936 0.011905 0.948651 0.013967
C98   C     C_R   0.102693 0.544058 0.322408 0.546051
C99   C     C_R   0.600985 0.589052 0.551346 0.013966
C100  C     C_R   0.399026 0.988087 0.448651 0.013966
C101  C     C_R   0.011945 0.410953 0.051344 0.013965
C102  C     C_R   0.589066 0.600967 0.448650 0.013967
C103  C     C_R   0.399016 0.988069 0.051347 0.013965
C104  C     C_R   0.011930 0.410947 0.448654 0.013966
C105  C     C_R   0.589052 0.600984 0.051346 0.013965
C106  C     C_R   0.005144 0.311749 0.025578 -0.124243
C107  C     C_R   0.306629 0.994903 0.474416 -0.124243
C108  C     C_R   0.688259 0.693387 0.025580 -0.124244
Cr1   Cr    Cr6+3 0.487630 0.241180 0.750000 1.008712
Cr2   Cr    Cr6+3 0.753550 0.512370 0.750000 1.008712
Cr3   Cr    Cr6+3 0.758820 0.246450 0.750000 1.008712
Cr4   Cr    Cr6+3 0.241180 0.487630 0.250000 1.008712
Cr5   Cr    Cr6+3 0.512370 0.753550 0.250000 1.008713
Cr6   Cr    Cr6+3 0.246450 0.758820 0.250000 1.008712
H1    H     H_    0.056096 0.698257 0.122283 0.118450
H2    H     H_    0.698273 0.056123 0.877718 0.118458
H3    H     H_    0.943883 0.642154 0.622282 0.118455
H4    H     H_    0.357849 0.301725 0.877718 0.118457
H5    H     H_    0.016908 0.777415 0.044846 0.093827
H6    H     H_    0.760494 0.983065 0.455156 0.093831
H7    H     H_    0.222585 0.239489 0.044846 0.093825
H8    H     H_    0.016927 0.777425 0.455155 0.093827
H9    H     H_    0.760507 0.983092 0.044846 0.093828
H10   H     H_    0.222569 0.239504 0.455156 0.093826
H11   H     H_    0.777427 0.016931 0.544845 0.093831
H12   H     H_    0.642155 0.943887 0.377717 0.118456
H13   H     H_    0.983042 0.760484 0.955157 0.093829
H14   H     H_    0.239501 0.222573 0.544844 0.093826
H15   H     H_    0.777440 0.016957 0.955157 0.093831
H16   H     H_    0.983061 0.760494 0.544844 0.093826
H17   H     H_    0.239516 0.222557 0.955158 0.093828
H18   H     H_    0.009560 0.239058 0.044927 0.092905
H19   H     H_    0.229528 0.990497 0.455065 0.092906
H20   H     H_    0.760950 0.770492 0.044930 0.092905
H21   H     H_    0.009530 0.239044 0.455070 0.092904
H22   H     H_    0.229510 0.990461 0.044931 0.092905
H23   H     H_    0.301741 0.357836 0.122284 0.118449
H24   H     H_    0.760980 0.770461 0.455063 0.092905
H25   H     H_    0.239038 0.009517 0.544932 0.092906
H26   H     H_    0.990541 0.229553 0.955060 0.092906
H27   H     H_    0.770490 0.760953 0.544930 0.092903
H28   H     H_    0.239022 0.009480 0.955064 0.092906
H29   H     H_    0.990513 0.229538 0.544937 0.092906
H30   H     H_    0.770456 0.760981 0.955063 0.092905
H31   H     H_    0.035062 0.346868 0.120952 0.128969
H32   H     H_    0.311829 0.964977 0.379042 0.128967
H33   H     H_    0.653137 0.688186 0.120954 0.128968
H34   H     H_    0.056106 0.698264 0.377717 0.118453
H35   H     H_    0.035041 0.346859 0.379045 0.128966
H36   H     H_    0.311815 0.964952 0.120955 0.128969
H37   H     H_    0.653153 0.688163 0.379040 0.128966
H38   H     H_    0.346858 0.035035 0.620956 0.128968
H39   H     H_    0.965005 0.311848 0.879038 0.128966
H40   H     H_    0.688185 0.653137 0.620954 0.128967
H41   H     H_    0.346850 0.035011 0.879041 0.128966
H42   H     H_    0.964988 0.311839 0.620960 0.128967
H43   H     H_    0.688160 0.653152 0.879040 0.128965
H44   H     H_    0.642162 0.943902 0.122284 0.118452
H45   H     H_    0.301730 0.357844 0.377717 0.118454
H46   H     H_    0.698265 0.056108 0.622283 0.118455
H47   H     H_    0.943873 0.642149 0.877718 0.118459
H48   H     H_    0.357840 0.301737 0.622283 0.118452
O1    O     O_R   0.460870 0.120930 0.805240 -0.522761
O2    O     O_R   0.120930 0.460870 0.194760 -0.522761
O3    O     O_R   0.539130 0.660060 0.305240 -0.522761
O4    O     O_R   0.339940 0.879070 0.194760 -0.522761
O5    O     O_R   0.498910 0.350470 0.801870 -0.500413
O6    O     O_R   0.851560 0.501090 0.698130 -0.500414
O7    O     O_R   0.649530 0.148440 0.801870 -0.500412
O8    O     O_R   0.498910 0.350470 0.698130 -0.500413
O9    O     O_R   0.851560 0.501090 0.801870 -0.500413
O10   O     O_R   0.649530 0.148440 0.698130 -0.500411
O11   O     O_R   0.350470 0.498910 0.301870 -0.500413
O12   O     O_R   0.660060 0.539130 0.694760 -0.522763
O13   O     O_R   0.501090 0.851560 0.198130 -0.500412
O14   O     O_R   0.148440 0.649530 0.301870 -0.500411
O15   O     O_R   0.350470 0.498910 0.198130 -0.500413
O16   O     O_R   0.501090 0.851560 0.301870 -0.500412
O17   O     O_R   0.148440 0.649530 0.198130 -0.500412
O18   O     O_3   0.666667 0.333333 0.750000 -0.230055
O19   O     O_3   0.333333 0.666667 0.250000 -0.230056
O20   O     O_R   0.879070 0.339940 0.805240 -0.522761
O21   O     O_R   0.460870 0.120930 0.694760 -0.522761
O22   O     O_R   0.660060 0.539130 0.805240 -0.522761
O23   O     O_R   0.879070 0.339940 0.694760 -0.522761
O24   O     O_R   0.120930 0.460870 0.305240 -0.522761
O25   O     O_R   0.539130 0.660060 0.194760 -0.522762
O26   O     O_R   0.339940 0.879070 0.305240 -0.522761

loop_
_geom_bond_atom_site_label_1
_geom_bond_atom_site_label_2
_ccdc_geom_bond_type
C3    C104  A    
C12   O16   A    
C32   O7    A    
C4    C103  A    
C35   C74   A    
C89   C102  A    
C45   C71   A    
C35   H5    S    
C45   H2    S    
C91   C104  A    
C90   H36   S    
C58   C87   S    
C15   C94   A    
C88   C101  A    
Cr3   O20   S    
C80   H39   S    
C1    C66   S    
Cr1   O8    S    
C44   C64   A    
C106  H18   S    
C22   C101  A    
C46   C62   A    
C18   C24   A    
C84   C97   A    
C44   H3    S    
C76   O11   A    
C28   C68   A    
C8    C99   A    
Cr4   O24   S    
C7    H26   S    
C84   H41   S    
C87   O4    A    
C31   H15   S    
C83   C96   A    
C61   C80   A    
C12   O26   A    
C32   O1    A    
C101  C106  A    
C33   C36   A    
Cr6   O26   S    
C30   C38   A    
Cr3   O10   S    
C59   C89   A    
C6    H25   S    
C2    O25   A    
C21   C64   S    
Cr1   O5    S    
C33   C72   A    
C37   H9    S    
C27   H13   S    
C1    O22   A    
Cr5   O19   S    
C6    C94   A    
C40   C67   A    
C88   H31   S    
C49   C75   A    
C44   C70   A    
C8    H27   S    
C51   C57   A    
C18   C97   A    
C10   C96   A    
C52   C79   A    
C86   C100  A    
C11   H30   S    
C14   C93   A    
C13   C53   S    
C4    H22   S    
Cr2   O9    S    
Cr1   O21   S    
C31   C71   A    
Cr5   O16   S    
C6    C107  A    
C28   C34   A    
C17   C70   A    
C92   H33   S    
C34   H6    S    
C19   C72   A    
C15   C20   A    
Cr2   O6    S    
C7    C93   A    
C86   H32   S    
C26   C105  A    
C30   C70   A    
C43   O8    A    
Cr6   O4    S    
C41   C68   A    
C29   C69   A    
Cr2   O12   S    
C16   C26   A    
C48   C53   A    
Cr4   O2    S    
C62   C85   A    
Cr3   O23   S    
C65   O10   A    
C25   C78   A    
C50   C58   A    
C48   C74   A    
C5    H24   S    
C47   C73   A    
Cr1   O1    S    
C91   H35   S    
C82   H43   S    
C19   C99   A    
C42   H4    S    
C83   H42   S    
C38   C78   A    
C27   C35   A    
C30   H16   S    
C37   C77   A    
C45   C63   A    
C33   H14   S    
C50   H44   S    
C40   C61   A    
C31   C37   A    
Cr3   O7    S    
C39   C79   A    
C19   C23   A    
C64   C83   A    
C108  H20   S    
C85   C99   A    
C36   C75   A    
C66   C82   A    
C41   H46   S    
C98   O14   A    
C60   C81   A    
C24   C77   A    
C20   C100  A    
Cr2   O18   S    
C14   C67   A    
C29   C39   A    
C54   O20   A    
C52   H23   S    
C7    C106  A    
C76   O3    A    
C17   C96   A    
C105  C108  A    
C58   C90   A    
C38   H8    S    
C48   H1    S    
C2    O15   A    
C60   C65   S    
Cr3   O18   S    
C22   C74   A    
C47   H12   S    
Cr6   O19   S    
C50   C77   A    
C28   H11   S    
C21   O6    A    
C13   O2    A    
C47   C55   A    
C65   O21   A    
C11   C95   A    
C18   C71   A    
C5    C102  A    
C100  C107  A    
C9    C97   A    
C82   C95   A    
C57   C91   A    
C36   H10   S    
C46   C72   A    
C54   O9    A    
C16   C69   A    
C41   C60   A    
C23   C75   A    
C39   H7    S    
C5    C8    A    
C9    H28   S    
C25   C104  A    
C21   O23   A    
Cr4   O19   S    
C85   H40   S    
C54   C61   S    
C32   C63   S    
C81   H38   S    
C87   O13   A    
C26   C79   A    
C49   C59   A    
Cr5   O13   S    
C63   C84   A    
C24   C103  A    
C17   C25   A    
C14   C22   A    
C55   C86   A    
C80   C93   A    
C51   C78   A    
C40   H47   S    
C98   O24   A    
C3    C10   A    
C13   O17   A    
Cr5   O3    S    
C81   C94   A    
C16   C95   A    
Cr1   O18   S    
C29   H17   S    
C51   H34   S    
C15   C68   A    
Cr6   O14   S    
C43   O12   A    
C20   C73   A    
Cr4   O11   S    
C53   C88   A    
C3    H21   S    
C10   H29   S    
C42   C69   A    
C57   C98   S    
C90   C103  A    
C12   C55   S    
C27   C67   A    
C34   C73   A    
Cr2   O22   S    
C23   C102  A    
C92   C105  A    
C89   H37   S    
C107  H19   S    
Cr6   O17   S    
C46   H48   S    
C11   C108  A    
C42   C66   A    
C1    O5    A    
C49   H45   S    
C2    C56   S    
C4    C9    A    
C56   C92   A    
C59   C76   S    
C52   C56   A    
C43   C62   S    
Cr4   O15   S    
Cr5   O25   S    
