data_mof_unit_47910.cif
_audit_creation_date              2012-12-11T14:08:28-0500
_audit_creation_method            fapswitch 2.2
_symmetry_space_group_name_H-M    P1
_symmetry_Int_Tables_number       1
_space_group_crystal_system       triclinic
_cell_length_a                    28.084852
_cell_length_b                    7.185208
_cell_length_c                    17.298303
_cell_angle_alpha                 90.001322
_cell_angle_beta                  101.594379
_cell_angle_gamma                 89.999813
_cell_volume                      3419.49152294

loop_
_atom_site_label
_atom_site_type_symbol
_atom_type_description
_atom_site_fract_x
_atom_site_fract_y
_atom_site_fract_z
_atom_type_partial_charge
O1    O     O_R   0.000700 0.436510 0.857920 -0.516013
O2    O     O_R   0.999300 0.563490 0.142080 -0.532496
O3    O     O_R   0.999300 0.936510 0.642080 -0.516012
O4    O     O_R   0.000700 0.063490 0.357920 -0.532496
O5    O     O_R   0.930080 0.766380 0.721890 -0.537893
O6    O     O_R   0.069920 0.233620 0.278110 -0.541629
O7    O     O_R   0.069920 0.266380 0.778110 -0.537900
O8    O     O_R   0.930080 0.733620 0.221890 -0.541629
C1    C     C_R   0.910887 0.597365 0.709831 0.827257
C2    C     C_R   0.089147 0.402433 0.291271 0.836936
C3    C     C_R   0.089113 0.097365 0.790169 0.827342
C4    C     C_R   0.910853 0.902433 0.208728 0.836935
O9    O     O_R   0.996180 0.766230 0.862310 -0.518846
O10   O     O_R   0.003820 0.233770 0.137690 -0.499472
O11   O     O_R   0.003820 0.266230 0.637690 -0.518841
O12   O     O_R   0.996180 0.733770 0.362310 -0.499474
O13   O     O_R   0.065870 0.936460 0.783500 -0.530670
O14   O     O_R   0.934130 0.063540 0.216500 -0.528986
O15   O     O_R   0.934130 0.436460 0.716500 -0.530675
O16   O     O_R   0.065870 0.563540 0.283500 -0.528988
C5    C     C_R   0.998884 0.595892 0.894379 0.739768
C6    C     C_R   0.001424 0.404137 0.105728 0.745195
C7    C     C_R   0.001115 0.095891 0.605621 0.739816
C8    C     C_R   0.998576 0.904138 0.394271 0.745213
O17   O     O_3   0.022790 0.603020 0.723980 -0.359968
O18   O     O_3   0.977210 0.396980 0.276020 -0.363957
O19   O     O_3   0.977210 0.103020 0.776020 -0.359972
O20   O     O_3   0.022790 0.896980 0.223980 -0.363956
V1    V     V_3+5 0.995770 0.877900 0.754830 1.617207
V2    V     V_3+5 0.004230 0.122100 0.245170 1.618545
V3    V     V_3+5 0.004230 0.377900 0.745170 1.617200
V4    V     V_3+5 0.995770 0.622100 0.254830 1.618537
C9    C     C_2   0.995596 0.081293 0.518797 0.095150
C10   C     C_2   0.003600 0.918534 0.480973 0.100717
C11   C     C_2   0.004403 0.581295 0.981204 0.095150
C12   C     C_2   0.996401 0.418533 0.019026 0.100751
C13   C     C_R   0.681286 0.891935 0.035629 0.629632
C14   C     C_R   0.315183 0.985219 0.976251 0.628347
C15   C     C_R   0.318715 0.391933 0.464365 0.629646
C16   C     C_R   0.684817 0.485282 0.523736 0.628350
O21   O     O_2   0.708847 0.819465 0.987520 -0.515626
O22   O     O_2   0.285250 0.929011 0.023683 -0.508157
O23   O     O_2   0.291156 0.319463 0.512475 -0.515636
O24   O     O_2   0.714752 0.429073 0.476304 -0.508150
N1    N     N_R   0.702185 0.942053 0.111485 -0.521421
N2    N     N_R   0.296372 0.041745 0.900347 -0.523970
N3    N     N_R   0.297815 0.442044 0.388509 -0.521409
N4    N     N_R   0.703628 0.541815 0.599641 -0.523968
C17   C     C_R   0.673551 0.000831 0.162626 0.660871
C18   C     C_R   0.326944 0.083633 0.849895 0.662740
C19   C     C_R   0.326448 0.500823 0.337367 0.660805
C20   C     C_R   0.673054 0.583712 0.650091 0.662722
C21   C     C_R   0.776582 0.838459 0.206702 0.370256
C22   C     C_R   0.220880 0.962673 0.802686 0.377837
C23   C     C_R   0.223417 0.338441 0.293294 0.370279
C24   C     C_R   0.779115 0.462724 0.697304 0.377904
C25   C     C_R   0.827389 0.842848 0.233001 0.270410
C26   C     C_R   0.170776 0.986137 0.773165 0.281037
C27   C     C_R   0.172609 0.342840 0.266995 0.270441
C28   C     C_R   0.829219 0.486156 0.726827 0.281007
C29   C     C_R   0.836086 0.999219 0.112198 0.266628
C30   C     C_R   0.164286 0.166403 0.889600 0.255970
C31   C     C_R   0.163915 0.499222 0.387800 0.266598
C32   C     C_R   0.835718 0.666421 0.610398 0.256013
C33   C     C_R   0.785367 0.023744 0.092269 0.378691
C34   C     C_R   0.215096 0.161449 0.915063 0.383305
C35   C     C_R   0.214634 0.523735 0.407729 0.378691
C36   C     C_R   0.784907 0.661493 0.584933 0.383322
C37   C     C_R   0.754812 0.934699 0.136994 0.022718
C38   C     C_R   0.243993 0.055661 0.872663 0.025417
C39   C     C_R   0.245188 0.434683 0.363002 0.022724
C40   C     C_R   0.756006 0.555720 0.627328 0.025368
C41   C     C_R   0.601070 0.960720 0.060425 -0.116615
C42   C     C_R   0.397226 0.011594 0.952377 -0.119394
C43   C     C_R   0.398930 0.460726 0.439565 -0.116600
C44   C     C_R   0.602774 0.511651 0.547609 -0.119389
C45   C     C_R   0.631138 0.914779 0.007296 -0.050079
C46   C     C_R   0.365735 0.983506 0.005116 -0.053397
C47   C     C_R   0.368863 0.414785 0.492695 -0.050066
C48   C     C_R   0.634265 0.483562 0.494870 -0.053405
C49   C     C_R   0.610554 0.891323 0.927162 -0.126648
C50   C     C_R   0.385354 0.951733 0.085154 -0.124800
C51   C     C_R   0.389449 0.391337 0.572829 -0.126654
C52   C     C_R   0.614647 0.451778 0.414832 -0.124790
C53   C     C_R   0.622183 0.995870 0.140149 -0.162607
C54   C     C_R   0.377607 0.053371 0.872703 -0.159533
C55   C     C_R   0.377816 0.495865 0.359841 -0.162634
C56   C     C_R   0.622391 0.553441 0.627282 -0.159548
C57   C     C_R   0.857391 0.912792 0.183767 -0.372603
C58   C     C_R   0.142310 0.086485 0.817007 -0.365855
C59   C     C_R   0.142609 0.412794 0.316230 -0.372614
C60   C     C_R   0.857690 0.586491 0.682990 -0.365899
H1    H     H_    0.632941 0.855613 0.885150 0.208574
H2    H     H_    0.361936 0.928118 0.126908 0.187785
H3    H     H_    0.367064 0.355623 0.614842 0.208565
H4    H     H_    0.638064 0.428163 0.373078 0.187793
C61   C     C_R   0.479452 0.998564 0.924520 -0.028913
C62   C     C_R   0.519172 0.991587 0.088521 -0.028778
C63   C     C_R   0.520548 0.498609 0.575467 -0.028919
C64   C     C_R   0.480828 0.491602 0.411467 -0.028803
C65   C     C_R   0.467916 0.982511 0.061495 0.068643
C66   C     C_R   0.529901 0.964215 0.951414 0.067164
C67   C     C_R   0.532083 0.482541 0.438491 0.068629
C68   C     C_R   0.470100 0.464246 0.548574 0.067170
C69   C     C_R   0.448321 0.997410 0.979483 0.078324
C70   C     C_R   0.549915 0.972007 0.033466 0.077928
C71   C     C_R   0.551678 0.497455 0.520503 0.078324
C72   C     C_R   0.450085 0.472025 0.466522 0.077928
C73   C     C_R   0.459152 0.036080 0.844655 -0.274151
C74   C     C_R   0.540747 0.022369 0.168463 -0.277752
C75   C     C_R   0.540848 0.536141 0.655332 -0.274137
C76   C     C_R   0.459251 0.522362 0.331524 -0.277726
C77   C     C_R   0.409121 0.063981 0.818586 0.481757
C78   C     C_R   0.591409 0.026414 0.194396 0.477901
C79   C     C_R   0.590878 0.564053 0.681399 0.481743
C80   C     C_R   0.408589 0.526400 0.305593 0.477882
O25   O     O_2   0.308439 0.156471 0.778289 -0.480322
O26   O     O_2   0.694642 0.066873 0.234311 -0.482590
O27   O     O_2   0.691557 0.656565 0.721696 -0.480323
O28   O     O_2   0.305355 0.566862 0.265683 -0.482613
C81   C     C_R   0.561036 0.920167 0.899275 -0.186956
C82   C     C_R   0.435497 0.956407 0.113320 -0.191632
C83   C     C_R   0.438966 0.420195 0.600715 -0.186980
C84   C     C_R   0.564504 0.456442 0.386666 -0.191657
H5    H     H_    0.481699 0.052041 0.801348 0.133434
H6    H     H_    0.518940 0.052171 0.211771 0.133316
H7    H     H_    0.518301 0.552096 0.698640 0.133437
H8    H     H_    0.481056 0.552148 0.288212 0.133344
H9    H     H_    0.547585 0.899675 0.836870 0.142500
H10   H     H_    0.448202 0.931612 0.175630 0.136661
H11   H     H_    0.452419 0.399709 0.663118 0.142488
H12   H     H_    0.551799 0.431639 0.324356 0.136668
Cl1   Cl    Cl    0.970670 0.283079 0.466950 -0.641659
Cl2   Cl    Cl    0.027423 0.715242 0.532647 -0.602791
Cl3   Cl    Cl    0.029326 0.783086 0.033054 -0.641652
Cl4   Cl    Cl    0.972579 0.215239 0.967349 -0.602778
O29   O     O_3   0.864911 0.067814 0.062683 -0.523501
C85   C     C_3   0.868238 0.929619 0.006016 -0.083911
H13   H     H_    0.831777 0.887801 0.972143 0.141151
H14   H     H_    0.888363 0.805575 0.034091 0.093714
H15   H     H_    0.888674 0.986669 0.962885 0.206689
O30   O     O_3   0.135833 0.248108 0.936770 -0.550061
C86   C     C_3   0.120927 0.107621 0.983968 -0.095943
H16   H     H_    0.151506 0.067515 0.032546 0.186772
H17   H     H_    0.106326 0.981835 0.949543 0.131974
H18   H     H_    0.090971 0.162456 0.010512 0.187044
O31   O     O_3   0.135092 0.567826 0.437317 -0.523506
C87   C     C_3   0.131766 0.429640 0.493986 -0.083889
H19   H     H_    0.168225 0.387805 0.527850 0.141138
H20   H     H_    0.111634 0.305609 0.465915 0.093722
H21   H     H_    0.111338 0.486703 0.537124 0.206688
O32   O     O_3   0.864173 0.748130 0.563235 -0.550058
C88   C     C_3   0.879086 0.607643 0.516041 -0.095952
H22   H     H_    0.848509 0.567508 0.467464 0.186747
H23   H     H_    0.893694 0.481874 0.550469 0.131999
H24   H     H_    0.909039 0.662495 0.489495 0.187044
O33   O     O_3   0.765957 0.125086 0.025386 -0.506260
C89   C     C_3   0.756126 0.306817 0.048496 -0.140027
H25   H     H_    0.789463 0.375606 0.082186 0.116088
H26   H     H_    0.726959 0.306327 0.083447 0.105631
H27   H     H_    0.742944 0.390979 0.994685 0.185316
O34   O     O_3   0.235504 0.246124 0.985753 -0.503351
C90   C     C_3   0.252274 0.423772 0.969726 -0.137061
H28   H     H_    0.222009 0.512494 0.938240 0.124180
H29   H     H_    0.281849 0.413685 0.935750 0.100958
H30   H     H_    0.267655 0.492940 0.026605 0.192587
O35   O     O_3   0.234047 0.625079 0.474613 -0.506266
C91   C     C_3   0.243861 0.806826 0.451504 -0.140089
H31   H     H_    0.210516 0.875590 0.417833 0.116125
H32   H     H_    0.273019 0.806373 0.416536 0.105647
H33   H     H_    0.257048 0.890987 0.505316 0.185284
O36   O     O_3   0.764504 0.746178 0.514246 -0.503341
C92   C     C_3   0.747725 0.923811 0.530277 -0.137043
H34   H     H_    0.777986 0.012542 0.561774 0.124157
H35   H     H_    0.718147 0.913700 0.564244 0.100962
H36   H     H_    0.732346 0.992985 0.473400 0.192581
O37   O     O_3   0.149114 0.897698 0.703982 -0.520710
C93   C     C_3   0.149189 0.020791 0.640519 -0.120146
H37   H     H_    0.186894 0.058695 0.635494 0.166242
H38   H     H_    0.127624 0.148448 0.645951 0.073308
H39   H     H_    0.131904 0.950021 0.584924 0.178041
O38   O     O_3   0.847682 0.785821 0.308725 -0.537326
C94   C     C_3   0.848030 0.941146 0.359031 -0.122963
H40   H     H_    0.810710 0.971974 0.368033 0.195197
H41   H     H_    0.864133 0.067316 0.336827 0.111630
H42   H     H_    0.870990 0.909773 0.417211 0.165207
O39   O     O_3   0.850870 0.397698 0.796010 -0.520678
C95   C     C_3   0.850865 0.520888 0.859467 -0.119962
H43   H     H_    0.813197 0.559555 0.864377 0.165821
H44   H     H_    0.872609 0.648076 0.854127 0.073304
H45   H     H_    0.867989 0.449899 0.915083 0.178131
O40   O     O_3   0.152315 0.285810 0.191272 -0.537324
C96   C     C_3   0.151960 0.441137 0.140967 -0.122945
H46   H     H_    0.189276 0.471910 0.131926 0.195219
H47   H     H_    0.135878 0.567338 0.163197 0.111619
H48   H     H_    0.128973 0.409791 0.082800 0.165150
O41   O     O_3   0.247441 0.857729 0.759290 -0.509827
C97   C     C_3   0.254157 0.678288 0.792389 -0.140079
H49   H     H_    0.218808 0.610238 0.794530 0.128087
H50   H     H_    0.277881 0.682982 0.852044 0.100677
H51   H     H_    0.272776 0.591072 0.754612 0.186246
O42   O     O_3   0.748464 0.753150 0.253489 -0.504797
C98   C     C_3   0.736879 0.572236 0.224312 -0.113142
H52   H     H_    0.770227 0.488370 0.224242 0.121705
H53   H     H_    0.713535 0.576330 0.164235 0.094720
H54   H     H_    0.715925 0.501152 0.263638 0.190736
O43   O     O_3   0.752548 0.357810 0.740699 -0.509776
C99   C     C_3   0.745835 0.178353 0.707613 -0.140029
H55   H     H_    0.781185 0.110292 0.705487 0.128106
H56   H     H_    0.722117 0.183021 0.647951 0.100638
H57   H     H_    0.727210 0.091162 0.745389 0.186235
O44   O     O_3   0.251533 0.253127 0.246502 -0.504808
C100  C     C_3   0.263134 0.072239 0.275696 -0.113233
H58   H     H_    0.229794 0.988348 0.275790 0.121702
H59   H     H_    0.286488 0.076384 0.335764 0.094750
H60   H     H_    0.284084 0.001147 0.236364 0.190729
O45   O     O_3   0.391612 0.105560 0.739942 -0.540842
C101  C     C_3   0.387107 0.938513 0.696194 -0.153068
H61   H     H_    0.362492 0.838199 0.717800 0.155767
H62   H     H_    0.423206 0.873578 0.697277 0.106730
H63   H     H_    0.370821 0.970945 0.633774 0.171488
O46   O     O_3   0.610396 0.066218 0.272786 -0.536301
C102  C     C_3   0.609083 0.903083 0.317683 -0.141327
H64   H     H_    0.629698 0.787652 0.296591 0.145499
H65   H     H_    0.571049 0.859069 0.317281 0.106673
H66   H     H_    0.626685 0.932620 0.379820 0.168158
O47   O     O_3   0.608385 0.605634 0.760043 -0.540857
C103  C     C_3   0.612915 0.438562 0.803780 -0.153013
H67   H     H_    0.637541 0.338288 0.782158 0.155778
H68   H     H_    0.576819 0.373554 0.802704 0.106719
H69   H     H_    0.629203 0.471009 0.866201 0.171499
O48   O     O_3   0.389604 0.566183 0.227201 -0.536312
C104  C     C_3   0.390874 0.402985 0.182324 -0.141370
H70   H     H_    0.370176 0.287751 0.203372 0.145696
H71   H     H_    0.428895 0.358661 0.182810 0.106621
H72   H     H_    0.373335 0.432581 0.120164 0.168125

loop_
_geom_bond_atom_site_label_1
_geom_bond_atom_site_label_2
_ccdc_geom_bond_type
O17   V3    S    
C86   H18   S    
C98   H52   S    
O1    C5    A    
O33   C89   S    
C50   H2    S    
C23   C27   A    
O19   V1    S    
C18   O25   S    
O13   V1    S    
O3    C7    A    
C102  H64   S    
C87   H21   S    
O31   C87   S    
C48   C52   A    
C21   C37   A    
C103  H68   S    
C93   H37   S    
C41   C70   A    
C102  H66   S    
C68   C83   A    
C100  H58   S    
O7    C3    A    
C98   H53   S    
C84   H12   S    
C22   O41   S    
C25   C57   A    
C32   O32   S    
C54   C77   A    
C62   C74   A    
C32   C36   A    
C95   H44   S    
C53   C78   A    
C90   H29   S    
C87   H20   S    
C14   O22   S    
N4    C20   A    
C94   H41   S    
C22   C26   A    
O4    C8    A    
C36   C40   A    
C76   C80   A    
C10   Cl2   S    
C35   O35   S    
C86   H16   S    
C86   H17   S    
O1    V3    S    
C49   H1    S    
C34   O34   S    
O2    V4    S    
C79   O47   S    
C52   H4    S    
C77   O45   S    
O3    V1    S    
O47   C103  S    
O38   C94   S    
C103  H67   S    
C89   H27   S    
C23   O44   S    
C1    O15   A    
C91   H33   S    
C90   H28   S    
C76   H8    S    
C2    O16   A    
C99   H55   S    
C24   C40   A    
O2    C6    A    
C16   C48   A    
C97   H49   S    
O14   V2    S    
C21   O42   S    
N1    C17   A    
C88   H23   S    
C66   C81   A    
C104  H70   S    
C44   C56   A    
C61   C66   A    
C96   H46   S    
C73   C77   A    
C61   C69   A    
O11   C7    A    
C63   C68   A    
O15   V3    S    
C43   C72   A    
O12   C8    A    
C92   H34   S    
C80   O48   S    
C89   H26   S    
C31   C59   A    
C27   O40   S    
O41   C97   S    
C30   O30   S    
C67   C84   A    
C12   Cl4   S    
C1    C60   S    
C31   O31   S    
C25   O38   S    
C29   C57   A    
C19   O28   S    
O5    V1    S    
C92   H35   S    
C65   C69   A    
C98   H54   S    
C31   C35   A    
C64   C72   A    
O7    V3    S    
O42   C98   S    
C30   C34   A    
N1    C37   S    
O43   C99   S    
O8    V4    S    
C17   C53   A    
C4    C57   S    
C20   C56   A    
C90   H30   S    
C87   H19   S    
C33   O33   S    
C94   H42   S    
C19   C55   A    
O35   C91   S    
C21   C25   A    
O18   V4    S    
N3    C19   A    
C14   C46   A    
C96   H47   S    
O45   C101  S    
O10   V2    S    
C13   C45   A    
C64   C67   A    
C8    C10   S    
C24   C28   A    
C49   C81   A    
C95   H43   S    
C11   C12   D    
C15   C47   A    
C94   H40   S    
O5    C1    A    
C29   C33   A    
C61   C73   A    
C46   C50   A    
O39   C95   S    
C101  H62   S    
C17   O26   S    
C22   C38   A    
C45   C49   A    
O8    C4    A    
C96   H48   S    
C63   C75   A    
C97   H51   S    
C9    C10   D    
O9    C5    A    
C27   C59   A    
C51   H3    S    
C42   C54   A    
C88   H24   S    
C104  H71   S    
N3    C39   S    
C55   C80   A    
C85   H14   S    
C26   C58   A    
C73   H5    S    
C91   H31   S    
O6    V2    S    
C74   H6    S    
C2    C59   S    
C64   C76   A    
C44   C71   A    
C95   H45   S    
C75   H7    S    
C89   H25   S    
O12   V4    S    
N4    C40   S    
C13   N1    A    
C68   C72   A    
N2    C38   S    
C63   C71   A    
O36   C92   S    
C101  H63   S    
C15   N3    A    
O34   C90   S    
O16   V4    S    
C100  H60   S    
O9    V1    S    
C16   N4    A    
C74   C78   A    
C3    O13   A    
C41   C45   A    
C83   H11   S    
C52   C84   A    
C11   Cl3   S    
C44   C48   A    
C81   H9    S    
C97   H50   S    
C85   H15   S    
O6    C2    A    
C7    C9    S    
C93   H38   S    
C102  H65   S    
O11   V3    S    
C5    C11   S    
C28   O39   S    
C62   C65   A    
C6    C12   S    
O29   C85   S    
N2    C18   A    
C65   C82   A    
C62   C70   A    
O40   C96   S    
O10   C6    A    
C56   C79   A    
O20   V2    S    
C100  H59   S    
C41   C53   A    
C99   H56   S    
C42   C69   A    
C47   C51   A    
C36   O36   S    
C3    C58   S    
C29   O29   S    
C101  H61   S    
C34   C38   A    
C24   O43   S    
C99   H57   S    
C33   C37   A    
C30   C58   A    
C91   H32   S    
O48   C104  S    
C92   H36   S    
C82   H10   S    
C66   C70   A    
C26   O37   S    
C35   C39   A    
C13   O21   S    
O46   C102  S    
C104  H72   S    
O4    V2    S    
C14   N2    A    
C93   H39   S    
C85   H13   S    
C18   C54   A    
C20   O27   S    
C9    Cl1   S    
C16   O24   S    
O44   C100  S    
C15   O23   S    
C75   C79   A    
O37   C93   S    
C42   C46   A    
C4    O14   A    
C32   C60   A    
O30   C86   S    
C67   C71   A    
O32   C88   S    
C51   C83   A    
C88   H22   S    
C28   C60   A    
C43   C47   A    
C50   C82   A    
C103  H69   S    
C23   C39   A    
C43   C55   A    
C78   O46   S    
