data_mof_unit_9694.cif
_audit_creation_date              2012-12-11T15:08:40-0500
_audit_creation_method            fapswitch 2.2
_symmetry_space_group_name_H-M    P1
_symmetry_Int_Tables_number       1
_space_group_crystal_system       triclinic
_cell_length_a                    26.011991
_cell_length_b                    27.998108
_cell_length_c                    8.547888
_cell_angle_alpha                 90.0
_cell_angle_beta                  96.676581
_cell_angle_gamma                 89.911574
_cell_volume                      6183.0857739

loop_
_atom_site_label
_atom_site_type_symbol
_atom_type_description
_atom_site_fract_x
_atom_site_fract_y
_atom_site_fract_z
_atom_type_partial_charge
Ba1   Ba    Ba6+2 0.999910 0.465960 0.844870 1.631998
Ba2   Ba    Ba6+2 0.999910 0.534040 0.344870 1.628379
Ba3   Ba    Ba6+2 0.499910 0.965960 0.844870 1.597366
Ba4   Ba    Ba6+2 0.499910 0.034040 0.344870 1.612641
C1    C     C_3   0.023163 0.239336 0.732340 -0.390888
C2    C     C_3   0.044793 0.751200 0.181096 -0.338230
C3    C     C_3   0.556533 0.754842 0.669075 -0.324210
C4    C     C_3   0.547680 0.251319 0.171548 -0.335946
C5    C     C_R   0.875433 0.395434 0.166054 0.053609
C6    C     C_R   0.875363 0.604365 0.667514 0.023519
C7    C     C_R   0.376321 0.894792 0.165333 -0.030944
C8    C     C_R   0.377404 0.105737 0.663609 -0.028053
C9    C     C_R   0.840830 0.357348 0.110257 -0.094582
C10   C     C_R   0.841288 0.642951 0.611139 -0.158958
C11   C     C_R   0.339119 0.859010 0.109645 -0.102068
C12   C     C_R   0.339758 0.141130 0.608298 -0.130901
C13   C     C_R   0.824700 0.322555 0.216937 -0.049632
C14   C     C_R   0.825237 0.677718 0.718389 -0.048036
C15   C     C_R   0.327322 0.820438 0.210458 0.058466
C16   C     C_R   0.328621 0.180209 0.707562 0.005705
C17   C     C_R   0.848067 0.322172 0.375696 -0.008114
C18   C     C_R   0.849179 0.678520 0.876483 0.006565
C19   C     C_R   0.355641 0.816069 0.363128 -0.017526
C20   C     C_R   0.356888 0.184754 0.859954 -0.043092
C21   C     C_R   0.885456 0.357046 0.426795 0.102913
C22   C     C_R   0.887042 0.643962 0.927106 0.061843
C23   C     C_R   0.391565 0.851927 0.418891 0.054683
C24   C     C_R   0.392375 0.148591 0.916867 0.088918
C25   C     C_R   0.796969 0.237013 0.153937 -0.079668
C26   C     C_R   0.797189 0.762553 0.646279 -0.077462
C27   C     C_R   0.293434 0.752216 0.031305 -0.034086
C28   C     C_R   0.297227 0.249200 0.529834 -0.035344
C29   C     C_R   0.255173 0.718050 0.977576 -0.022193
C30   C     C_R   0.260048 0.284246 0.475289 -0.028454
C31   C     C_R   0.759423 0.202193 0.100715 -0.020918
C32   C     C_R   0.759199 0.797078 0.593065 -0.021936
C33   C     C_R   0.208632 0.715289 0.049933 -0.004613
C34   C     C_R   0.212575 0.287134 0.542603 -0.008490
C35   C     C_R   0.707435 0.216439 0.052138 -0.010083
C36   C     C_R   0.706674 0.782900 0.555261 -0.014290
C37   C     C_R   0.202554 0.746436 0.175546 -0.046947
C38   C     C_R   0.204325 0.255063 0.663931 -0.061242
C39   C     C_R   0.695488 0.265516 0.054314 -0.064976
C40   C     C_R   0.694477 0.734190 0.568429 -0.055210
C41   C     C_R   0.733127 0.299545 0.108152 -0.057280
C42   C     C_R   0.732565 0.700491 0.622417 -0.043447
C43   C     C_R   0.240554 0.780447 0.226219 -0.009585
C44   C     C_R   0.241527 0.220363 0.716199 -0.035063
C45   C     C_3   0.008052 0.277289 0.172704 0.339707
C46   C     C_3   0.001164 0.729654 0.624083 0.341308
C47   C     C_3   0.502008 0.768662 0.106191 0.310218
C48   C     C_3   0.509994 0.233802 0.629360 0.333703
C49   C     C_R   0.784221 0.285737 0.159874 -0.004054
C50   C     C_R   0.784291 0.714236 0.662562 -0.011571
C51   C     C_R   0.286470 0.783856 0.154854 0.059977
C52   C     C_R   0.288440 0.217101 0.650087 0.078450
C53   C     C_R   0.139143 0.685103 0.841902 -0.111666
C54   C     C_R   0.146769 0.320097 0.329272 -0.166493
C55   C     C_R   0.639090 0.185338 0.841462 -0.146432
C56   C     C_R   0.637157 0.813187 0.346354 -0.151534
C57   C     C_R   0.103554 0.649966 0.782315 0.020851
C58   C     C_R   0.112457 0.356184 0.268859 0.052393
C59   C     C_R   0.603542 0.150137 0.781245 0.003725
C60   C     C_R   0.602564 0.849071 0.284683 0.019254
C61   C     C_R   0.118390 0.606706 0.031029 0.047609
C62   C     C_R   0.121058 0.395106 0.525879 0.054439
C63   C     C_R   0.618768 0.106525 0.030046 0.040982
C64   C     C_R   0.618823 0.893374 0.531290 0.039579
C65   C     C_R   0.152827 0.642909 0.092068 -0.154454
C66   C     C_R   0.155761 0.358879 0.585736 -0.149005
C67   C     C_R   0.652825 0.142876 0.091329 -0.151776
C68   C     C_R   0.652677 0.856904 0.593379 -0.157203
C69   C     C_R   0.165933 0.680889 0.994829 -0.031520
C70   C     C_R   0.171052 0.322487 0.485646 -0.025340
C71   C     C_R   0.665675 0.181208 0.994818 -0.019724
C72   C     C_R   0.664567 0.817874 0.498372 -0.018151
C73   C     C_R   0.098551 0.608276 0.870413 -0.214947
C74   C     C_R   0.104088 0.395716 0.362733 -0.166181
C75   C     C_R   0.598838 0.108269 0.869369 -0.200152
C76   C     C_R   0.598770 0.891434 0.370960 -0.199946
C77   C     C_3   0.010146 0.222850 0.195918 -0.384935
C78   C     C_3   0.964286 0.761943 0.517356 -0.353683
C79   C     C_3   0.467832 0.735884 0.992771 -0.277586
C80   C     C_3   0.475532 0.272226 0.540435 -0.279752
C81   C     C_3   0.187751 0.510283 0.060707 0.266750
C82   C     C_3   0.186589 0.492436 0.562684 0.265392
C83   C     C_3   0.683274 0.005171 0.058414 0.249549
C84   C     C_3   0.683425 0.994586 0.558761 0.250224
C85   C     C_3   0.244761 0.508958 0.128105 -0.214273
C86   C     C_3   0.243571 0.494126 0.630201 -0.212020
C87   C     C_3   0.736153 0.982642 0.110225 -0.222785
C88   C     C_3   0.736703 0.016016 0.611704 -0.224166
C89   C     C_3   0.812393 0.494303 0.887828 0.278686
C90   C     C_3   0.807475 0.508414 0.404819 0.157758
C91   C     C_3   0.307614 0.985125 0.897497 0.208050
C92   C     C_3   0.310268 0.011379 0.390795 0.073597
C93   C     C_3   0.757356 0.508632 0.919663 -0.170340
C94   C     C_3   0.755337 0.509815 0.473837 -0.190054
C95   C     C_3   0.263953 0.022696 0.894193 -0.159918
C96   C     C_3   0.264927 0.976055 0.397623 -0.245082
C97   C     C_3   0.004364 0.290654 0.710759 0.359103
C98   C     C_3   0.018678 0.703015 0.146362 0.324668
C99   C     C_3   0.525003 0.800259 0.634991 0.380705
C100  C     C_3   0.520325 0.203545 0.142712 0.356037
C101  C     C_R   0.893830 0.395861 0.328645 -0.202550
C102  C     C_R   0.894602 0.604420 0.830086 -0.231791
C103  C     C_R   0.397153 0.892932 0.326049 -0.195070
C104  C     C_R   0.398330 0.107662 0.824000 -0.199168
H1    H     H_    0.997047 0.305350 0.825439 0.099680
H2    H     H_    0.025750 0.681172 0.254709 0.134768
H3    H     H_    0.534780 0.824122 0.737560 0.124897
H4    H     H_    0.533828 0.179417 0.241522 0.132657
H5    H     H_    0.251273 0.479529 0.215557 0.111355
H6    H     H_    0.249537 0.522956 0.719913 0.111275
H7    H     H_    0.732989 0.957113 0.208375 0.116539
H8    H     H_    0.734044 0.041064 0.711497 0.116476
H9    H     H_    0.268782 0.501746 0.031354 0.086868
H10   H     H_    0.267442 0.502482 0.534049 0.087490
H11   H     H_    0.749132 0.962137 0.010891 0.087008
H12   H     H_    0.749991 0.036860 0.513658 0.087210
H13   H     H_    0.810833 0.460998 0.820179 0.136827
H14   H     H_    0.809158 0.474999 0.335663 0.050620
H15   H     H_    0.290159 0.949500 0.904375 0.052345
H16   H     H_    0.329770 0.002321 0.287573 0.119214
H17   H     H_    0.825476 0.521978 0.809605 -0.039515
H18   H     H_    0.811146 0.537310 0.319781 0.144882
H19   H     H_    0.324867 0.987930 0.786128 0.053814
H20   H     H_    0.294803 0.047902 0.372723 0.055417
H21   H     H_    0.733110 0.511937 0.805094 -0.058514
H22   H     H_    0.759483 0.486893 0.579943 -0.004350
H23   H     H_    0.242286 0.021948 0.775133 0.008845
H24   H     H_    0.249134 0.967270 0.275235 0.113145
H25   H     H_    0.035170 0.312270 0.665311 0.062213
H26   H     H_    0.036769 0.685046 0.050473 -0.025929
H27   H     H_    0.536849 0.817285 0.527484 -0.057520
H28   H     H_    0.531477 0.187680 0.032855 -0.056944
H29   H     H_    0.029238 0.223500 0.616831 0.112907
H30   H     H_    0.078930 0.746762 0.270568 0.119801
H31   H     H_    0.597229 0.764360 0.710865 0.074067
H32   H     H_    0.589613 0.246813 0.162840 0.076308
H33   H     H_    0.060378 0.238329 0.810351 0.122559
H34   H     H_    0.017733 0.776891 0.226897 0.149234
H35   H     H_    0.540935 0.733499 0.761528 0.149832
H36   H     H_    0.543096 0.264953 0.290276 0.158812
H37   H     H_    0.982172 0.211118 0.277146 0.099854
H38   H     H_    0.986016 0.791645 0.469486 0.137156
H39   H     H_    0.436383 0.719222 0.051674 0.111314
H40   H     H_    0.498985 0.298220 0.481179 0.143919
H41   H     H_    0.171715 0.639939 0.211399 0.092948
H42   H     H_    0.172757 0.360378 0.707414 0.090174
H43   H     H_    0.671261 0.140110 0.211248 0.089042
H44   H     H_    0.671599 0.860017 0.712630 0.089481
H45   H     H_    0.836667 0.226384 0.189795 0.120726
H46   H     H_    0.837292 0.773048 0.674058 0.118240
H47   H     H_    0.329077 0.754259 0.977384 0.096698
H48   H     H_    0.333596 0.247020 0.479868 0.101809
H49   H     H_    0.167837 0.744819 0.233677 0.083457
H50   H     H_    0.168505 0.256488 0.717016 0.078638
H51   H     H_    0.656594 0.277628 0.014817 0.101651
H52   H     H_    0.655071 0.722156 0.537714 0.084237
H53   H     H_    0.722328 0.336898 0.109626 0.125605
H54   H     H_    0.721596 0.663506 0.633636 0.116031
H55   H     H_    0.234217 0.804077 0.322354 0.144520
H56   H     H_    0.233827 0.195986 0.809033 0.078814
H57   H     H_    0.147450 0.714715 0.767579 0.137902
H58   H     H_    0.154292 0.290087 0.255245 0.087696
H59   H     H_    0.647082 0.215193 0.767628 0.103979
H60   H     H_    0.644685 0.782953 0.273495 0.077006
H61   H     H_    0.994032 0.217732 0.785978 0.127527
H62   H     H_    0.058542 0.766302 0.073881 0.121959
H63   H     H_    0.556322 0.732686 0.562295 0.147483
H64   H     H_    0.531166 0.278300 0.084689 0.119446
H65   H     H_    0.000752 0.204195 0.081476 0.137739
H66   H     H_    0.934010 0.777911 0.583085 0.081220
H67   H     H_    0.449618 0.756608 0.890250 0.155469
H68   H     H_    0.453451 0.292539 0.622414 0.069677
H69   H     H_    0.049657 0.211541 0.245974 0.116470
H70   H     H_    0.944835 0.741126 0.416767 0.149717
H71   H     H_    0.491191 0.706601 0.948973 0.112507
H72   H     H_    0.447517 0.255373 0.448708 0.139573
H73   H     H_    0.178789 0.476859 0.993591 0.069463
H74   H     H_    0.177008 0.526316 0.498719 0.072921
H75   H     H_    0.660750 0.979211 0.982533 0.100718
H76   H     H_    0.661422 0.021132 0.483526 0.099292
H77   H     H_    0.182188 0.540573 0.976847 -0.012703
H78   H     H_    0.181656 0.462969 0.475832 -0.014597
H79   H     H_    0.688482 0.038449 0.990909 -0.009405
H80   H     H_    0.688069 0.961405 0.490129 -0.008733
O1    O     O_2   0.898940 0.431940 0.867860 -0.462915
O2    O     O_2   0.898940 0.568060 0.367860 -0.441604
O3    O     O_2   0.398940 0.931940 0.867860 -0.495188
O4    O     O_2   0.398940 0.068060 0.367860 -0.459132
O5    O     O_3   0.155716 0.489402 0.687267 -0.651023
O6    O     O_3   0.156865 0.511593 0.185503 -0.650352
O7    O     O_3   0.657447 0.987217 0.691306 -0.657069
O8    O     O_3   0.657525 0.012716 0.191326 -0.657036
O9    O     O_3   0.044917 0.288742 0.068097 -0.630502
O10   O     O_3   0.037694 0.710928 0.528148 -0.577959
O11   O     O_3   0.539217 0.789397 0.017154 -0.624992
O12   O     O_3   0.535771 0.209174 0.516418 -0.594210
O13   O     O_3   0.058810 0.523750 0.066650 -0.504394
O14   O     O_3   0.058810 0.476250 0.566650 -0.500598
O15   O     O_3   0.558810 0.023750 0.066650 -0.501026
O16   O     O_3   0.558810 0.976250 0.566650 -0.500995
O17   O     O_3   0.941140 0.476130 0.123050 -0.505305
O18   O     O_3   0.941140 0.523870 0.623050 -0.497498
O19   O     O_3   0.441140 0.976130 0.123050 -0.481299
O20   O     O_3   0.441140 0.023870 0.623050 -0.482266
O21   O     O_3   0.982430 0.389880 0.635700 -0.468466
O22   O     O_3   0.982430 0.610120 0.135700 -0.510518
O23   O     O_3   0.482430 0.889880 0.635700 -0.507577
O24   O     O_3   0.482430 0.110120 0.135700 -0.511121
O25   O     O_2   0.904866 0.347994 0.762793 -0.517019
O26   O     O_2   0.908575 0.655587 0.262237 -0.479131
O27   O     O_2   0.408141 0.843119 0.754960 -0.505467
O28   O     O_2   0.404211 0.152480 0.251796 -0.472308
O29   O     O_3   0.846051 0.493212 0.029890 -0.641159
O30   O     O_3   0.847905 0.505562 0.529490 -0.654935
O31   O     O_3   0.346091 0.992956 0.024306 -0.633537
O32   O     O_3   0.345583 0.007872 0.527907 -0.670917
O33   O     O_3   0.958771 0.291543 0.605890 -0.614933
O34   O     O_3   0.965242 0.709294 0.101941 -0.625914
O35   O     O_3   0.471605 0.790000 0.613727 -0.600941
O36   O     O_3   0.466505 0.210496 0.131635 -0.614034
O37   O     O_2   0.100770 0.431440 0.821660 -0.456524
O38   O     O_2   0.100770 0.568560 0.321660 -0.452816
O39   O     O_2   0.600770 0.931440 0.821660 -0.451261
O40   O     O_2   0.600770 0.068560 0.321660 -0.451671
O41   O     O_3   0.017130 0.389790 0.053700 -0.480940
O42   O     O_3   0.017130 0.610210 0.553700 -0.487200
O43   O     O_3   0.517130 0.889790 0.053700 -0.476341
O44   O     O_3   0.517130 0.110210 0.553700 -0.472386
O45   O     O_2   0.100228 0.350843 0.939194 -0.497461
O46   O     O_2   0.102786 0.646538 0.459806 -0.490189
O47   O     O_2   0.604306 0.855189 0.965955 -0.481375
O48   O     O_2   0.602938 0.145605 0.458314 -0.484976
P1    P     P_3+3 0.893960 0.447890 0.040050 1.012908
P2    P     P_3+3 0.893960 0.552110 0.540050 0.991821
P3    P     P_3+3 0.393960 0.947890 0.040050 0.945105
P4    P     P_3+3 0.393960 0.052110 0.540050 0.956816
P5    P     P_3+3 0.105800 0.447360 0.649510 0.965954
P6    P     P_3+3 0.105800 0.552640 0.149510 0.951917
P7    P     P_3+3 0.605800 0.947360 0.649510 0.946055
P8    P     P_3+3 0.605800 0.052640 0.149510 0.947581
P9    P     P_3+3 0.068958 0.347799 0.081928 0.954101
P10   P     P_3+3 0.065368 0.655045 0.584813 0.952485
P11   P     P_3+3 0.565427 0.844798 0.085038 0.922460
P12   P     P_3+3 0.565428 0.154951 0.582255 0.943788
P13   P     P_3+3 0.934071 0.653753 0.108021 0.937574
P14   P     P_3+3 0.931176 0.348526 0.610375 0.990584
P15   P     P_3+3 0.435243 0.155001 0.108618 0.961312
P16   P     P_3+3 0.436737 0.844085 0.606119 0.927650
C105  C     C_3   0.261847 0.556269 0.206486 -0.384709
H81   H     H_    0.257211 0.585792 0.119073 0.110884
H82   H     H_    0.238603 0.564406 0.304285 0.129986
H83   H     H_    0.303240 0.553924 0.255174 0.138655
C106  C     C_3   0.261577 0.446492 0.704819 -0.391302
H84   H     H_    0.257440 0.417599 0.615137 0.110421
H85   H     H_    0.302943 0.449113 0.753480 0.135759
H86   H     H_    0.238568 0.437230 0.802115 0.128954
C107  C     C_3   0.776853 0.020347 0.162193 -0.358735
H87   H     H_    0.786197 0.041066 0.058408 0.142584
H88   H     H_    0.762589 0.045188 0.248635 0.140277
H89   H     H_    0.812744 0.002717 0.217166 0.143012
C108  C     C_3   0.776764 0.977404 0.661060 -0.360293
H90   H     H_    0.785724 0.957158 0.555835 0.146430
H91   H     H_    0.812959 0.994166 0.717099 0.142855
H92   H     H_    0.762102 0.952281 0.745858 0.137020
C109  C     C_2   0.731240 0.471328 0.009977 0.529235
H93   H     H_    0.690252 0.474878 0.020651 0.060255
O49   O     O_2   0.754793 0.436932 0.069633 -0.613783
C110  C     C_2   0.712203 0.486435 0.367000 0.528750
H94   H     H_    0.716138 0.449116 0.336384 0.011594
O50   O     O_2   0.672283 0.507450 0.319038 -0.494905
C111  C     C_2   0.225406 0.011024 0.006408 0.525527
H95   H     H_    0.221546 0.033687 0.107521 0.004289
O51   O     O_2   0.197778 0.975869 0.984478 -0.512872
C112  C     C_2   0.221420 0.998249 0.474001 0.490881
H96   H     H_    0.222582 0.035751 0.506508 0.008434
O52   O     O_2   0.183146 0.974855 0.494082 -0.495280
C113  C     C_2   0.757594 0.557370 0.995485 0.511059
H97   H     H_    0.779296 0.586166 0.949124 -0.008046
O53   O     O_2   0.732935 0.565626 0.105533 -0.516231
C114  C     C_2   0.743392 0.559847 0.525440 0.681113
H98   H     H_    0.762754 0.573396 0.635545 -0.151030
O54   O     O_2   0.713699 0.586082 0.444254 -0.490346
C115  C     C_2   0.283892 0.072756 0.921100 0.411982
H99   H     H_    0.278202 0.098542 0.826156 0.007765
O55   O     O_2   0.305687 0.085015 0.049036 -0.591594
C116  C     C_2   0.281640 0.929763 0.478223 0.604629
H100  H     H_    0.302168 0.929516 0.595943 -0.021312
O56   O     O_2   0.271148 0.891780 0.412463 -0.579436
C117  C     C_2   0.265129 0.684634 0.849398 0.486214
H101  H     H_    0.238781 0.655462 0.815813 -0.019975
O57   O     O_2   0.303314 0.689050 0.779955 -0.580497
C118  C     C_2   0.272156 0.318463 0.351872 0.478019
H102  H     H_    0.247132 0.348793 0.320213 -0.014555
O58   O     O_2   0.310650 0.313386 0.284185 -0.584312
C119  C     C_2   0.775849 0.151614 0.089412 0.473581
H103  H     H_    0.750035 0.125360 0.029639 -0.027274
O59   O     O_2   0.818902 0.138607 0.145671 -0.582079
C120  C     C_2   0.775525 0.847186 0.570848 0.474727
H104  H     H_    0.748682 0.873112 0.513397 -0.025978
O60   O     O_2   0.819615 0.860157 0.615333 -0.581066
C121  C     C_2   0.822980 0.349447 0.941680 0.592695
H105  H     H_    0.823608 0.313495 0.894392 -0.028174
O61   O     O_2   0.804316 0.381143 0.856339 -0.584937
C122  C     C_2   0.823992 0.651466 0.441715 0.573024
H106  H     H_    0.819261 0.687856 0.398653 -0.011042
O62   O     O_2   0.812970 0.619280 0.348901 -0.570321
C123  C     C_2   0.310661 0.862808 0.949186 0.466623
H107  H     H_    0.329582 0.875323 0.851487 0.040175
O63   O     O_2   0.264538 0.853675 0.924821 -0.526208
C124  C     C_2   0.309114 0.135697 0.451788 0.436171
H108  H     H_    0.326817 0.123184 0.351804 0.108676
O64   O     O_2   0.262666 0.143816 0.433575 -0.582958
C125  C     C_3   0.833107 0.285707 0.493048 -0.357588
H109  H     H_    0.797046 0.266218 0.452246 0.119274
H110  H     H_    0.864729 0.259267 0.519264 0.139128
H111  H     H_    0.825635 0.303926 0.603342 0.131558
C126  C     C_3   0.835061 0.715591 0.993221 -0.354621
H112  H     H_    0.800114 0.736602 0.951082 0.117011
H113  H     H_    0.826384 0.697631 0.102778 0.137926
H114  H     H_    0.867708 0.740783 0.021297 0.135448
C127  C     C_3   0.349253 0.773063 0.466808 -0.328279
H115  H     H_    0.321254 0.746334 0.413558 0.109451
H116  H     H_    0.386654 0.753950 0.491309 0.160851
H117  H     H_    0.336038 0.784891 0.579522 0.151813
C128  C     C_3   0.350054 0.227779 0.963265 -0.333103
H118  H     H_    0.321270 0.254014 0.910673 0.110746
H119  H     H_    0.337493 0.215945 0.076810 0.154341
H120  H     H_    0.387077 0.247455 0.985938 0.143998
C129  C     C_3   0.080134 0.563333 0.784923 -0.232099
H121  H     H_    0.099233 0.531576 0.839536 0.119021
H122  H     H_    0.037837 0.559457 0.782335 0.124066
H123  H     H_    0.091714 0.562606 0.664202 0.141457
C130  C     C_3   0.080558 0.439579 0.283344 -0.219499
H124  H     H_    0.098396 0.471836 0.337825 0.116489
H125  H     H_    0.089108 0.441595 0.159550 0.132181
H126  H     H_    0.038381 0.440309 0.289067 0.137054
C131  C     C_3   0.580337 0.063343 0.784250 -0.229107
H127  H     H_    0.599851 0.031766 0.838535 0.107073
H128  H     H_    0.538045 0.059369 0.783209 0.126446
H129  H     H_    0.591620 0.062565 0.663195 0.137357
C132  C     C_3   0.580833 0.936419 0.284570 -0.230179
H130  H     H_    0.600293 0.967970 0.338904 0.106489
H131  H     H_    0.592547 0.936887 0.164017 0.138894
H132  H     H_    0.538521 0.940774 0.282015 0.127247
C133  C     C_3   0.920387 0.438917 0.403432 -0.207557
H133  H     H_    0.902873 0.471647 0.350897 0.122090
H134  H     H_    0.914107 0.441711 0.528822 0.147747
H135  H     H_    0.962198 0.437823 0.391469 0.129496
C134  C     C_3   0.922697 0.562067 0.905910 -0.226456
H136  H     H_    0.915038 0.558836 0.030147 0.156444
H137  H     H_    0.908192 0.528313 0.854958 0.127535
H138  H     H_    0.964536 0.564736 0.895907 0.106234
C135  C     C_3   0.421433 0.936423 0.405796 -0.225328
H139  H     H_    0.404672 0.969269 0.353570 0.121967
H140  H     H_    0.412178 0.938705 0.528849 0.149341
H141  H     H_    0.463634 0.936589 0.399366 0.113776
C136  C     C_3   0.420545 0.063357 0.904494 -0.194513
H142  H     H_    0.411499 0.061637 0.027770 0.174545
H143  H     H_    0.401635 0.031322 0.851542 0.120443
H144  H     H_    0.462728 0.061376 0.898803 0.103622
C137  C     C_3   0.952908 0.290329 0.099248 -0.299079
H145  H     H_    0.949495 0.328924 0.072545 0.130833
H146  H     H_    0.942150 0.270211 0.988367 0.094643
H147  H     H_    0.924431 0.281160 0.181677 0.060764
C138  C     C_3   0.967728 0.692231 0.696708 -0.388841
H148  H     H_    0.990866 0.669740 0.785777 0.036649
H149  H     H_    0.937771 0.710427 0.757586 0.069706
H150  H     H_    0.947871 0.669425 0.602470 0.136166
C139  C     C_3   0.465922 0.804554 0.175121 -0.308303
H151  H     H_    0.486907 0.826924 0.268762 0.020681
H152  H     H_    0.446648 0.827593 0.080225 0.125785
H153  H     H_    0.435667 0.784841 0.229448 0.086194
C140  C     C_3   0.473713 0.201593 0.713173 -0.394979
H154  H     H_    0.494822 0.173535 0.785761 0.033297
H155  H     H_    0.452325 0.223389 0.792784 0.071900
H156  H     H_    0.445397 0.183906 0.624623 0.129114
C141  C     C_2   0.020209 0.299745 0.332905 0.468564
H157  H     H_    0.047662 0.282673 0.420564 -0.050615
O65   O     O_2   0.003044 0.339031 0.360224 -0.648956
C142  C     C_2   0.027620 0.761067 0.751835 0.494430
H158  H     H_    0.005471 0.775046 0.841688 -0.013061
O66   O     O_2   0.072618 0.773243 0.751390 -0.555574
C143  C     C_2   0.528842 0.737756 0.235119 0.479734
H159  H     H_    0.570637 0.736756 0.256449 -0.016780
O67   O     O_2   0.503688 0.712404 0.314209 -0.580674
C144  C     C_2   0.549315 0.258443 0.745206 0.504386
H160  H     H_    0.556712 0.245606 0.864183 -0.078803
O68   O     O_2   0.575613 0.291181 0.703688 -0.576502

loop_
_geom_bond_atom_site_label_1
_geom_bond_atom_site_label_2
_ccdc_geom_bond_type
C18   C126  S    
C135  H139  S    
C83   C87   S    
C48   C140  S    
Ba2   O14   S    
O1    P1    D    
O12   P12   S    
C130  H124  S    
C46   O10   S    
C21   C101  A    
C129  H121  S    
C98   O34   S    
Ba4   O44   S    
C114  H98   S    
C89   H13   S    
C3    H63   S    
C82   O5    S    
C91   C95   S    
C46   C142  S    
C15   C51   S    
O31   P3    S    
C48   C80   S    
C41   H53   S    
C140  H156  S    
C96   C116  S    
O36   P15   S    
C99   O35   S    
C7    C11   A    
C78   H66   S    
C110  H94   S    
C66   H42   S    
C66   C70   A    
C91   O31   S    
C115  O55   D    
O22   P13   S    
O42   P10   S    
C46   C138  S    
C81   H77   S    
Ba3   O16   S    
C74   C130  S    
Ba1   O14   S    
C134  H137  S    
C40   C42   A    
C136  H144  S    
C1    C97   S    
C61   C73   A    
C63   C75   A    
C82   C86   S    
C139  H153  S    
C8    C104  A    
C58   P9    S    
C144  O68   D    
C124  H108  S    
C92   O32   S    
C56   C72   A    
C13   C17   A    
C36   C72   S    
C28   C30   A    
C125  H111  S    
C15   C19   A    
C22   P13   S    
O40   P8    D    
C12   C16   A    
C78   H70   S    
O18   P2    S    
O24   P15   S    
C53   C57   A    
C4    C100  S    
C30   C118  S    
C90   H14   S    
C118  H102  S    
C135  H141  S    
C109  O49   D    
C141  H157  S    
O30   P2    S    
C143  H159  S    
C47   C79   S    
O16   P7    S    
C55   H59   S    
Ba2   O38   S    
C107  H88   S    
C129  H123  S    
C76   C132  S    
C17   C125  S    
O43   P11   S    
Ba2   O2    S    
C142  O66   D    
C63   P8    S    
C96   H24   S    
C1    H29   S    
C44   H56   S    
C97   H25   S    
C25   C31   A    
C55   C59   A    
C26   C32   A    
C4    H32   S    
C102  C134  S    
C137  H145  S    
O45   P9    D    
C62   C66   A    
C24   C104  A    
O9    P9    S    
C2    C98   S    
C24   P15   S    
C8    P4    S    
O33   P14   S    
C126  H112  S    
O32   P4    S    
C106  H85   S    
C97   H1    S    
O35   P16   S    
C133  H133  S    
O48   P12   D    
C16   C52   S    
C3    H35   S    
C45   O9    S    
C26   C50   A    
C101  C133  S    
C45   C137  S    
C39   H51   S    
C83   H75   S    
C107  H87   S    
O4    P4    D    
C5    C101  A    
C80   H72   S    
C106  H84   S    
C53   C69   A    
C127  H116  S    
C5    C9    A    
C28   H48   S    
C57   C73   A    
C121  O61   D    
C48   O12   S    
C35   C71   S    
C45   C141  S    
C87   C107  S    
O21   P14   S    
O41   P9    S    
C86   H6    S    
C41   C49   A    
C3    C99   S    
C128  H119  S    
C122  O62   D    
C129  H122  S    
C131  H128  S    
Ba3   O23   S    
C120  O60   D    
Ba1   O21   S    
C8    C12   A    
C6    C10   A    
C137  H147  S    
Ba3   O43   S    
C100  H4    S    
C104  C136  S    
Ba4   O15   S    
C83   H79   S    
O15   P8    S    
Ba1   P1    S    
C57   P10   S    
O13   P6    S    
O44   P12   S    
C77   H65   S    
C117  H101  S    
C93   C113  S    
Ba2   P6    S    
C19   C127  S    
C26   H46   S    
C126  H114  S    
O26   P13   D    
C37   C43   A    
C38   C44   A    
Ba1   O18   S    
C39   C41   A    
C47   O11   S    
C85   H9    S    
C133  H135  S    
C123  O63   D    
C5    P1    S    
C87   H11   S    
C6    C102  A    
C132  H131  S    
Ba3   Ba4   S    
O29   P1    S    
C54   C70   A    
C82   H74   S    
C2    H62   S    
C91   H15   S    
C17   C21   A    
C81   H73   S    
C100  H28   S    
C14   C18   A    
O5    P5    S    
C58   C74   A    
C20   C24   A    
C143  O67   D    
C107  H89   S    
C62   P5    S    
C113  O53   D    
C77   H37   S    
C79   H71   S    
C106  H86   S    
C138  H150  S    
C114  O54   D    
C88   H12   S    
C77   H69   S    
C93   C109  S    
O28   P15   D    
C92   C96   S    
C118  O58   D    
C33   C37   A    
C54   H58   S    
C140  H155  S    
Ba2   O42   S    
C36   C40   A    
C110  O50   D    
C47   C143  S    
C112  H96   S    
Ba4   P8    S    
C138  H149  S    
Ba1   O1    S    
C54   C58   A    
C89   C93   S    
Ba3   O15   S    
Ba4   O4    S    
C111  H95   S    
O2    P2    D    
Ba1   O13   S    
C22   C102  A    
C134  H136  S    
C12   C124  S    
C11   C15   A    
C136  H143  S    
C9    C121  S    
C86   H10   S    
C43   C51   A    
C139  H152  S    
C34   C70   S    
C94   C114  S    
C81   O6    S    
C53   H57   S    
C90   C94   S    
C64   P7    S    
C124  O64   D    
C92   H20   S    
C99   H3    S    
C116  H100  S    
C45   C77   S    
C125  H110  S    
O7    P7    S    
C130  H125  S    
C67   H43   S    
C68   H44   S    
C65   C69   A    
O23   P16   S    
C2    H34   S    
O19   P3    S    
C43   H55   S    
C103  C135  S    
C135  H140  S    
C109  H93   S    
C60   C76   A    
C84   O7    S    
C38   H50   S    
Ba2   O13   S    
C78   H38   S    
C85   H5    S    
C80   H40   S    
C62   C74   A    
Ba3   O39   S    
C108  H91   S    
C81   C85   S    
C94   C110  S    
C29   C33   A    
C31   C35   A    
C23   P16   S    
C105  H83   S    
C48   C144  S    
C21   P14   S    
C115  H99   S    
C23   C103  A    
C42   C50   A    
Ba4   P4    S    
O17   P1    S    
C37   H49   S    
C88   C108  S    
C82   H78   S    
C130  H126  S    
O27   P16   D    
C40   H52   S    
C98   H2    S    
C13   C49   S    
C134  H138  S    
C46   C78   S    
Ba4   O19   S    
C61   P6    S    
Ba1   O37   S    
C95   C111  S    
C96   C112  S    
C10   C122  S    
C27   H47   S    
C32   C120  S    
C144  H160  S    
C95   C115  S    
C31   C119  S    
C65   H41   S    
O46   P10   D    
C105  H81   S    
O10   P10   S    
C61   C65   A    
C87   H7    S    
C63   C67   A    
Ba4   O40   S    
C97   O33   S    
C127  H115  S    
C89   H17   S    
C84   H76   S    
C9    C13   A    
C91   H19   S    
C121  H105  S    
C18   C22   A    
C141  O65   D    
C1    H61   S    
C27   C51   A    
C80   H68   S    
C86   C106  S    
C28   C52   A    
C4    H64   S    
Ba3   P3    S    
C64   C76   A    
C3    H31   S    
C123  H107  S    
C79   H67   S    
C128  H118  S    
C10   C14   A    
C90   O30   S    
C68   C72   A    
C142  H158  S    
O20   P4    S    
C59   C75   A    
C131  H127  S    
C59   P12   S    
C56   H60   S    
O8    P8    S    
Ba3   O20   S    
C89   O29   S    
C111  O51   D    
C83   O8    S    
C34   C38   A    
C137  H146  S    
O39   P7    D    
Ba4   O16   S    
C7    P3    S    
C75   C131  S    
O38   P6    D    
Ba1   Ba2   S    
O37   P5    D    
C99   H27   S    
C84   C88   S    
C126  H113  S    
C27   C29   A    
C19   C23   A    
C108  H90   S    
C64   C68   A    
C133  H134  S    
C85   C105  S    
C94   H22   S    
O47   P11   D    
C47   C139  S    
C56   C60   A    
C90   H18   S    
O3    P3    D    
Ba2   O22   S    
C92   H16   S    
C16   C20   A    
C32   C36   A    
C105  H82   S    
C119  H103  S    
Ba2   P2    S    
C35   C39   A    
C113  H97   S    
O14   P5    S    
C132  H132  S    
C2    H30   S    
C127  H117  S    
C98   H26   S    
Ba3   O3    S    
C88   H8    S    
C1    H33   S    
O25   P14   D    
C4    H36   S    
Ba2   O17   S    
Ba3   P7    S    
C119  O59   D    
C140  H154  S    
Ba1   P5    S    
C79   H39   S    
C6    P2    S    
C73   C129  S    
C7    C103  A    
C128  H120  S    
C112  O52   D    
C20   C128  S    
C55   C71   A    
C122  H106  S    
C25   H45   S    
C138  H148  S    
C131  H129  S    
C44   C52   A    
C33   C69   S    
C120  H104  S    
O6    P6    S    
C30   C34   A    
O11   P11   S    
C136  H142  S    
Ba4   O24   S    
C95   H23   S    
C93   H21   S    
C117  O57   D    
C139  H151  S    
C67   C71   A    
C60   P11   S    
C25   C49   A    
C100  O36   S    
C116  O56   D    
C125  H109  S    
C108  H92   S    
C14   C50   S    
O34   P13   S    
Ba1   O41   S    
C84   H80   S    
C42   H54   S    
C132  H130  S    
C29   C117  S    
C11   C123  S    
