data_mof_unit_29539.cif
_audit_creation_date              2012-12-10T20:41:02-0500
_audit_creation_method            fapswitch 2.2
_symmetry_space_group_name_H-M    P1
_symmetry_Int_Tables_number       1
_space_group_crystal_system       triclinic
_cell_length_a                    27.72146
_cell_length_b                    10.69978
_cell_length_c                    9.877317
_cell_angle_alpha                 90.443292
_cell_angle_beta                  90.104943
_cell_angle_gamma                 90.131599
_cell_volume                      2929.64537158

loop_
_atom_site_label
_atom_site_type_symbol
_atom_type_description
_atom_site_fract_x
_atom_site_fract_y
_atom_site_fract_z
_atom_type_partial_charge
C1    C     C_R   0.500092 0.260129 0.499710 0.893154
C2    C     C_R   0.974519 0.399829 0.556550 0.052084
C3    C     C_R   0.974623 0.621594 0.488005 -0.012330
C4    C     C_R   0.406035 0.500555 0.499909 0.874691
C5    C     C_R   0.949317 0.510150 0.520502 0.062267
C6    C     C_R   0.947965 0.289118 0.579206 -0.210340
C7    C     C_R   0.898045 0.287850 0.570858 -0.131395
C8    C     C_R   0.872870 0.397169 0.541337 -0.018985
C9    C     C_R   0.898339 0.508941 0.517468 -0.053202
C10   C     C_R   0.872724 0.619403 0.490765 -0.042945
C11   C     C_R   0.822282 0.615646 0.486052 0.515848
C12   C     C_R   0.277530 0.490200 0.378628 -0.095044
C13   C     C_R   0.822494 0.397521 0.534923 0.504844
C14   C     C_R   0.722622 0.511300 0.381489 -0.099508
C15   C     C_R   0.672477 0.509458 0.379454 -0.217076
C16   C     C_R   0.500190 0.739663 0.500197 0.886036
C17   C     C_R   0.671645 0.494387 0.624884 -0.217147
C18   C     C_R   0.721702 0.495946 0.626490 -0.102004
C19   C     C_R   0.747145 0.504430 0.504971 0.320251
C20   C     C_R   0.025372 0.403149 0.566669 0.044238
C21   C     C_R   0.050556 0.508124 0.516035 0.078193
C22   C     C_R   0.025268 0.614284 0.468841 0.039803
C23   C     C_R   0.252770 0.503938 0.501013 0.314472
C24   C     C_R   0.052079 0.304278 0.623856 -0.208678
C25   C     C_R   0.101214 0.702348 0.389171 -0.134754
C26   C     C_R   0.947907 0.734962 0.478021 -0.016977
C27   C     C_R   0.897674 0.731853 0.475288 -0.174709
C28   C     C_R   0.593961 0.500130 0.500206 0.869956
C29   C     C_R   0.051250 0.705839 0.396933 -0.198294
C30   C     C_R   0.526622 0.064567 0.600343 0.138863
C31   C     C_R   0.502733 0.128082 0.497530 -0.108158
C32   C     C_R   0.483732 0.062803 0.386567 -0.224475
C33   C     C_R   0.484174 0.934281 0.385840 -0.214971
C34   C     C_R   0.101504 0.506109 0.510353 -0.054973
C35   C     C_R   0.502830 0.871323 0.497875 -0.095572
C36   C     C_R   0.526644 0.936536 0.600516 0.125347
C37   C     C_3   0.520560 0.930165 0.750465 -0.464861
C38   C     C_3   0.520268 0.071787 0.750397 -0.494616
C39   C     C_R   0.458977 0.473299 0.069833 0.089686
C40   C     C_R   0.177591 0.405890 0.560207 0.507412
C41   C     C_R   0.539581 0.536826 0.072473 -0.139832
C42   C     C_R   0.539714 0.535882 0.928605 -0.134350
C43   C     C_R   0.458311 0.478395 0.927617 0.131473
C44   C     C_3   0.426065 0.367516 0.912503 -0.548389
C45   C     C_R   0.127189 0.404979 0.565115 -0.023776
C46   C     C_3   0.429545 0.354798 0.065802 0.368942
C47   C     C_R   0.177181 0.601819 0.446013 0.508238
C48   C     C_R   0.278114 0.517718 0.622711 -0.098953
C49   C     C_R   0.328193 0.516918 0.622358 -0.216457
C50   C     C_R   0.327652 0.489703 0.377949 -0.211086
C51   C     C_1   0.969737 0.857499 0.489725 0.154371
C52   C     C_3   0.500585 0.225233 0.069184 -0.266375
C53   C     C_R   0.102143 0.305709 0.623594 -0.128484
C54   C     C_R   0.126767 0.604757 0.448832 -0.022209
C55   C     C_R   0.353323 0.502259 0.499995 -0.038754
C56   C     C_R   0.646666 0.501104 0.501301 -0.037240
H1    H     H_    0.346182 0.479116 0.282274 0.147499
H2    H     H_    0.485434 0.888659 0.780956 0.219278
H3    H     H_    0.257869 0.479523 0.284388 0.143454
H4    H     H_    0.552764 0.890162 0.801297 0.203690
H5    H     H_    0.484831 0.111445 0.780174 0.214572
H6    H     H_    0.552155 0.113825 0.801901 0.200137
H7    H     H_    0.571799 0.564675 0.126756 0.149596
H8    H     H_    0.572087 0.562611 0.875165 0.146870
H9    H     H_    0.389415 0.394827 0.878321 0.165456
H10   H     H_    0.441851 0.290198 0.852038 0.221047
H11   H     H_    0.393988 0.367762 0.115443 0.087550
H12   H     H_    0.258904 0.529219 0.717350 0.142786
H13   H     H_    0.121134 0.227908 0.668514 0.193818
H14   H     H_    0.654024 0.514911 0.282950 0.152723
H15   H     H_    0.742477 0.517700 0.287472 0.138598
H16   H     H_    0.879250 0.200516 0.588063 0.194423
H17   H     H_    0.964925 0.200633 0.599194 0.162718
H18   H     H_    0.035206 0.225799 0.672783 0.152463
H19   H     H_    0.347122 0.528551 0.717553 0.156661
H20   H     H_    0.525537 0.265315 0.145715 0.201333
H21   H     H_    0.509477 0.263874 0.968704 0.152035
H22   H     H_    0.507876 0.123431 0.063932 0.175366
H23   H     H_    0.119675 0.775997 0.335108 0.193889
H24   H     H_    0.652611 0.487819 0.720233 0.154348
H25   H     H_    0.877992 0.818803 0.464826 0.196831
H26   H     H_    0.740828 0.490793 0.721984 0.137874
H27   H     H_    0.033442 0.778213 0.340347 0.163263
H28   H     H_    0.465616 0.110233 0.305445 0.232161
H29   H     H_    0.467174 0.884760 0.302260 0.178072
N1    N     N_R   0.201350 0.503751 0.502056 -0.357351
N2    N     N_R   0.798498 0.505689 0.507406 -0.358596
N3    N     N_R   0.499670 0.499140 0.142800 -0.105341
N4    N     N_R   0.499670 0.499180 0.857150 -0.096977
N5    N     N_1   0.987032 0.955733 0.499476 -0.218856
O1    O     O_R   0.500010 0.316790 0.614690 -0.623826
O2    O     O_R   0.571250 0.500000 0.614690 -0.630140
O3    O     O_R   0.571240 0.499960 0.385340 -0.632718
O4    O     O_2   0.202755 0.309544 0.612141 -0.553524
O5    O     O_3   0.451977 0.242369 0.110088 -0.595360
O6    O     O_2   0.797569 0.290848 0.555712 -0.551503
O7    O     O_2   0.201948 0.696658 0.389259 -0.553839
O8    O     O_2   0.797093 0.720905 0.461403 -0.551287
O9    O     O_R   0.500000 0.316760 0.385350 -0.602988
O10   O     O_R   0.428760 0.500040 0.614660 -0.616937
O11   O     O_R   0.428750 0.500000 0.385310 -0.624030
O12   O     O_R   0.500000 0.683240 0.614650 -0.616128
O13   O     O_R   0.499990 0.683210 0.385310 -0.620013
Zn1   Zn    Zn3+2 0.500000 0.500020 0.653130 0.946853
Zn2   Zn    Zn3+2 0.500000 0.499980 0.346870 0.960799

loop_
_geom_bond_atom_site_label_1
_geom_bond_atom_site_label_2
_ccdc_geom_bond_type
C10   C27   A    
C8    C13   A    
C22   C29   A    
C14   H15   S    
C44   H10   S    
C35   C36   A    
O10   Zn1   S    
O1    Zn1   S    
C53   H13   S    
C1    O9    A    
C28   C56   S    
C7    C8    A    
C12   C23   A    
C26   C27   A    
C43   N4    A    
N4    Zn1   S    
C11   O8    S    
C36   C37   S    
C29   H27   S    
C19   N2    S    
C16   C35   S    
C30   C31   A    
C33   C35   A    
C1    C31   S    
C30   C38   S    
C52   O5    S    
C18   C19   A    
C41   C42   A    
C40   N1    A    
C15   H14   S    
C33   H29   S    
O3    Zn2   S    
C12   H3    S    
C46   O5    S    
C20   C24   A    
C11   N2    A    
C8    C9    A    
C23   N1    S    
C49   H19   S    
C9    C10   A    
C37   H2    S    
C38   H5    S    
C45   C53   A    
C1    O1    A    
C21   C22   A    
O11   Zn2   S    
C44   H9    S    
C2    C6    A    
C39   N3    A    
C52   H22   S    
C44   C46   S    
C25   C29   A    
C40   C45   A    
C32   H28   S    
C13   O6    S    
C2    C20   A    
C47   N1    A    
C27   H25   S    
C25   C54   A    
O13   Zn2   S    
C7    H16   S    
C39   C43   A    
C21   C34   A    
C52   H20   S    
C24   C53   A    
C49   C55   A    
C17   H24   S    
C28   O3    A    
C43   C44   S    
C5    C9    A    
C37   C38   S    
C16   O13   A    
C31   C32   A    
C4    O11   A    
C13   N2    A    
C17   C18   A    
C28   O2    A    
C34   C45   A    
C48   H12   S    
O12   Zn1   S    
C17   C56   A    
C47   C54   A    
C16   O12   A    
C48   C49   A    
C34   C54   A    
C39   C46   S    
C4    C55   S    
C2    C5    A    
C41   H7    S    
C52   H21   S    
C42   H8    S    
C6    H17   S    
C41   N3    A    
C23   C48   A    
C25   H23   S    
C50   H1    S    
C14   C19   A    
C3    C26   A    
C40   O4    S    
C3    C5    A    
C12   C50   A    
C6    C7    A    
C50   C55   A    
C47   O7    S    
C30   C36   A    
C42   N4    A    
C15   C56   A    
C4    O10   A    
C46   H11   S    
C51   N5    T    
C26   C51   S    
C32   C33   A    
N3    Zn2   S    
C24   H18   S    
C18   H26   S    
O9    Zn2   S    
C37   H4    S    
C10   C11   A    
O2    Zn1   S    
C20   C21   A    
C14   C15   A    
C3    C22   A    
C38   H6    S    
