data_mof_unit_67542.cif
_audit_creation_date              2013-03-05T15:41:21-0500
_audit_creation_method            fapswitch 2.2
_symmetry_space_group_name_H-M    P1
_symmetry_Int_Tables_number       1
_space_group_crystal_system       triclinic
_cell_length_a                    10.744708
_cell_length_b                    8.851045
_cell_length_c                    7.64748
_cell_angle_alpha                 103.015051
_cell_angle_beta                  94.641442
_cell_angle_gamma                 93.796261
_cell_volume                      703.608103478

loop_
_atom_site_label
_atom_site_type_symbol
_atom_site_description
_atom_site_fract_x
_atom_site_fract_y
_atom_site_fract_z
_atom_type_partial_charge
O1    O     O_R   0.509190 0.286130 0.619780 -0.558985
O2    O     O_R   0.490810 0.713870 0.380220 -0.532307
O3    O     O_R   0.485310 0.256770 0.308360 -0.626904
O4    O     O_R   0.514690 0.743230 0.691640 -0.570151
C1    C     C_R   0.498135 0.201807 0.454159 0.854308
C2    C     C_R   0.508445 0.799135 0.544631 0.741301
O5    O     O_R   0.328790 0.514640 0.655680 -0.513377
O6    O     O_R   0.671210 0.485360 0.344320 -0.561728
O7    O     O_R   0.304910 0.485280 0.344260 -0.585987
O8    O     O_R   0.695090 0.514720 0.655740 -0.599879
C3    C     C_R   0.260128 0.487424 0.500148 0.862745
C4    C     C_R   0.739980 0.515042 0.500010 0.907770
Cu1   Cu    Cu3+1 0.514140 0.517380 0.684380 1.069323
Cu2   Cu    Cu3+1 0.485860 0.482620 0.315620 1.061356
N1    N     N_2   0.464560 0.456420 0.038510 0.145449
N2    N     N_2   0.535440 0.543580 0.961490 0.130815
C5    C     C_3   0.034224 0.432174 0.632257 0.328541
C6    C     C_3   0.968665 0.581716 0.374337 0.263911
C7    C     C_3   0.937543 0.363727 0.468163 0.274501
C8    C     C_3   0.066449 0.644322 0.539274 0.312501
C9    C     C_3   0.877520 0.520589 0.495123 -0.350476
C10   C     C_3   0.123490 0.486924 0.505116 -0.353879
C11   C     C_3   0.973664 0.588043 0.657676 0.396033
C12   C     C_3   0.023741 0.422034 0.340263 0.280430
C13   C     C_2   0.485743 0.034873 0.429292 -0.228622
C14   C     C_2   0.533883 0.965515 0.560324 -0.257124
O9    O     O_3   0.859008 0.223348 0.440191 -0.543304
C15   C     C_3   0.915236 0.092822 0.347026 -0.253227
H1    H     H_    0.017771 0.112876 0.339991 0.169667
H2    H     H_    0.867542 0.052127 0.209090 0.154859
H3    H     H_    0.899356 0.995730 0.414583 0.185047
O10   O     O_3   0.138213 0.783758 0.629283 -0.591072
C16   C     C_3   0.193942 0.858475 0.510953 -0.298271
H4    H     H_    0.122178 0.901924 0.427201 0.193905
H5    H     H_    0.258297 0.783733 0.433827 0.180345
H6    H     H_    0.253481 0.960720 0.590765 0.163520
O11   O     O_3   0.077842 0.372559 0.779270 -0.550361
C17   C     C_3   0.090798 0.213170 0.721882 -0.204759
H7    H     H_    0.154562 0.189980 0.613356 0.137741
H8    H     H_    0.998193 0.147012 0.683279 0.179013
H9    H     H_    0.129777 0.171111 0.838211 0.195666
O12   O     O_3   0.943610 0.666229 0.242869 -0.631740
C18   C     C_3   0.049765 0.674727 0.145948 -0.147451
H10   H     H_    0.139533 0.652624 0.211642 0.158240
H11   H     H_    0.060877 0.790483 0.113446 0.202750
H12   H     H_    0.038941 0.582591 0.023233 0.270492
O13   O     O_3   0.935242 0.684788 0.813601 -0.616265
C19   C     C_3   0.917764 0.836613 0.789488 -0.286432
H13   H     H_    0.875983 0.837690 0.651787 0.160701
H14   H     H_    0.006410 0.912346 0.827438 0.216325
H15   H     H_    0.855021 0.893733 0.885768 0.134185
O14   O     O_3   0.041700 0.333220 0.167541 -0.560581
C20   C     C_3   0.924295 0.295017 0.060550 -0.149345
H16   H     H_    0.909057 0.375479 0.971396 0.219610
H17   H     H_    0.840432 0.296733 0.136530 0.158492
H18   H     H_    0.923349 0.176303 0.974740 0.138755
O15   O     O_3   0.375697 0.363700 0.922058 -0.472115
C21   C     C_3   0.371046 0.217296 0.962419 -0.042392
H19   H     H_    0.308756 0.214248 0.070551 0.206110
H20   H     H_    0.465644 0.182293 0.993797 0.188428
H21   H     H_    0.332379 0.129280 0.840904 0.097051
O16   O     O_3   0.608302 0.651137 0.086609 -0.468169
C22   C     C_3   0.713898 0.693357 0.011795 0.046294
H22   H     H_    0.688517 0.740844 0.894438 0.195097
H23   H     H_    0.770830 0.592457 0.979937 0.193995
H24   H     H_    0.769050 0.788151 0.113190 0.158383
C23   C     C_2   0.403962 0.955510 0.262304 0.825363
O17   O     O_2   0.295799 0.988413 0.242843 -0.695150
O18   O     O_R   0.455257 0.865315 0.116939 -0.649366
H25   H     H_    0.391424 0.825562 0.008289 0.354704
C24   C     C_2   0.627435 0.048236 0.713209 0.818943
O19   O     O_2   0.709297 0.142155 0.689644 -0.566670
O20   O     O_R   0.625136 0.013157 0.882142 -0.772160
H26   H     H_    0.691559 0.077888 0.975282 0.305582

loop_
_geom_bond_atom_site_label_1
_geom_bond_atom_site_label_2
_geom_bond_distance
_ccdc_geom_bond_type
C12   O14   1.411941 S    
O1    Cu1   1.990522 S    
O5    C3    1.312422 A    
O7    Cu2   1.975173 S    
C22   H23   1.108871 S    
O16   C22   1.378233 S    
C6    C12   1.544505 S    
Cu1   Cu2   2.756449 S    
C6    C9    1.551246 S    
C7    O9    1.419102 S    
O20   H26   1.012294 S    
N1    O15   1.344506 S    
C3    C10   1.471431 S    
C5    C10   1.549763 S    
C13   C23   1.492985 S    
C8    C11   1.531476 S    
O6    C4    1.312880 A    
C18   H10   1.100832 S    
O10   C16   1.385496 S    
C21   H21   1.100752 S    
C15   H2    1.105448 S    
C16   H4    1.105880 S    
C2    C14   1.455865 S    
C22   H24   1.105962 S    
C24   O19   1.222085 D    
C13   C14   1.372514 D    
C5    C11   1.543709 S    
C20   H16   1.102242 S    
C17   H8    1.103427 S    
C14   C24   1.496742 S    
C18   H11   1.108633 S    
O15   C21   1.396785 S    
O2    C2    1.304396 A    
O3    Cu2   1.986843 S    
O8    C4    1.321096 A    
C19   H15   1.100014 S    
C23   O17   1.222279 D    
C1    C13   1.442328 S    
C10   C12   1.562579 S    
C19   H14   1.106281 S    
C15   H1    1.111833 S    
C16   H5    1.102044 S    
O11   C17   1.399740 S    
C8    C10   1.536157 S    
C7    C12   1.546451 S    
C6    C8    1.547762 S    
O7    C3    1.317939 A    
C9    C11   1.531392 S    
O18   H25   1.014269 S    
O2    Cu2   1.990524 S    
C18   H12   1.088273 S    
O1    C1    1.309010 A    
C20   H18   1.105321 S    
C11   O13   1.411429 S    
O12   C18   1.416536 S    
C20   H17   1.110120 S    
C21   H20   1.105623 S    
N1    N2    1.312080 D    
O5    Cu1   1.983790 S    
C16   H6    1.100972 S    
C17   H7    1.110968 S    
O14   C20   1.423736 S    
C17   H9    1.102237 S    
O4    C2    1.325156 A    
C8    O10   1.413142 S    
Cu1   N2    2.071295 S    
C23   O18   1.390895 S    
O9    C15   1.413744 S    
C24   O20   1.396735 S    
Cu2   N1    2.071295 S    
C19   H13   1.113175 S    
C5    O11   1.405969 S    
O6    Cu2   1.983791 S    
C6    O12   1.401592 S    
C5    C7    1.544086 S    
C21   H19   1.108934 S    
C7    C9    1.548298 S    
C4    C9    1.479175 S    
N2    O16   1.343326 S    
C15   H3    1.108765 S    
O13   C19   1.419337 S    
O4    Cu1   1.986844 S    
C22   H22   1.096348 S    
O3    C1    1.314224 A    
O8    Cu1   1.975173 S    
