data_mof_unit_64788.cif
_audit_creation_date              2012-12-10T18:13:16-0500
_audit_creation_method            fapswitch 2.2
_symmetry_space_group_name_H-M    P1
_symmetry_Int_Tables_number       1
_space_group_crystal_system       triclinic
_cell_length_a                    36.498344
_cell_length_b                    29.166826
_cell_length_c                    21.610098
_cell_angle_alpha                 90.258327
_cell_angle_beta                  126.972623
_cell_angle_gamma                 89.910315
_cell_volume                      18378.8832041

loop_
_atom_site_label
_atom_site_type_symbol
_atom_type_description
_atom_site_fract_x
_atom_site_fract_y
_atom_site_fract_z
_atom_type_partial_charge
C1    C     C_R   0.913254 0.999999 0.913891 0.935439
C2    C     C_1   0.229412 0.999781 0.226276 -0.033044
C3    C     C_3   0.483869 0.550250 0.270394 0.209143
C4    C     C_1   0.862625 0.000105 0.864804 -0.191908
C5    C     C_1   0.137375 0.999894 0.135199 -0.191913
C6    C     C_1   0.362624 0.500111 0.864783 -0.192033
C7    C     C_1   0.637374 0.499901 0.135154 -0.191989
C8    C     C_R   0.911445 0.985636 0.724684 0.141896
C9    C     C_R   0.874931 0.011817 0.711988 -0.180645
C10   C     C_R   0.834320 0.990837 0.689975 -0.126204
C11   C     C_R   0.829948 0.943280 0.683207 -0.103835
C12   C     C_R   0.865743 0.916732 0.696207 -0.157130
C13   C     C_1   0.270588 0.500229 0.773704 -0.032991
C14   C     C_R   0.905826 0.937678 0.715466 -0.117811
C15   C     C_R   0.088547 0.014405 0.275307 0.141915
C16   C     C_R   0.125073 0.988241 0.288017 -0.180662
C17   C     C_R   0.165674 0.009239 0.310018 -0.126197
C18   C     C_R   0.170023 0.056798 0.316760 -0.103844
C19   C     C_R   0.134216 0.083330 0.303747 -0.157129
C20   C     C_R   0.094144 0.062366 0.284501 -0.117783
C21   C     C_R   0.918281 0.955496 0.102648 0.124914
C22   C     C_R   0.910281 0.918945 0.052806 -0.124583
C23   C     C_R   0.866772 0.911435 0.983415 -0.138083
C24   C     C_1   0.729411 0.499800 0.226215 -0.032921
C25   C     C_R   0.830403 0.940067 0.962579 -0.104597
C26   C     C_R   0.837643 0.976628 0.010580 -0.138768
C27   C     C_R   0.881108 0.984280 0.080089 -0.171953
C28   C     C_R   0.081734 0.044474 0.897369 0.124912
C29   C     C_R   0.089749 0.081025 0.947220 -0.124617
C30   C     C_R   0.133264 0.088525 0.016606 -0.138093
C31   C     C_R   0.169622 0.059883 0.037428 -0.104587
C32   C     C_R   0.162367 0.023319 0.989421 -0.138767
C33   C     C_R   0.118897 0.015677 0.919916 -0.171937
C34   C     C_R   0.411554 0.485114 0.724816 0.142167
C35   C     C_1   0.728370 0.000151 0.731091 -0.007874
C36   C     C_R   0.374870 0.511087 0.711887 -0.180894
C37   C     C_R   0.334391 0.489870 0.690044 -0.126115
C38   C     C_R   0.330323 0.442284 0.683681 -0.103949
C39   C     C_R   0.366285 0.415941 0.696896 -0.157159
C40   C     C_R   0.406233 0.437119 0.715977 -0.117298
C41   C     C_R   0.588567 0.514304 0.275323 0.141880
C42   C     C_R   0.625048 0.488098 0.287948 -0.180580
C43   C     C_R   0.665674 0.509046 0.309974 -0.126221
C44   C     C_R   0.670092 0.556599 0.316824 -0.103807
C45   C     C_R   0.634327 0.583171 0.303887 -0.157115
C46   C     C_1   0.271630 0.999847 0.268912 -0.007873
C47   C     C_R   0.594229 0.562255 0.284614 -0.117939
C48   C     C_R   0.418247 0.455567 0.102614 0.124919
C49   C     C_R   0.410209 0.419014 0.052751 -0.124661
C50   C     C_R   0.366687 0.411531 0.983373 -0.138087
C51   C     C_R   0.330345 0.440194 0.962569 -0.104562
C52   C     C_R   0.337625 0.476763 0.010585 -0.138763
C53   C     C_R   0.381102 0.484388 0.080083 -0.171926
C54   C     C_R   0.581520 0.544880 0.897154 0.124893
C55   C     C_R   0.589321 0.581425 0.946873 -0.124150
C56   C     C_R   0.632761 0.589071 0.016338 -0.137964
C57   C     C_1   0.228370 0.500162 0.731075 -0.007826
C58   C     C_R   0.669263 0.560594 0.037362 -0.104748
C59   C     C_R   0.662232 0.524066 0.989450 -0.138742
C60   C     C_R   0.618835 0.516275 0.919871 -0.172117
C61   C     C_1   0.771629 0.499865 0.268865 -0.007818
C62   C     C_1   0.678518 0.000081 0.680456 -0.003334
C63   C     C_1   0.321481 0.999917 0.319546 -0.003332
C64   C     C_1   0.178518 0.500089 0.680448 -0.003326
C65   C     C_R   0.086746 0.000001 0.086110 0.935442
C66   C     C_1   0.821481 0.499929 0.319522 -0.003337
C67   C     C_1   0.636286 0.000039 0.637481 -0.207249
C68   C     C_1   0.363714 0.999960 0.362519 -0.207248
C69   C     C_1   0.136286 0.500043 0.637479 -0.207242
C70   C     C_1   0.863713 0.499967 0.362511 -0.207241
C71   C     C_R   0.999972 0.913251 0.500061 0.898177
C72   C     C_R   0.000027 0.086749 0.499939 0.898173
C73   C     C_R   0.499972 0.413251 0.500060 0.898173
C74   C     C_R   0.500027 0.586749 0.499940 0.898253
C75   C     C_R   0.000261 0.000054 0.622724 0.872447
C76   C     C_R   0.413254 0.500000 0.913884 0.935481
C77   C     C_R   0.999738 0.999948 0.377276 0.872465
C78   C     C_R   0.500264 0.500013 0.622728 0.872483
C79   C     C_R   0.499739 0.499942 0.377277 0.872465
C80   C     C_R   0.500000 0.085575 0.500126 0.877336
C81   C     C_R   0.499999 0.914425 0.499874 0.877337
C82   C     C_R   0.000000 0.585575 0.500126 0.877334
C83   C     C_R   0.999999 0.414425 0.499874 0.877337
C84   C     C_R   0.585577 0.000007 0.585924 0.877294
C85   C     C_R   0.414423 0.999992 0.414076 0.877294
C86   C     C_R   0.085577 0.500008 0.585923 0.877293
C87   C     C_R   0.586745 0.500002 0.086096 0.935371
C88   C     C_R   0.914423 0.499994 0.414075 0.877291
C89   C     C_1   0.999925 0.862578 0.500197 -0.239640
C90   C     C_1   0.000074 0.137422 0.499803 -0.239641
C91   C     C_1   0.499926 0.362578 0.500196 -0.239616
C92   C     C_1   0.500074 0.637422 0.499804 -0.239660
C93   C     C_R   0.002396 0.999894 0.880102 0.899632
C94   C     C_R   0.997601 0.000105 0.119895 0.899622
C95   C     C_R   0.502434 0.499894 0.880144 0.899496
C96   C     C_R   0.497609 0.500105 0.119904 0.899676
C97   C     C_1   0.999916 0.820366 0.500312 -0.002364
C98   C     C_1   0.820420 0.000237 0.823483 -0.013190
C99   C     C_1   0.000084 0.179634 0.499688 -0.002368
C100  C     C_1   0.499916 0.320366 0.500311 -0.002384
C101  C     C_1   0.500084 0.679634 0.499689 -0.002354
C102  C     C_1   0.999925 0.770532 0.500405 0.000521
C103  C     C_1   0.000075 0.229468 0.499595 0.000518
C104  C     C_1   0.499925 0.270532 0.500405 0.000512
C105  C     C_1   0.500075 0.729468 0.499595 0.000526
C106  C     C_1   0.499940 0.228317 0.500442 -0.000172
C107  C     C_1   0.500060 0.771683 0.499558 -0.000164
C108  C     C_1   0.999940 0.728317 0.500442 -0.000165
C109  C     C_1   0.179580 0.999761 0.176521 -0.013193
C110  C     C_1   0.000060 0.271683 0.499557 -0.000168
C111  C     C_1   0.499963 0.178480 0.500431 -0.001653
C112  C     C_1   0.500038 0.821520 0.499569 -0.001646
C113  C     C_1   0.999962 0.678480 0.500431 -0.001646
C114  C     C_1   0.000037 0.321520 0.499569 -0.001648
C115  C     C_1   0.499982 0.136262 0.500352 -0.205651
C116  C     C_1   0.500018 0.863738 0.499648 -0.205645
C117  C     C_1   0.999982 0.636262 0.500352 -0.205643
C118  C     C_1   0.000018 0.363737 0.499648 -0.205647
C119  C     C_3   0.952581 0.010873 0.738247 -0.169636
C120  C     C_1   0.320420 0.500248 0.823455 -0.013294
C121  C     C_3   0.047422 0.989149 0.261755 -0.169646
C122  C     C_3   0.966007 0.960655 0.180478 -0.164414
C123  C     C_3   0.034007 0.039332 0.819537 -0.164425
C124  C     C_3   0.452546 0.510584 0.738229 -0.169640
C125  C     C_3   0.547417 0.489096 0.261753 -0.169669
C126  C     C_3   0.465977 0.460683 0.180445 -0.164417
C127  C     C_3   0.533821 0.539493 0.819335 -0.164348
C128  C     C_3   0.952070 0.009167 0.666667 -0.421896
C129  C     C_3   0.047933 0.990855 0.333344 -0.421961
C130  C     C_3   0.965601 0.962842 0.251451 -0.474834
C131  C     C_1   0.679579 0.499777 0.176458 -0.013312
C132  C     C_3   0.034413 0.037145 0.748564 -0.474820
C133  C     C_3   0.452036 0.508876 0.666641 -0.421974
C134  C     C_3   0.547929 0.490808 0.333344 -0.421960
C135  C     C_3   0.465573 0.462867 0.251420 -0.474822
C136  C     C_3   0.534234 0.537293 0.748368 -0.474887
C137  C     C_3   0.020276 0.952708 0.805330 -0.348559
C138  C     C_3   0.979703 0.047285 0.194647 -0.348572
C139  C     C_3   0.520568 0.452800 0.805648 -0.348729
C140  C     C_3   0.479760 0.547301 0.194707 -0.348539
C141  C     C_3   0.002379 0.999748 0.812625 0.009120
C142  C     C_1   0.770588 0.000216 0.773728 -0.033039
C143  C     C_3   0.997619 0.000253 0.187372 0.009125
C144  C     C_3   0.502409 0.499742 0.812662 0.009260
C145  C     C_3   0.497626 0.500251 0.187381 0.009089
C146  C     C_3   0.001143 0.998730 0.691031 0.084884
C147  C     C_3   0.998855 0.001271 0.308967 0.084911
C148  C     C_3   0.501161 0.498699 0.691055 0.084879
C149  C     C_3   0.498860 0.501267 0.308973 0.084925
C150  C     C_3   0.016157 0.949753 0.729635 0.209158
C151  C     C_3   0.983820 0.050242 0.270341 0.209170
C152  C     C_3   0.516442 0.449807 0.729948 0.209285
H1    H     H_    0.946733 0.047605 0.744227 0.126063
H2    H     H_    0.060023 0.957227 0.363669 0.159482
H3    H     H_    0.977100 0.929169 0.281702 0.157729
H4    H     H_    0.022930 0.070823 0.718328 0.157728
H5    H     H_    0.439780 0.542446 0.636154 0.159660
H6    H     H_    0.559991 0.457172 0.363648 0.159457
H7    H     H_    0.477044 0.429184 0.281641 0.157725
H8    H     H_    0.522572 0.570906 0.717939 0.157731
H9    H     H_    0.926938 0.983262 0.624150 0.207165
H10   H     H_    0.073054 0.016770 0.375841 0.207173
H11   H     H_    0.930354 0.967264 0.233840 0.185698
H12   H     H_    0.053286 0.952419 0.255790 0.126052
H13   H     H_    0.069659 0.032708 0.766175 0.185705
H14   H     H_    0.427041 0.482839 0.624273 0.207045
H15   H     H_    0.573071 0.516704 0.375857 0.207190
H16   H     H_    0.430329 0.467316 0.233813 0.185710
H17   H     H_    0.569500 0.533034 0.765997 0.185617
H18   H     H_    0.002579 0.923501 0.809548 0.161547
H19   H     H_    0.997386 0.076500 0.190415 0.161547
H20   H     H_    0.943731 0.052307 0.143288 0.157765
H21   H     H_    0.056245 0.947671 0.856687 0.157772
H22   H     H_    0.503063 0.423490 0.810083 0.161539
H23   H     H_    0.983723 0.927805 0.187371 0.137797
H24   H     H_    0.497487 0.576494 0.190528 0.161564
H25   H     H_    0.443796 0.552367 0.143346 0.157794
H26   H     H_    0.556572 0.447979 0.857018 0.157664
H27   H     H_    0.877089 0.048846 0.716606 0.120322
H28   H     H_    0.806215 0.011586 0.678334 0.140971
H29   H     H_    0.798646 0.927064 0.667065 0.129744
H30   H     H_    0.862036 0.879850 0.689595 0.129539
H31   H     H_    0.931095 0.915939 0.720431 0.145728
H32   H     H_    0.122932 0.951211 0.283419 0.120322
H33   H     H_    0.193789 0.988503 0.321672 0.140977
H34   H     H_    0.016304 0.072190 0.812657 0.137796
H35   H     H_    0.201317 0.073029 0.332892 0.129735
H36   H     H_    0.137905 0.120213 0.310340 0.129537
H37   H     H_    0.068865 0.084093 0.279526 0.145725
H38   H     H_    0.937728 0.895864 0.067688 0.121149
H39   H     H_    0.861235 0.883240 0.945913 0.129433
H40   H     H_    0.796654 0.934068 0.909024 0.134572
H41   H     H_    0.809387 0.998873 0.994276 0.135794
H42   H     H_    0.884746 0.012007 0.116223 0.129572
H43   H     H_    0.062310 0.104115 0.932347 0.121154
H44   H     H_    0.138812 0.116722 0.054114 0.129441
H45   H     H_    0.446495 0.547283 0.744009 0.125931
H46   H     H_    0.203375 0.065875 0.090977 0.134575
H47   H     H_    0.190616 0.001064 0.005714 0.135790
H48   H     H_    0.115247 0.987948 0.883776 0.129562
H49   H     H_    0.376791 0.548132 0.716191 0.120315
H50   H     H_    0.306148 0.510457 0.678200 0.141028
H51   H     H_    0.299124 0.425886 0.667671 0.129624
H52   H     H_    0.362812 0.379034 0.690588 0.129483
H53   H     H_    0.431634 0.415518 0.721114 0.145625
H54   H     H_    0.622854 0.451071 0.283264 0.120314
H55   H     H_    0.693755 0.488277 0.321559 0.140963
H56   H     H_    0.553242 0.452358 0.255758 0.126080
H57   H     H_    0.701406 0.572791 0.332977 0.129748
H58   H     H_    0.638070 0.620048 0.310561 0.129541
H59   H     H_    0.568983 0.584008 0.279697 0.145754
H60   H     H_    0.437635 0.395908 0.067611 0.121149
H61   H     H_    0.361120 0.383331 0.945857 0.129445
H62   H     H_    0.296586 0.434214 0.909026 0.134571
H63   H     H_    0.309389 0.499033 0.994305 0.135787
H64   H     H_    0.384771 0.512121 0.116232 0.129587
H65   H     H_    0.561763 0.604379 0.931857 0.121097
H66   H     H_    0.638138 0.617247 0.053758 0.129331
H67   H     H_    0.483662 0.427816 0.187305 0.137788
H68   H     H_    0.702955 0.566692 0.090984 0.134526
H69   H     H_    0.690595 0.501950 0.005889 0.135839
H70   H     H_    0.615352 0.488572 0.883825 0.129588
H71   H     H_    0.976641 0.913668 0.625527 0.172112
H72   H     H_    0.991857 0.883069 0.703074 0.188888
H73   H     H_    0.008091 0.116936 0.296873 0.188888
H74   H     H_    0.023322 0.086343 0.374434 0.172091
H75   H     H_    0.916247 0.039251 0.232370 0.179677
H76   H     H_    0.944664 0.078904 0.301624 0.191153
H77   H     H_    0.055301 0.921083 0.698335 0.191144
H78   H     H_    0.515945 0.572259 0.812269 0.137799
H79   H     H_    0.083737 0.960714 0.767621 0.179672
H80   H     H_    0.492497 0.382994 0.703769 0.188920
H81   H     H_    0.477087 0.413515 0.626038 0.171814
H82   H     H_    0.508196 0.616925 0.296991 0.188886
H83   H     H_    0.523391 0.586319 0.374520 0.172136
H84   H     H_    0.416286 0.539312 0.232411 0.179675
H85   H     H_    0.444729 0.578945 0.301686 0.191114
H86   H     H_    0.583955 0.461113 0.767819 0.179714
H87   H     H_    0.555722 0.421294 0.698803 0.191295
H88   H     H_    0.939994 0.042800 0.636347 0.159444
N1    N     N_3   0.980780 0.915511 0.677745 -0.485249
N2    N     N_3   0.019182 0.084500 0.322216 -0.485253
N3    N     N_3   0.939720 0.065884 0.251918 -0.475568
N4    N     N_3   0.060250 0.934092 0.748050 -0.475565
N5    N     N_3   0.481241 0.415376 0.678268 -0.485248
N6    N     N_3   0.519257 0.584479 0.322307 -0.485278
N7    N     N_3   0.439779 0.565928 0.251974 -0.475565
N8    N     N_3   0.560612 0.434368 0.748436 -0.475584
O1    O     O_R   0.936850 0.964330 0.936870 -0.597011
O2    O     O_R   0.000010 0.035670 0.092610 -0.623360
O3    O     O_R   0.000010 0.964330 0.092610 -0.637370
O4    O     O_R   0.999990 0.035670 0.907390 -0.637369
O5    O     O_R   0.499990 0.464330 0.907390 -0.623314
O6    O     O_R   0.500010 0.535670 0.092610 -0.623365
O7    O     O_R   0.500010 0.464330 0.092610 -0.637364
O8    O     O_R   0.499990 0.535670 0.907390 -0.637378
O9    O     O_R   0.964320 0.936860 0.464320 -0.597659
O10   O     O_R   0.035680 0.063140 0.535680 -0.597658
O11   O     O_R   0.035680 0.936860 0.535680 -0.602783
O12   O     O_R   0.063150 0.035670 0.063130 -0.597006
O13   O     O_R   0.964320 0.063140 0.464320 -0.602788
O14   O     O_R   0.464320 0.436860 0.464320 -0.597641
O15   O     O_R   0.535680 0.563140 0.535680 -0.597643
O16   O     O_R   0.535680 0.436860 0.535680 -0.602844
O17   O     O_R   0.464320 0.563140 0.464320 -0.602761
O18   O     O_R   0.964330 1.000000 0.556950 -0.623210
O19   O     O_R   0.035670 0.000000 0.443050 -0.623201
O20   O     O_R   0.464330 0.500000 0.556950 -0.623155
O21   O     O_R   0.535670 0.500000 0.443050 -0.623210
O22   O     O_R   0.035630 0.000000 0.628230 -0.631734
O23   O     O_R   0.063150 0.964330 0.063130 -0.609998
O24   O     O_R   0.964370 0.000000 0.371770 -0.631744
O25   O     O_R   0.535630 0.500000 0.628230 -0.631791
O26   O     O_R   0.464370 0.500000 0.371770 -0.631740
O27   O     O_R   0.499940 0.063120 0.447680 -0.592763
O28   O     O_R   0.500060 0.936880 0.552320 -0.592762
O29   O     O_R   0.500060 0.063120 0.552320 -0.592935
O30   O     O_R   0.499940 0.936880 0.447680 -0.592934
O31   O     O_R   0.999940 0.563120 0.447680 -0.592763
O32   O     O_R   0.000060 0.436880 0.552320 -0.592763
O33   O     O_R   0.000060 0.563120 0.552320 -0.592934
O34   O     O_R   0.936850 0.035670 0.936870 -0.610001
O35   O     O_R   0.999940 0.436880 0.447680 -0.592931
O36   O     O_R   0.563110 1.000000 0.510830 -0.592991
O37   O     O_R   0.436890 0.000000 0.489170 -0.592990
O38   O     O_R   0.063110 0.500000 0.510830 -0.592986
O39   O     O_R   0.936890 0.500000 0.489170 -0.592994
O40   O     O_R   0.563120 0.000000 0.615390 -0.592924
O41   O     O_R   0.436880 0.000000 0.384610 -0.592925
O42   O     O_R   0.063120 0.500000 0.615390 -0.592927
O43   O     O_R   0.936880 0.500000 0.384610 -0.592918
O44   O     O_R   0.436850 0.464330 0.936870 -0.596910
O45   O     O_R   0.563150 0.535670 0.063130 -0.596958
O46   O     O_R   0.563150 0.464330 0.063130 -0.610062
O47   O     O_R   0.436850 0.535670 0.936870 -0.610009
O48   O     O_R   0.999990 0.964330 0.907390 -0.623366
Zn1   Zn    Zn3+2 0.000000 0.952370 0.000000 0.935844
Zn2   Zn    Zn3+2 0.500030 0.000000 0.569830 0.959070
Zn3   Zn    Zn3+2 0.999970 0.500000 0.430170 0.959085
Zn4   Zn    Zn3+2 0.000030 0.500000 0.569830 0.959069
Zn5   Zn    Zn3+2 0.000000 0.047630 0.000000 0.935849
Zn6   Zn    Zn3+2 0.500000 0.452370 0.000000 0.935871
Zn7   Zn    Zn3+2 0.500000 0.547630 0.000000 0.935824
Zn8   Zn    Zn3+2 0.952370 0.000000 0.452390 0.936983
Zn9   Zn    Zn3+2 0.047630 0.000000 0.547610 0.936992
Zn10  Zn    Zn3+2 0.452370 0.500000 0.452390 0.937019
Zn11  Zn    Zn3+2 0.547630 0.500000 0.547610 0.936934
Zn12  Zn    Zn3+2 0.499970 0.000000 0.430170 0.959069

loop_
_geom_bond_atom_site_label_1
_geom_bond_atom_site_label_2
_ccdc_geom_bond_type
C99   C103  S    
C24   C61   T    
C86   O42   A    
C107  C112  S    
C19   C20   A    
C11   H29   S    
O25   Zn11  S    
C56   H66   S    
C28   C123  S    
C126  H67   S    
C96   C145  S    
C72   O13   A    
C87   O45   A    
C124  C133  S    
C138  C143  S    
C129  H2    S    
O22   Zn9   S    
C139  C152  S    
C100  C104  S    
C74   C92   S    
C146  C150  S    
O27   Zn12  S    
C135  H16   S    
C91   C100  T    
C22   H38   S    
C77   C147  S    
C73   O16   A    
C78   C148  S    
C79   C149  S    
C119  C128  S    
C84   O40   A    
C95   C144  S    
C119  H1    S    
C21   C22   A    
C86   O38   A    
C45   C47   A    
C15   C20   A    
C3    C149  S    
C135  H7    S    
O39   Zn4   S    
C51   C52   A    
C41   C125  S    
C127  C136  S    
C20   H37   S    
H73   N2    S    
C124  H45   S    
C52   H63   S    
C93   O48   A    
H87   N8    S    
C108  C113  S    
C43   C44   A    
C137  H21   S    
C37   C38   A    
C19   H36   S    
C140  H24   S    
C123  C141  S    
C77   O24   A    
O23   Zn1   S    
C152  N5    S    
O48   Zn1   S    
C28   C33   A    
C79   O26   A    
O18   Zn8   S    
C80   O29   A    
O32   Zn4   S    
O26   Zn10  S    
C34   C124  S    
C138  H19   S    
C25   H40   S    
C140  C145  S    
C16   H32   S    
C138  C151  S    
C63   C68   T    
C10   H28   S    
C133  H14   S    
C24   C131  S    
H81   N5    S    
C66   C70   T    
H71   N1    S    
C129  C147  S    
C96   O6    A    
O35   Zn3   S    
C22   C23   A    
C31   H46   S    
C2    C109  S    
C47   H59   S    
O37   Zn2   S    
O24   Zn8   S    
O11   Zn9   S    
C105  C107  T    
C79   O21   A    
C103  C110  T    
C36   C37   A    
C32   H47   S    
C38   C39   A    
C1    O1    A    
H72   N1    S    
H74   N2    S    
C13   C57   T    
C71   O11   A    
C18   H35   S    
O31   Zn3   S    
H85   N7    S    
C44   H57   S    
O21   Zn11  S    
C58   H68   S    
C150  N1    S    
C37   H50   S    
C3    N6    S    
C9    C10   A    
C110  C114  S    
C9    H27   S    
C98   C142  S    
C68   C85   S    
C122  C143  S    
C94   O2    A    
O33   Zn4   S    
C126  C145  S    
C106  C111  S    
C75   C146  S    
C48   C53   A    
C30   H44   S    
O46   Zn6   S    
O42   Zn4   S    
C132  H13   S    
C76   O47   A    
C39   C40   A    
H77   N4    S    
C50   H61   S    
C25   C26   A    
C29   H43   S    
C134  C149  S    
C151  N3    S    
C147  C151  S    
C29   C30   A    
O10   Zn9   S    
C72   C90   S    
C31   C32   A    
C17   C18   A    
C41   C47   A    
C27   H42   S    
C64   C69   T    
O16   Zn11  S    
C137  H18   S    
C136  C148  S    
C113  C117  T    
C51   H62   S    
C134  H6    S    
C137  C150  S    
C36   H49   S    
C90   C99   T    
C112  C116  T    
C13   C120  S    
C52   C53   A    
O47   Zn7   S    
C95   O5    A    
C40   H53   S    
C130  C147  S    
O17   Zn10  S    
C148  C152  S    
O28   Zn2   S    
C6    C76   S    
C75   O22   A    
C71   O9    A    
C46   C63   S    
C81   O28   A    
H79   N4    S    
C125  C145  S    
C74   O15   A    
O36   Zn12  S    
C128  C146  S    
C81   C116  S    
C132  H4    S    
C56   C58   A    
C133  H5    S    
O38   Zn3   S    
C76   O44   A    
C10   C11   A    
C35   C142  T    
C48   C126  S    
O29   Zn2   S    
C136  H8    S    
C59   C60   A    
C49   C50   A    
H86   N8    S    
C139  H22   S    
C39   H52   S    
C95   O8    A    
C8    C119  S    
C125  C134  S    
C55   C56   A    
C41   C42   A    
C104  C106  T    
C14   H31   S    
C55   H65   S    
C26   C27   A    
C28   C29   A    
C30   C31   A    
C123  C132  S    
C74   O17   A    
C18   C19   A    
C21   C122  S    
C54   C55   A    
C12   H30   S    
C17   H33   S    
C16   C17   A    
O45   Zn7   S    
H83   N6    S    
C7    C131  T    
C97   C102  S    
C93   O4    A    
C150  N4    S    
C21   C27   A    
C3    N7    S    
O5    Zn6   S    
O12   Zn5   S    
O13   Zn8   S    
C87   O46   A    
C43   H55   S    
C81   O30   A    
C83   O32   A    
C88   O39   A    
C33   H48   S    
C58   C59   A    
C138  H20   S    
C80   O27   A    
O19   Zn9   S    
C80   C115  S    
C50   C51   A    
O14   Zn10  S    
C92   C101  T    
C48   C49   A    
C126  C135  S    
C38   H51   S    
C42   C43   A    
C93   C141  S    
C44   C45   A    
O30   Zn12  S    
C137  C141  S    
C121  C129  S    
C60   H70   S    
O20   Zn10  S    
O9    Zn8   S    
C128  H88   S    
C85   O41   A    
C132  C146  S    
C32   C33   A    
C123  H34   S    
H82   N6    S    
H76   N3    S    
C5    C109  T    
C128  H9    S    
C42   H54   S    
C127  C144  S    
C127  H78   S    
C152  N8    S    
C83   O35   A    
C7    C87   S    
O4    Zn5   S    
C82   C117  S    
C26   H41   S    
O6    Zn7   S    
C15   C16   A    
C75   O18   A    
C130  H11   S    
O1    Zn1   S    
C72   O10   A    
C4    C98   T    
C88   O43   A    
C121  C143  S    
C82   O31   A    
C70   C88   S    
C94   O3    A    
C23   H39   S    
C54   C60   A    
C2    C46   T    
O41   Zn12  S    
C84   O36   A    
O3    Zn1   S    
C85   O37   A    
C62   C67   T    
C34   C40   A    
C94   C143  S    
C83   C118  S    
H75   N3    S    
C1    O34   A    
C122  H23   S    
C49   H60   S    
H80   N5    S    
O8    Zn7   S    
C59   H69   S    
O34   Zn5   S    
C61   C66   S    
C8    C9    A    
C102  C108  T    
C130  H3    S    
O43   Zn3   S    
C34   C36   A    
C67   C84   S    
H84   N7    S    
C6    C120  T    
C140  H25   S    
C101  C105  S    
C65   O12   A    
C73   C91   S    
C5    C65   S    
C135  C149  S    
C121  H12   S    
C77   O19   A    
C89   C97   T    
C78   O20   A    
C139  C144  S    
C71   C89   S    
C133  C148  S    
O44   Zn6   S    
C114  C118  T    
C12   C14   A    
C73   O14   A    
C57   C64   S    
C8    C14   A    
C15   C121  S    
C96   O7    A    
C11   C12   A    
C53   H64   S    
O2    Zn5   S    
C54   C127  S    
C125  H56   S    
C45   H58   S    
C1    C4    S    
O7    Zn6   S    
O15   Zn11  S    
C139  H26   S    
C151  N2    S    
C119  C141  S    
C129  H10   S    
C35   C62   S    
C23   C25   A    
C65   O23   A    
C136  H17   S    
O40   Zn2   S    
C134  H15   S    
C124  C144  S    
C111  C115  T    
C3    C140  S    
C78   O25   A    
C82   O33   A    
C122  C130  S    
C69   C86   S    
