data_mof_unit_43391.cif
_audit_creation_date              2012-12-10T16:58:29-0500
_audit_creation_method            fapswitch 2.2
_symmetry_space_group_name_H-M    P1
_symmetry_Int_Tables_number       1
_space_group_crystal_system       triclinic
_cell_length_a                    15.862517
_cell_length_b                    10.924105
_cell_length_c                    9.788805
_cell_angle_alpha                 88.695153
_cell_angle_beta                  90.673798
_cell_angle_gamma                 90.687113
_cell_volume                      1695.56759643

loop_
_atom_site_label
_atom_site_type_symbol
_atom_type_description
_atom_site_fract_x
_atom_site_fract_y
_atom_site_fract_z
_atom_type_partial_charge
C1    C     C_R   0.498770 0.265539 0.501189 0.820790
C2    C     C_3   0.083298 0.500639 0.495664 -0.102474
C3    C     C_3   0.973046 0.578387 0.594365 -0.371723
C4    C     C_3   0.916632 0.495839 0.503618 -0.109659
C5    C     C_3   0.026010 0.610896 0.466540 0.463947
C6    C     C_3   0.968181 0.531753 0.374738 -0.357247
C7    C     C_1   0.174970 0.501419 0.495289 0.156249
C8    C     C_1   0.825027 0.495668 0.504409 0.102837
C9    C     C_2   0.490174 0.935315 0.388906 -0.119965
C10   C     C_2   0.506462 0.866413 0.500320 -0.281987
C11   C     C_2   0.494850 0.069206 0.389496 -0.140717
C12   C     C_R   0.340124 0.500400 0.499171 0.798454
C13   C     C_2   0.494257 0.133152 0.504953 -0.291340
C14   C     C_2   0.433980 0.521593 0.921332 0.225674
C15   C     C_2   0.433009 0.484780 0.073760 0.091638
C16   C     C_R   0.501122 0.734354 0.499105 0.853759
C17   C     C_R   0.659878 0.499087 0.500857 0.807934
C18   C     C_3   0.973717 0.384568 0.533481 0.386941
C19   C     C_3   0.025556 0.420667 0.407071 0.306603
C20   C     C_1   0.250478 0.501163 0.496934 -0.114308
C21   C     C_1   0.749516 0.496987 0.503066 -0.131150
C22   C     C_3   0.030752 0.466262 0.621598 0.341666
Cu1   Cu    Cu3+1 0.500020 0.500020 0.638630 1.020893
Cu2   Cu    Cu3+1 0.499980 0.499980 0.361370 1.070746
H1    H     H_    0.487832 0.089744 0.604862 0.155112
H2    H     H_    0.379651 0.566643 0.875755 0.065255
H3    H     H_    0.374950 0.448565 0.116787 0.078164
H4    H     H_    0.940800 0.559824 0.274159 0.184064
H5    H     H_    0.949143 0.644810 0.668375 0.188731
H6    H     H_    0.473748 0.893056 0.293056 0.208148
H7    H     H_    0.525119 0.905887 0.596661 0.154379
H8    H     H_    0.496952 0.115946 0.290421 0.176541
N1    N     N_2   0.499090 0.498660 0.846910 0.022104
N2    N     N_2   0.499070 0.498630 0.153040 -0.028339
O1    O     O_R   0.500010 0.321960 0.617040 -0.556395
O2    O     O_R   0.499990 0.321920 0.382900 -0.594584
O3    O     O_R   0.379090 0.500010 0.617050 -0.592775
O4    O     O_R   0.379060 0.499970 0.382910 -0.587606
O5    O     O_R   0.500010 0.678080 0.617100 -0.582804
O6    O     O_R   0.499990 0.678040 0.382960 -0.498435
O7    O     O_R   0.620940 0.500030 0.617090 -0.602208
O8    O     O_R   0.620910 0.499990 0.382950 -0.523714
O9    O     O_3   0.058744 0.338794 0.312750 -0.563177
C23   C     C_3   0.993248 0.293275 0.228742 0.094053
H9    H     H_    0.971754 0.366084 0.155575 0.106378
H10   H     H_    0.938373 0.260520 0.289691 0.198226
C24   C     C_3   0.026263 0.185746 0.148799 -0.318722
H11   H     H_    0.076191 0.218792 0.077837 0.229675
H12   H     H_    0.054539 0.117297 0.220881 0.255832
C25   C     C_3   0.955673 0.124145 0.067423 -0.830059
H13   H     H_    0.908517 0.082076 0.137756 0.262725
H14   H     H_    0.982227 0.051220 0.004103 0.282582
H15   H     H_    0.923867 0.192282 0.999422 0.278210
O10   O     O_3   0.530442 0.388244 0.887804 -0.534460
C26   C     C_3   0.619209 0.392736 0.900017 0.246244
H16   H     H_    0.635923 0.400534 0.010060 0.152027
H17   H     H_    0.649500 0.470526 0.844876 0.193920
C27   C     C_3   0.655723 0.273223 0.849690 -0.419879
H18   H     H_    0.626594 0.194532 0.906461 0.228448
H19   H     H_    0.641173 0.263407 0.739261 0.246483
C28   C     C_3   0.751124 0.270038 0.870498 -0.830347
H20   H     H_    0.781828 0.345622 0.810851 0.270971
H21   H     H_    0.775242 0.181388 0.834998 0.304019
H22   H     H_    0.767705 0.278949 0.980431 0.239357
S1    S     S_3+6 0.555216 0.635783 0.108812 0.087038
O11   O     O_2   0.619446 0.671285 0.214725 -0.238539
O12   O     O_2   0.601974 0.632666 0.977214 -0.348346
O13   O     O_3   0.484638 0.749174 0.093184 -0.554905
H23   H     H_    0.516906 0.820762 0.056922 0.358045
S2    S     S_3+6 0.940405 0.233492 0.583009 0.008730
O14   O     O_2   0.933010 0.225385 0.735637 -0.315296
O15   O     O_2   0.856366 0.204699 0.518131 -0.327747
O16   O     O_3   0.012208 0.132642 0.532322 -0.482756
H24   H     H_    0.990272 0.051686 0.563819 0.399868
S3    S     S_3+6 0.061473 0.761857 0.423096 0.003039
O17   O     O_2   0.096600 0.821585 0.548622 -0.284892
O18   O     O_2   0.128891 0.756126 0.316981 -0.306870
O19   O     O_3   0.979558 0.842850 0.360983 -0.517673
H25   H     H_    0.004256 0.922479 0.330848 0.376328
O20   O     O_3   0.070902 0.423340 0.742898 -0.557310
C29   C     C_3   0.035609 0.474987 0.859538 0.111090
H26   H     H_    0.044675 0.408531 0.945523 0.173747
H27   H     H_    0.966228 0.488632 0.849899 0.132144
C30   C     C_3   0.082353 0.593890 0.895023 -0.407301
H28   H     H_    0.150795 0.575278 0.907522 0.241170
H29   H     H_    0.074628 0.662885 0.810960 0.246380
C31   C     C_3   0.049621 0.646554 0.026902 -0.794846
H30   H     H_    0.980691 0.662460 0.018744 0.247635
H31   H     H_    0.081911 0.735280 0.046318 0.295773
H32   H     H_    0.062778 0.582622 0.114168 0.269791

loop_
_geom_bond_atom_site_label_1
_geom_bond_atom_site_label_2
_ccdc_geom_bond_type
C18   S2    S    
C26   H16   S    
Cu2   O8    S    
O16   H24   S    
C2    C7    S    
C30   C31   S    
C4    C8    S    
C14   N1    D    
C29   H26   S    
C24   H12   S    
C6    C19   S    
Cu2   O2    S    
C30   H29   S    
C5    C6    S    
C27   H19   S    
C3    H5    S    
C18   C19   S    
C12   O3    A    
C28   H21   S    
C17   O8    A    
C15   H3    S    
C10   H7    S    
C6    H4    S    
C19   O9    S    
O13   H23   S    
Cu1   N1    S    
C2    C22   S    
C25   H14   S    
Cu1   Cu2   S    
S2    O14   D    
C9    C10   D    
C15   N2    D    
C23   C24   S    
C4    C18   S    
C27   C28   S    
C13   H1    S    
N2    S1    S    
C29   H27   S    
C23   H10   S    
C25   H13   S    
C24   C25   S    
C17   O7    A    
C25   H15   S    
C30   H28   S    
C4    C6    S    
O19   H25   S    
S1    O12   D    
C27   H18   S    
Cu1   O3    S    
Cu2   N2    S    
C5    S3    S    
C28   H22   S    
S3    O17   D    
C9    C11   S    
Cu2   O4    S    
C24   H11   S    
S1    O13   S    
C12   C20   S    
S2    O16   S    
C8    C21   T    
C14   H2    S    
S3    O18   D    
C9    H6    S    
C16   O6    A    
C11   H8    S    
S1    O11   D    
Cu1   O1    S    
C26   H17   S    
O9    C23   S    
C31   H32   S    
C2    C5    S    
C1    C13   S    
C3    C4    S    
C29   C30   S    
C23   H9    S    
C1    O1    A    
N1    O10   S    
O10   C26   S    
C2    C19   S    
C18   C22   S    
O20   C29   S    
C3    C5    S    
Cu1   O7    S    
C31   H31   S    
C22   O20   S    
C10   C16   S    
C11   C13   D    
Cu1   O5    S    
Cu2   O6    S    
C12   O4    A    
C28   H20   S    
S3    O19   S    
C17   C21   S    
C16   O5    A    
C31   H30   S    
C7    C20   T    
C26   C27   S    
C14   C15   S    
C3    C22   S    
S2    O15   D    
C1    O2    A    
