data_mof_unit_24684.cif
_audit_creation_date              2012-12-11T17:19:16-0500
_audit_creation_method            fapswitch 2.2
_symmetry_space_group_name_H-M    P1
_symmetry_Int_Tables_number       1
_space_group_crystal_system       triclinic
_cell_length_a                    15.101932
_cell_length_b                    7.319972
_cell_length_c                    13.226783
_cell_angle_alpha                 90.128562
_cell_angle_beta                  100.80947
_cell_angle_gamma                 89.849048
_cell_volume                      1436.21272595

loop_
_atom_site_label
_atom_site_type_symbol
_atom_type_description
_atom_site_fract_x
_atom_site_fract_y
_atom_site_fract_z
_atom_type_partial_charge
O1    O     O_R   0.648180 0.355050 0.151550 -0.512011
O2    O     O_R   0.351820 0.644950 0.848450 -0.514988
O3    O     O_R   0.851820 0.855050 0.348450 -0.508494
O4    O     O_R   0.148180 0.144950 0.651550 -0.528472
O5    O     O_R   0.835240 0.681980 0.154280 -0.531829
O6    O     O_R   0.164760 0.318020 0.845720 -0.534356
O7    O     O_R   0.664760 0.181980 0.345720 -0.537578
O8    O     O_R   0.335240 0.818020 0.654280 -0.522106
C1    C     C_R   0.860098 0.513533 0.128224 0.740286
C2    C     C_R   0.138917 0.485341 0.870443 0.737779
C3    C     C_R   0.642699 0.014288 0.374643 0.741290
C4    C     C_R   0.360527 0.983918 0.628594 0.767977
O9    O     O_R   0.647870 0.684600 0.139630 -0.524157
O10   O     O_R   0.352130 0.315400 0.860370 -0.523394
O11   O     O_R   0.852130 0.184600 0.360370 -0.521619
O12   O     O_R   0.147870 0.815400 0.639630 -0.503348
O13   O     O_R   0.663110 0.857440 0.333700 -0.514271
O14   O     O_R   0.336890 0.142560 0.666300 -0.530795
O15   O     O_R   0.836890 0.357440 0.166300 -0.520763
O16   O     O_R   0.163110 0.642560 0.833700 -0.521273
C5    C     C_R   0.614914 0.516343 0.113719 0.754175
C6    C     C_R   0.384893 0.483719 0.886555 0.751101
C7    C     C_R   0.885051 0.016521 0.386389 0.745845
C8    C     C_R   0.112448 0.983807 0.617468 0.759044
O17   O     O_3   0.755220 0.522230 0.313690 -0.353814
O18   O     O_3   0.244780 0.477770 0.686310 -0.362991
O19   O     O_3   0.744780 0.022230 0.186310 -0.354999
O20   O     O_3   0.255220 0.977770 0.813690 -0.357442
V1    V     V_3+5 0.749030 0.796100 0.238190 1.584598
V2    V     V_3+5 0.250970 0.203900 0.761810 1.558390
V3    V     V_3+5 0.750970 0.296100 0.261810 1.577077
V4    V     V_3+5 0.249030 0.703900 0.738190 1.595791
C9    C     C_1   0.964647 0.006387 0.468730 -0.063828
C10   C     C_1   0.031293 0.995201 0.537074 -0.065544
C11   C     C_1   0.533685 0.505756 0.033675 -0.098082
C12   C     C_1   0.465867 0.494339 0.966955 -0.099886
C13   C     C_R   0.550740 0.921422 0.720353 0.041305
C14   C     C_R   0.452798 0.077246 0.283892 0.023704
C15   C     C_R   0.944677 0.438176 0.779151 0.119821
C16   C     C_R   0.058781 0.503778 0.220021 0.068203
C17   C     C_R   0.636109 0.850777 0.761629 0.185335
C18   C     C_R   0.364273 0.131537 0.243773 0.208027
C19   C     C_R   0.856387 0.383368 0.738361 0.186376
C20   C     C_R   0.152241 0.495252 0.259993 0.184943
C21   C     C_R   0.703054 0.850077 0.703517 0.212120
C22   C     C_R   0.296448 0.085637 0.295396 0.208183
C23   C     C_R   0.792534 0.375662 0.801039 0.180598
C24   C     C_R   0.212788 0.544608 0.196637 0.220182
C25   C     C_R   0.680446 0.879768 0.596984 0.005762
C26   C     C_R   0.318249 0.019700 0.397056 -0.034874
C27   C     C_R   0.819419 0.389203 0.907554 0.108195
C28   C     C_R   0.180828 0.576636 0.092085 0.098406
C29   C     C_R   0.592604 0.943743 0.547600 -0.044060
C30   C     C_R   0.409557 0.017116 0.452565 -0.012495
C31   C     C_R   0.907948 0.450527 0.954453 -0.055684
C32   C     C_R   0.091111 0.528689 0.044218 -0.035158
C33   C     C_R   0.524496 0.956654 0.610872 -0.029929
C34   C     C_R   0.479394 0.032825 0.392303 -0.019442
C35   C     C_R   0.974096 0.465799 0.888912 -0.060628
C36   C     C_R   0.025637 0.510351 0.109707 -0.034985
C37   C     C_R   0.571242 0.997587 0.439896 -0.091947
C38   C     C_R   0.432322 0.989303 0.562877 -0.091264
C39   C     C_R   0.931903 0.493529 0.063111 -0.086621
C40   C     C_R   0.066567 0.500005 0.934803 -0.082344
N1    N     N_3   0.654126 0.762090 0.860424 -0.657589
H1    H     H_    0.653175 0.855537 0.919705 0.282661
H2    H     H_    0.605393 0.661588 0.862032 0.254562
N2    N     N_3   0.339652 0.216208 0.144164 -0.609316
H3    H     H_    0.343075 0.122347 0.085795 0.286785
H4    H     H_    0.384670 0.322293 0.138560 0.243303
N3    N     N_3   0.833937 0.319166 0.633688 -0.610693
H5    H     H_    0.825283 0.177853 0.634935 0.212267
H6    H     H_    0.772912 0.375164 0.596862 0.256349
N4    N     N_3   0.183651 0.458295 0.368348 -0.591572
H7    H     H_    0.253034 0.438233 0.387227 0.234388
H8    H     H_    0.155511 0.336888 0.388619 0.244715
I1    I     I_    0.482300 0.998985 0.842351 -0.316169
I2    I     I_    0.521524 0.015101 0.159509 -0.306355
I3    I     I_    0.015484 0.495917 0.656519 -0.246701
I4    I     I_    0.982887 0.516097 0.342218 -0.261804
N5    N     N_3   0.206545 0.076906 0.235305 -0.606551
H9    H     H_    0.191033 0.940503 0.217005 0.267698
H10   H     H_    0.159469 0.124652 0.277151 0.236126
N6    N     N_3   0.795279 0.810732 0.751625 -0.617197
H11   H     H_    0.803356 0.794587 0.831206 0.268136
H12   H     H_    0.834106 0.924794 0.741650 0.227208
N7    N     N_3   0.305397 0.586789 0.239086 -0.636330
H13   H     H_    0.307831 0.693694 0.291346 0.264303
H14   H     H_    0.338220 0.475243 0.277873 0.233731
N8    N     N_3   0.699115 0.345754 0.756980 -0.625594
H15   H     H_    0.692792 0.224535 0.714708 0.227938
H16   H     H_    0.676232 0.453586 0.707193 0.252746
I5    I     I_    0.775242 0.741510 0.526787 -0.352939
I6    I     I_    0.214429 0.864223 0.438650 -0.442288
I7    I     I_    0.736653 0.212415 0.975280 -0.348520
I8    I     I_    0.260015 0.773396 0.031776 -0.342336

loop_
_geom_bond_atom_site_label_1
_geom_bond_atom_site_label_2
_ccdc_geom_bond_type
O17   V3    S    
N7    H13   S    
O1    C5    A    
C16   C36   A    
C31   C35   A    
O19   V1    S    
O13   V1    S    
O3    C7    A    
C11   C12   T    
O15   V3    S    
N5    H9    S    
C33   C38   A    
O7    C3    A    
C35   C40   A    
C26   C30   A    
N4    H8    S    
C36   C39   A    
O9    V1    S    
N6    H12   S    
C14   C18   A    
C30   C34   A    
O4    C8    A    
O1    V3    S    
O2    V4    S    
C18   C22   A    
O3    V1    S    
C14   C34   A    
C29   C37   A    
C1    O15   A    
C23   C27   A    
C2    O16   A    
N2    H3    S    
N1    H2    S    
C31   C39   A    
O2    C6    A    
C32   C40   A    
O14   V2    S    
C16   C20   A    
C34   C37   A    
O11   C7    A    
O12   C8    A    
C18   N2    S    
O10   V2    S    
N5    H10   S    
O5    V1    S    
O7    V3    S    
N4    H7    S    
O8    V4    S    
N6    H11   S    
N3    H6    S    
C29   C33   A    
O18   V4    S    
C26   I6    S    
C17   N1    S    
C14   I2    S    
C7    C9    S    
C13   I1    S    
C8    C10   S    
C32   C36   A    
C15   I3    S    
O5    C1    A    
C22   N5    S    
C4    C38   S    
N8    H16   S    
C21   C25   A    
O8    C4    A    
C15   C35   A    
C16   I4    S    
C9    C10   T    
C24   N7    S    
O9    C5    A    
C20   N4    S    
O6    V2    S    
N7    H14   S    
C23   N8    S    
C21   N6    S    
C6    C12   S    
O16   V4    S    
C3    O13   A    
C19   N3    S    
C1    C39   S    
C2    C40   S    
C3    C37   S    
O6    C2    A    
C15   C19   A    
O11   V3    S    
C5    C11   S    
O12   V4    S    
C30   C38   A    
C22   C26   A    
O10   C6    A    
O20   V2    S    
N3    H5    S    
N8    H15   S    
C25   C29   A    
C28   I8    S    
C27   C31   A    
C13   C17   A    
O4    V2    S    
C28   C32   A    
C24   C28   A    
N2    H4    S    
N1    H1    S    
C4    O14   A    
C17   C21   A    
C25   I5    S    
C19   C23   A    
C13   C33   A    
C20   C24   A    
C27   I7    S    
