data_mof_unit_41781.cif
_audit_creation_date              2013-03-05T16:45:28-0500
_audit_creation_method            fapswitch 2.2
_symmetry_space_group_name_H-M    P1
_symmetry_Int_Tables_number       1
_space_group_crystal_system       triclinic
_cell_length_a                    18.404625
_cell_length_b                    18.343339
_cell_length_c                    18.494492
_cell_angle_alpha                 119.981033
_cell_angle_beta                  90.328844
_cell_angle_gamma                 119.638732
_cell_volume                      4427.61924885

loop_
_atom_site_label
_atom_site_type_symbol
_atom_site_description
_atom_site_fract_x
_atom_site_fract_y
_atom_site_fract_z
_atom_type_partial_charge
Zn1   Zn    Zn3+2 0.543620 0.414150 0.457300 1.027827
Zn2   Zn    Zn3+2 0.542680 0.585840 0.456390 0.972776
Zn3   Zn    Zn3+2 0.543620 0.585850 0.629000 0.981072
Zn4   Zn    Zn3+2 0.370090 0.414160 0.457300 0.968197
O1    O     O_3   0.500000 0.500000 0.500000 -0.500137
O2    O     O_R   0.323160 0.439910 0.385120 -0.650418
O3    O     O_R   0.616440 0.439920 0.555110 -0.627766
O4    O     O_R   0.614860 0.560070 0.384480 -0.641839
O5    O     O_R   0.445540 0.560090 0.675280 -0.630225
O6    O     O_R   0.614860 0.729170 0.553580 -0.635050
O7    O     O_R   0.324090 0.270830 0.386020 -0.642140
O8    O     O_R   0.615510 0.729180 0.674390 -0.636730
O9    O     O_R   0.445540 0.270830 0.386020 -0.584849
O10   O     O_R   0.615510 0.439910 0.385120 -0.636646
O11   O     O_R   0.324090 0.439920 0.555110 -0.649451
O12   O     O_R   0.443960 0.560080 0.384480 -0.629850
O13   O     O_R   0.616440 0.560090 0.675280 -0.641357
C1    C     C_R   0.359628 0.499640 0.359792 0.790569
C2    C     C_R   0.641881 0.501295 0.638884 0.875410
C3    C     C_R   0.640674 0.500562 0.361830 0.787664
C4    C     C_R   0.360723 0.499277 0.639074 0.866888
C5    C     C_R   0.638481 0.778277 0.638732 0.769667
C6    C     C_R   0.361656 0.223223 0.362538 0.899264
C7    C     C_2   0.280126 0.945428 0.244430 0.216173
C8    C     C_2   0.189750 0.887393 0.215827 -0.332259
C9    C     C_2   0.332603 0.057219 0.310048 0.279255
C10   C     C_2   0.309511 0.112859 0.302475 -0.440369
H1    H     H_    0.252637 0.076841 0.248448 0.137836
C11   C     C_2   0.788988 0.572488 0.838285 -0.118735
C12   C     C_2   0.797817 0.495257 0.807949 -0.259711
H2    H     H_    0.823675 0.638861 0.907033 0.181782
H3    H     H_    0.761943 0.426320 0.740836 0.162706
C13   C     C_2   0.731053 0.569788 0.781506 -0.092867
C14   C     C_2   0.702803 0.506162 0.692991 -0.320229
H4    H     H_    0.711973 0.622571 0.813958 0.216108
H5    H     H_    0.725534 0.457932 0.658147 0.146609
C15   C     C_2   0.280729 0.540650 0.837471 0.018858
C16   C     C_2   0.193124 0.500306 0.808149 -0.346675
H6    H     H_    0.159619 0.467330 0.740794 0.141867
C17   C     C_2   0.335841 0.543523 0.779893 -0.212253
C18   C     C_2   0.303186 0.493948 0.692364 -0.325292
H7    H     H_    0.406952 0.587147 0.811344 0.185581
H8    H     H_    0.232732 0.444426 0.656580 0.148506
H9    H     H_    0.668587 0.713018 0.245887 0.151392
C19   C     C_R   0.578882 0.738831 0.310474 -0.125292
H10   H     H_    0.627196 0.821102 0.355246 0.192361
C20   C     C_R   0.492699 0.693824 0.313444 -0.090104
H11   H     H_    0.474581 0.741943 0.360421 0.152965
C21   C     C_R   0.429821 0.587118 0.254936 0.126053
C22   C     C_R   0.453901 0.525907 0.193766 -0.157890
H12   H     H_    0.405675 0.443637 0.147696 0.133686
C23   C     C_R   0.540024 0.571388 0.190615 -0.116221
H13   H     H_    0.558251 0.524308 0.142747 0.184160
C24   C     C_R   0.602276 0.677760 0.248691 -0.178040
C25   C     C_R   0.281165 0.539394 0.201846 -0.237877
H14   H     H_    0.306262 0.568206 0.162424 0.182210
C26   C     C_R   0.193657 0.501636 0.200141 -0.031864
C27   C     C_R   0.162003 0.466179 0.253142 0.013707
C28   C     C_R   0.216934 0.463495 0.302311 -0.261062
H15   H     H_    0.192280 0.436737 0.343299 0.167570
C29   C     C_R   0.304387 0.500686 0.303664 -0.048565
C30   C     C_R   0.337385 0.541103 0.254011 -0.011668
C31   C     C_R   0.065825 0.521490 0.323690 -0.006643
C32   C     C_R   0.988961 0.497051 0.348606 0.018666
C33   C     C_R   0.923654 0.394317 0.315535 -0.198980
H16   H     H_    0.865772 0.374497 0.335569 0.158144
C34   C     C_R   0.932629 0.316154 0.257040 -0.163220
H17   H     H_    0.881357 0.237246 0.231684 0.132350
C35   C     C_R   0.008936 0.339858 0.233761 -0.139418
H18   H     H_    0.016751 0.278817 0.191204 0.132219
C36   C     C_R   0.076322 0.442068 0.267560 0.094084
H19   H     H_    0.463600 0.771950 0.917128 0.121590
C37   C     C_R   0.477360 0.791567 0.812119 -0.129128
H20   H     H_    0.406471 0.744961 0.779140 0.134510
C38   C     C_R   0.535989 0.836860 0.776731 -0.106550
H21   H     H_    0.509861 0.825189 0.716457 0.110583
C39   C     C_R   0.627954 0.897251 0.819208 0.131753
C40   C     C_R   0.660432 0.912999 0.898264 -0.195481
H22   H     H_    0.731449 0.959488 0.931032 0.129446
C41   C     C_R   0.601697 0.867127 0.933913 0.076222
C42   C     C_R   0.509955 0.806529 0.890173 -0.153902
C43   C     C_R   0.747169 0.054771 0.836757 -0.241409
H23   H     H_    0.743801 0.096893 0.902119 0.166909
C44   C     C_R   0.805216 0.108553 0.806263 -0.047413
C45   C     C_R   0.808320 0.053309 0.720211 0.072552
C46   C     C_R   0.751597 0.945777 0.666241 -0.186091
H24   H     H_    0.755421 0.903926 0.601083 0.152003
C47   C     C_R   0.692880 0.891796 0.696548 -0.063128
C48   C     C_R   0.690562 0.947407 0.783103 0.011801
C49   C     C_R   0.849019 0.103389 0.613179 0.357484
C50   C     C_R   0.915346 0.150307 0.583206 -0.208710
H25   H     H_    0.898070 0.150378 0.527202 0.167398
C51   C     C_R   0.004706 0.199663 0.626205 -0.175342
H26   H     H_    0.055029 0.236324 0.602970 0.139121
C52   C     C_R   0.029325 0.202377 0.699354 -0.107334
H27   H     H_    0.098682 0.240974 0.732718 0.132677
C53   C     C_R   0.964626 0.154996 0.729346 -0.206094
H28   H     H_    0.984884 0.156803 0.785665 0.122595
C54   C     C_R   0.874306 0.105196 0.687085 0.007482
H29   H     H_    0.689999 0.208643 0.399286 0.163716
C55   C     C_R   0.742026 0.361105 0.436303 -0.133440
H30   H     H_    0.769064 0.397294 0.506309 0.127743
C56   C     C_R   0.752145 0.420877 0.406238 -0.108438
H31   H     H_    0.786855 0.503109 0.453484 0.132006
C57   C     C_R   0.716638 0.374435 0.315476 0.126808
C58   C     C_R   0.672366 0.267523 0.255249 -0.169343
H32   H     H_    0.645522 0.230424 0.184955 0.150762
C59   C     C_R   0.662793 0.208058 0.285532 -0.099238
H33   H     H_    0.628649 0.125759 0.238851 0.165387
C60   C     C_R   0.697508 0.254800 0.375977 -0.048425
C61   C     C_R   0.779267 0.437155 0.225827 -0.247420
H34   H     H_    0.804458 0.390285 0.207777 0.176112
C62   C     C_R   0.798848 0.498112 0.194665 -0.028238
C63   C     C_R   0.765578 0.558942 0.218644 0.074431
C64   C     C_R   0.717005 0.560253 0.275753 -0.236794
H35   H     H_    0.692067 0.607327 0.293830 0.176112
C65   C     C_R   0.697844 0.500067 0.307375 -0.048188
C66   C     C_R   0.730150 0.437924 0.282716 0.019624
C67   C     C_R   0.830104 0.726555 0.241580 -0.191911
H36   H     H_    0.869092 0.764094 0.308626 0.147525
C68   C     C_R   0.833209 0.786292 0.214691 -0.196891
H37   H     H_    0.873317 0.868978 0.260901 0.163802
C69   C     C_R   0.781106 0.739868 0.130066 -0.273950
H38   H     H_    0.783190 0.788515 0.112100 0.193569
C70   C     C_R   0.723785 0.632231 0.070809 0.260761
C71   C     C_R   0.722769 0.570813 0.096679 0.244120
C72   C     C_R   0.775062 0.619048 0.183549 -0.021371
Zn5   Zn    Zn3+2 0.953650 0.585790 0.045310 0.993533
Zn6   Zn    Zn3+2 0.953650 0.414090 0.873610 1.006427
Zn7   Zn    Zn3+2 0.954590 0.414100 0.046220 0.972535
Zn8   Zn    Zn3+2 0.127180 0.585790 0.045310 1.001595
O14   O     O_3   0.997270 0.499940 0.002610 -0.501877
O15   O     O_R   0.173180 0.560020 0.947500 -0.629148
O16   O     O_R   0.881750 0.560030 0.117490 -0.633522
O17   O     O_R   0.880830 0.439850 0.827330 -0.638380
O18   O     O_R   0.053310 0.439870 0.118130 -0.649886
O19   O     O_R   0.881750 0.270770 0.828220 -0.611258
O20   O     O_R   0.173180 0.729110 0.116590 -0.589220
O21   O     O_R   0.882410 0.270770 0.949030 -0.647823
O22   O     O_R   0.051730 0.729120 0.116590 -0.651661
O23   O     O_R   0.880830 0.560020 0.947500 -0.631108
O24   O     O_R   0.174110 0.560030 0.117490 -0.622883
O25   O     O_R   0.051730 0.439850 0.827330 -0.640313
O26   O     O_R   0.882410 0.439870 0.118130 -0.646869
C73   C     C_R   0.136800 0.499017 0.863492 0.840206
C74   C     C_R   0.856403 0.498970 0.140589 0.813190
C75   C     C_R   0.856366 0.499501 0.863698 0.887117
C76   C     C_R   0.137758 0.500536 0.142790 0.785955
C77   C     C_R   0.859106 0.221823 0.863949 0.808390
C78   C     C_R   0.136390 0.777402 0.143685 0.830669
N1    N     N_R   0.329006 0.901456 0.211854 0.242019
O27   O     O_R   0.384851 0.933907 0.174742 -0.410922
O28   O     O_R   0.334929 0.851126 0.239439 -0.378556
C79   C     C_R   0.140435 0.930468 0.262612 0.102001
C80   C     C_R   0.083545 0.936403 0.218187 -0.079859
C81   C     C_R   0.043109 0.984239 0.264091 -0.144147
C82   C     C_R   0.057037 0.023796 0.353844 -0.123787
C83   C     C_R   0.111463 0.015578 0.397860 -0.119805
C84   C     C_R   0.153256 0.969348 0.352620 -0.139714
H39   H     H_    0.073015 0.907137 0.148937 0.123412
H40   H     H_    0.000722 0.990408 0.230004 0.125789
H41   H     H_    0.025289 0.060369 0.389155 0.122485
H42   H     H_    0.121940 0.045912 0.467267 0.134906
H43   H     H_    0.196531 0.965114 0.387917 0.145835
C85   C     C_R   0.137909 0.629782 0.361274 0.093156
C86   C     C_R   0.209666 0.686533 0.437516 -0.137011
C87   C     C_R   0.278959 0.787899 0.471524 -0.141233
C88   C     C_R   0.276844 0.832971 0.429663 -0.056408
C89   C     C_R   0.205467 0.776703 0.353714 -0.088644
C90   C     C_R   0.136234 0.675347 0.319416 -0.169564
H44   H     H_    0.212066 0.652032 0.470073 0.125108
H45   H     H_    0.334376 0.831436 0.530204 0.148778
H46   H     H_    0.330540 0.911380 0.455961 0.186519
H47   H     H_    0.203912 0.811407 0.321195 0.146902
H48   H     H_    0.081694 0.632223 0.260036 0.107476
C91   C     C_R   0.978099 0.577804 0.413366 0.112441
C92   C     C_R   0.977894 0.596000 0.496652 -0.170573
C93   C     C_R   0.966658 0.671410 0.557748 -0.155914
C94   C     C_R   0.954739 0.728357 0.535774 -0.123739
C95   C     C_R   0.954801 0.710592 0.452981 -0.130346
C96   C     C_R   0.966894 0.636003 0.392158 -0.117111
H49   H     H_    0.986335 0.551768 0.514132 0.130631
H50   H     H_    0.966396 0.685046 0.621808 0.132154
H51   H     H_    0.945338 0.786114 0.582835 0.125426
H52   H     H_    0.945291 0.754429 0.435811 0.124831
H53   H     H_    0.966301 0.622764 0.328226 0.108923
C97   C     C_R   0.636010 0.882169 0.016374 0.087623
C98   C     C_R   0.601798 0.797733 0.021263 -0.087219
C99   C     C_R   0.634963 0.811925 0.098795 -0.095502
C100  C     C_R   0.701613 0.910335 0.172344 -0.136545
C101  C     C_R   0.735769 0.994777 0.168333 -0.134350
C102  C     C_R   0.703528 0.980923 0.090651 -0.169843
H54   H     H_    0.550372 0.720771 0.964771 0.148769
H55   H     H_    0.609250 0.746513 0.101782 0.159888
H56   H     H_    0.726984 0.921050 0.232308 0.140383
H57   H     H_    0.787312 0.071009 0.225446 0.126335
H58   H     H_    0.730478 0.047320 0.088868 0.123496
N2    N     N_R   0.408835 0.104233 0.380181 0.240107
O29   O     O_R   0.486197 0.138085 0.370073 -0.322937
O30   O     O_R   0.397347 0.090600 0.442860 -0.413028
N3    N     N_R   0.757881 0.057111 0.569453 0.192242
O31   O     O_R   0.732529 0.028025 0.488445 -0.440010
O32   O     O_R   0.702340 0.054615 0.612918 -0.369927
N4    N     N_R   0.662861 0.587262 0.988179 0.213958
O33   O     O_R   0.676215 0.642016 0.958140 -0.451929
O34   O     O_R   0.586643 0.498904 0.950866 -0.341601
N5    N     N_R   0.670824 0.460880 0.034855 0.220657
O35   O     O_R   0.616799 0.401753 0.056383 -0.403377
O36   O     O_R   0.680088 0.419480 0.957609 -0.345213
C103  C     C_R   0.328031 0.583733 0.928635 0.133906
C104  C     C_R   0.344123 0.524734 0.944171 -0.145855
C105  C     C_R   0.393529 0.567008 0.028845 -0.138700
C106  C     C_R   0.427263 0.668337 0.098254 -0.169249
C107  C     C_R   0.411905 0.727671 0.083140 -0.049027
C108  C     C_R   0.362692 0.685801 0.998540 -0.108440
H59   H     H_    0.319043 0.446486 0.890586 0.141322
H60   H     H_    0.406070 0.521386 0.040447 0.161239
H61   H     H_    0.466036 0.701305 0.163578 0.158685
H62   H     H_    0.439200 0.806497 0.136759 0.205589
H63   H     H_    0.351582 0.732633 0.987383 0.146563

loop_
_geom_bond_atom_site_label_1
_geom_bond_atom_site_label_2
_geom_bond_distance
_ccdc_geom_bond_type
C25   H14   1.082486 S    
C70   N4    1.441792 S    
H29   C60   1.082370 S    
C100  C101  1.397229 A    
C11   C13   1.457733 S    
N3    O32   1.301217 A    
C89   C90   1.396982 A    
C61   H34   1.083853 S    
C63   C64   1.386375 A    
C49   C50   1.408402 A    
C69   H38   1.082030 S    
C20   C21   1.403490 A    
C85   C86   1.402829 A    
Zn8   O15   1.941979 S    
C106  C107  1.396445 A    
O20   C78   1.283650 A    
C104  C105  1.397534 A    
C107  C108  1.397510 A    
C39   C48   1.481331 S    
C9    C10   1.346512 D    
O4    C3    1.284886 A    
C43   C48   1.397973 A    
C61   C66   1.390341 A    
Zn1   O1    1.939807 S    
C81   C82   1.398210 A    
C15   C16   1.360188 D    
C7    C9    1.466683 S    
C62   C63   1.414577 A    
C15   C17   1.476890 S    
C47   C48   1.420131 A    
C107  H62   1.081329 S    
C16   H6    1.080306 S    
C40   C41   1.405077 A    
C27   C36   1.478605 S    
C69   C70   1.405828 A    
C51   C52   1.393321 A    
C105  H60   1.081491 S    
C103  C108  1.404938 A    
C25   C30   1.388750 A    
O8    C5    1.282540 A    
C56   H31   1.081744 S    
C85   C90   1.403811 A    
Zn8   O24   1.942221 S    
C59   H33   1.082659 S    
O9    C6    1.270630 A    
O10   C3    1.268642 A    
N3    O31   1.301466 A    
C35   C36   1.401433 A    
C101  H57   1.082264 S    
Zn3   O8    1.925771 S    
C22   H12   1.082865 S    
O13   C2    1.270048 A    
Zn6   O17   1.941520 S    
C99   H55   1.082412 S    
C103  C104  1.402977 A    
C82   C83   1.396938 A    
C61   C62   1.400068 A    
C52   H27   1.082543 S    
C59   C60   1.397828 A    
C64   C65   1.395630 A    
C22   C23   1.397695 A    
N1    O27   1.301198 A    
N2    O29   1.300923 A    
C6    C10   1.439435 S    
C32   C91   1.480261 S    
Zn2   O12   1.946334 S    
Zn5   O23   1.944966 S    
C14   H5    1.082748 S    
H19   C42   1.079051 S    
H9    C24   1.078891 S    
C39   C40   1.405546 A    
C49   N3    1.441585 S    
C44   C77   1.474176 S    
C17   H7    1.087107 S    
C104  H59   1.083134 S    
C80   H39   1.083112 S    
C86   H44   1.083159 S    
C55   C56   1.398036 A    
N4    O33   1.301116 A    
C18   H8    1.081132 S    
O19   C77   1.281591 A    
C91   C96   1.404060 A    
C70   C71   1.420027 A    
O16   C74   1.272145 A    
Zn7   O21   1.924349 S    
Zn5   O14   1.939810 S    
C37   C42   1.396556 A    
C3    C65   1.460803 S    
C53   C54   1.406490 A    
C23   C24   1.397786 A    
C53   H28   1.083439 S    
C90   H48   1.083134 S    
C19   C20   1.397025 A    
C37   H20   1.082427 S    
C88   H46   1.082300 S    
O2    C1    1.288241 A    
Zn7   O18   1.946231 S    
C28   C29   1.397528 A    
C31   C32   1.414655 A    
C34   H17   1.082152 S    
C55   H30   1.082360 S    
O24   C76   1.284263 A    
C12   C75   1.433293 S    
C44   C45   1.417561 A    
O26   C74   1.281542 A    
C45   C54   1.484643 S    
C87   C88   1.398442 A    
C46   H24   1.084578 S    
C41   C42   1.403663 A    
C33   C34   1.392628 A    
C27   C28   1.390980 A    
C45   C46   1.400198 A    
C5    C47   1.477242 S    
O21   C77   1.290540 A    
O6    C5    1.291353 A    
C101  C102  1.398889 A    
C98   C99   1.398636 A    
C34   C35   1.391709 A    
C62   C74   1.460790 S    
C89   H47   1.080856 S    
Zn7   O14   1.949378 S    
C38   H21   1.083162 S    
C16   C73   1.461135 S    
C11   C12   1.335115 D    
Zn3   O5    1.947480 S    
C7    N1    1.435664 S    
Zn5   O16   1.946455 S    
C50   C51   1.396288 A    
C20   H11   1.083110 S    
C31   C85   1.480570 S    
C71   N5    1.436697 S    
C67   H36   1.083660 S    
C13   C14   1.339001 D    
C79   C80   1.405510 A    
Zn6   O19   1.925623 S    
C56   C57   1.406446 A    
C51   H26   1.082632 S    
C102  H58   1.083207 S    
C7    C8    1.362179 D    
Zn4   O7    1.920610 S    
C38   C39   1.403428 A    
C68   H37   1.079662 S    
O18   C76   1.279059 A    
C67   C68   1.390782 A    
C83   H42   1.082473 S    
C4    C18   1.451951 S    
C100  H56   1.082589 S    
O17   C75   1.267917 A    
Zn4   O2    1.942070 S    
C91   C92   1.404109 A    
C31   C36   1.416554 A    
C81   H40   1.082501 S    
C92   C93   1.398736 A    
O3    C2    1.270525 A    
C25   C26   1.396031 A    
C86   C87   1.398563 A    
C21   C22   1.401931 A    
C57   C66   1.485168 S    
Zn2   O1    1.949379 S    
Zn1   O9    1.929526 S    
C33   H16   1.077226 S    
C37   C38   1.395646 A    
Zn8   O14   1.957444 S    
Zn2   O6    1.924349 S    
O22   C78   1.282931 A    
C49   C54   1.420617 A    
C50   H25   1.082548 S    
Zn7   O26   1.941655 S    
C95   C96   1.397420 A    
C94   H51   1.082300 S    
C99   C100  1.396529 A    
O25   C73   1.287798 A    
C88   C89   1.397443 A    
C21   C30   1.473750 S    
C8    C79   1.493936 S    
Zn1   O3    1.944968 S    
Zn2   O4    1.941655 S    
C93   H50   1.082284 S    
N4    O34   1.301254 A    
Zn4   O1    1.957447 S    
Zn3   O1    1.946557 S    
C2    C14   1.437138 S    
C19   C24   1.396190 A    
C98   H54   1.083233 S    
N2    O30   1.300489 A    
C96   H53   1.080474 S    
C52   C53   1.395259 A    
C1    C29   1.462432 S    
C87   H45   1.082265 S    
Zn6   O25   1.947483 S    
C57   C58   1.405902 A    
C43   C44   1.397579 A    
C106  H61   1.080553 S    
C32   C33   1.403354 A    
Zn6   O14   1.946557 S    
Zn4   O11   1.941980 S    
C55   C60   1.397673 A    
C79   C84   1.406374 A    
C11   H2    1.086873 S    
Zn8   O20   1.920462 S    
C65   C66   1.419445 A    
C12   H3    1.082480 S    
C63   C72   1.481042 S    
C40   H22   1.083907 S    
O5    C4    1.284028 A    
C26   C27   1.411466 A    
C83   C84   1.397925 A    
O11   C4    1.274208 A    
C58   C59   1.398618 A    
C71   C72   1.417630 A    
O7    C6    1.284845 A    
C13   H4    1.085776 S    
C41   C97   1.482165 S    
C97   C102  1.407015 A    
Zn3   O13   1.941519 S    
C46   C47   1.402053 A    
N1    O28   1.301579 A    
Zn5   O22   1.929629 S    
C29   C30   1.415371 A    
C9    N2    1.434929 S    
C35   H18   1.083369 S    
C15   C103  1.481942 S    
C68   C69   1.391882 A    
C95   H52   1.082505 S    
O23   C75   1.270924 A    
C94   C95   1.397323 A    
C19   H10   1.081291 S    
C28   H15   1.084892 S    
O15   C73   1.274303 A    
C105  C106  1.397487 A    
C97   C98   1.406985 A    
O12   C1    1.276962 A    
C43   H23   1.084845 S    
C58   H32   1.083162 S    
C26   C76   1.459244 S    
C80   C81   1.397546 A    
N5    O36   1.301284 A    
N5    O35   1.301147 A    
C84   H43   1.082783 S    
C8    C78   1.466340 S    
C17   C18   1.336307 D    
Zn1   O10   1.946350 S    
C64   H35   1.083181 S    
C108  H63   1.082946 S    
C82   H41   1.082685 S    
C92   H49   1.083130 S    
C23   H13   1.080713 S    
C93   C94   1.397974 A    
C10   H1    1.083887 S    
C67   C72   1.401215 A    
