data_mof_unit_29305.cif
_audit_creation_date              2012-12-10T20:52:59-0500
_audit_creation_method            fapswitch 2.2
_symmetry_space_group_name_H-M    P1
_symmetry_Int_Tables_number       1
_space_group_crystal_system       triclinic
_cell_length_a                    18.42824
_cell_length_b                    18.228325
_cell_length_c                    18.429828
_cell_angle_alpha                 59.575467
_cell_angle_beta                  60.020718
_cell_angle_gamma                 59.743252
_cell_volume                      4355.5891632

loop_
_atom_site_label
_atom_site_type_symbol
_atom_type_description
_atom_site_fract_x
_atom_site_fract_y
_atom_site_fract_z
_atom_type_partial_charge
C1    C     C_R   0.389017 0.106157 0.113254 0.817987
C2    C     C_R   0.339786 0.820907 0.823881 -0.191066
C3    C     C_R   0.928996 0.577552 0.016897 0.037524
C4    C     C_R   0.409380 0.042743 0.007529 0.032884
C5    C     C_R   0.590619 0.957257 0.992471 0.032884
C6    C     C_R   0.948872 0.942962 0.552274 -0.127795
C7    C     C_R   0.051128 0.057038 0.447726 -0.127796
C8    C     C_R   0.934820 0.544677 0.959197 -0.190773
C9    C     C_R   0.065179 0.455323 0.040803 -0.190773
C10   C     C_R   0.559289 0.960746 0.933362 -0.185933
C11   C     C_R   0.440711 0.039253 0.066638 -0.185933
C12   C     C_3   0.049261 0.734277 0.613757 -0.905674
C13   C     C_R   0.162932 0.122255 0.657791 -0.170450
C14   C     C_3   0.950739 0.265722 0.386244 -0.905675
C15   C     C_3   0.910198 0.395549 0.940230 -0.801862
C16   C     C_3   0.089802 0.604451 0.059770 -0.801861
C17   C     C_3   0.505074 0.053991 0.765690 -0.887470
C18   C     C_3   0.494926 0.946009 0.234310 -0.887471
C19   C     C_3   0.151226 0.786119 0.050943 -0.929032
C20   C     C_3   0.848773 0.213881 0.949057 -0.929033
C21   C     C_3   0.742112 0.026482 0.159390 -0.945978
C22   C     C_3   0.257887 0.973518 0.840610 -0.945978
C23   C     C_3   0.029005 0.080742 0.713056 -0.913395
C24   C     C_R   0.837068 0.877744 0.342209 -0.170450
C25   C     C_3   0.970995 0.919256 0.286945 -0.913395
C26   C     C_R   0.161693 0.591932 0.269933 0.163889
C27   C     C_R   0.838307 0.408069 0.730066 0.163889
C28   C     C_R   0.611789 0.271065 0.146775 0.149830
C29   C     C_R   0.388211 0.728935 0.853225 0.149830
C30   C     C_R   0.254359 0.107377 0.617503 0.159515
C31   C     C_R   0.745641 0.892623 0.382497 0.159515
C32   C     C_R   0.072080 0.595615 0.312930 0.097710
C33   C     C_R   0.610983 0.893843 0.886746 0.817987
C34   C     C_R   0.927919 0.404385 0.687070 0.097709
C35   C     C_R   0.589254 0.308509 0.069582 0.083004
C36   C     C_R   0.410746 0.691490 0.930418 0.083004
C37   C     C_R   0.311413 0.031850 0.589471 0.088509
C38   C     C_R   0.688587 0.968150 0.410529 0.088510
C39   C     C_R   0.009603 0.661629 0.269165 -0.264244
C40   C     C_R   0.990397 0.338371 0.730835 -0.264244
C41   C     C_R   0.613851 0.252568 0.024048 -0.200024
C42   C     C_R   0.386148 0.747432 0.975952 -0.200024
C43   C     C_R   0.275849 0.971837 0.603094 -0.244230
C44   C     C_R   0.108325 0.112116 0.390013 0.814146
C45   C     C_R   0.724151 0.028163 0.396905 -0.244231
C46   C     C_R   0.034942 0.724032 0.185071 -0.179134
C47   C     C_R   0.965057 0.275968 0.814929 -0.179134
C48   C     C_R   0.660745 0.160432 0.054696 -0.123648
C49   C     C_R   0.339255 0.839568 0.945303 -0.123648
C50   C     C_R   0.184463 0.987047 0.643539 -0.113825
C51   C     C_R   0.815537 0.012953 0.356461 -0.113825
C52   C     C_R   0.123902 0.719516 0.141590 0.239917
C53   C     C_R   0.876098 0.280484 0.858410 0.239918
C54   C     C_R   0.685990 0.123640 0.129726 0.250814
C55   C     C_R   0.891675 0.887885 0.609987 0.814146
C56   C     C_R   0.314010 0.876360 0.870274 0.250813
C57   C     C_R   0.127424 0.062629 0.670762 0.245849
C58   C     C_R   0.872576 0.937370 0.329238 0.245849
C59   C     C_R   0.983469 0.592537 0.465461 -0.225661
C60   C     C_R   0.016530 0.407463 0.534539 -0.225661
C61   C     C_R   0.592308 0.462038 0.980331 -0.230244
C62   C     C_R   0.407691 0.537962 0.019668 -0.230244
C63   C     C_R   0.463620 0.964743 0.592462 -0.225844
C64   C     C_R   0.536380 0.035257 0.407537 -0.225844
C65   C     C_R   0.945117 0.551185 0.556377 -0.044378
C66   C     C_R   0.113063 0.392304 0.106191 0.817402
C67   C     C_R   0.054883 0.448815 0.443623 -0.044377
C68   C     C_R   0.552457 0.555136 0.945452 -0.036912
C69   C     C_R   0.447543 0.444864 0.054548 -0.036911
C70   C     C_R   0.555430 0.946974 0.552126 -0.037680
C71   C     C_R   0.444570 0.053026 0.447874 -0.037681
C72   C     C_R   0.961841 0.456905 0.591717 0.039609
C73   C     C_R   0.038159 0.543095 0.408283 0.039609
C74   C     C_R   0.458755 0.593751 0.965247 0.043582
C75   C     C_R   0.541245 0.406249 0.034752 0.043582
C76   C     C_R   0.592361 0.982810 0.458258 0.043478
C77   C     C_R   0.886936 0.607696 0.893809 0.817403
C78   C     C_R   0.407639 0.017190 0.541742 0.043478
C79   C     C_R   0.110270 0.391080 0.389245 0.844824
C80   C     C_R   0.889730 0.608920 0.610755 0.844823
C81   C     C_R   0.390212 0.390035 0.110400 0.838256
C82   C     C_R   0.609788 0.609965 0.889600 0.838256
C83   C     C_R   0.389594 0.109542 0.390461 0.819109
C84   C     C_R   0.610406 0.890458 0.609539 0.819109
C85   C     C_R   0.183890 0.927521 0.477622 -0.172887
C86   C     C_R   0.816111 0.072479 0.522375 -0.172888
C87   C     C_R   0.148814 0.355145 0.952856 -0.122511
C88   C     C_R   0.187146 0.653033 0.184062 -0.177566
C89   C     C_R   0.851186 0.644855 0.047144 -0.122511
C90   C     C_R   0.317913 0.070275 0.020917 -0.126555
C91   C     C_R   0.682087 0.929725 0.979084 -0.126554
C92   C     C_R   0.225758 0.836383 0.514994 -0.206737
C93   C     C_R   0.774243 0.163616 0.485002 -0.206738
C94   C     C_R   0.151857 0.319522 0.899857 -0.191203
C95   C     C_R   0.848143 0.680478 0.100143 -0.191203
C96   C     C_R   0.290215 0.085705 0.955214 -0.262842
C97   C     C_R   0.709785 0.914295 0.044786 -0.262843
C98   C     C_R   0.179159 0.777134 0.560653 -0.101515
C99   C     C_R   0.812854 0.346967 0.815938 -0.177566
C100  C     C_R   0.820842 0.222865 0.439343 -0.101516
C101  C     C_R   0.074584 0.341567 0.886397 -0.163017
C102  C     C_R   0.925416 0.658433 0.113603 -0.163017
C103  C     C_R   0.352104 0.078460 0.873452 -0.152274
C104  C     C_R   0.647895 0.921539 0.126547 -0.152273
C105  C     C_R   0.088669 0.807875 0.571734 0.206536
C106  C     C_R   0.911331 0.192125 0.428264 0.206537
C107  C     C_R   0.995735 0.405724 0.919053 0.226910
C108  C     C_R   0.004265 0.594276 0.080947 0.226910
C109  C     C_R   0.443045 0.045076 0.860297 0.257581
C110  C     C_R   0.660214 0.179093 0.176119 -0.191066
C111  C     C_R   0.556955 0.954924 0.139703 0.257581
C112  C     C_R   0.041946 0.903822 0.538841 0.041631
C113  C     C_R   0.958054 0.096178 0.461159 0.041631
C114  C     C_R   0.999103 0.458887 0.952799 0.059783
C115  C     C_R   0.000896 0.541113 0.047201 0.059783
C116  C     C_R   0.471591 0.015456 0.932929 0.058383
C117  C     C_R   0.528409 0.984544 0.067071 0.058383
C118  C     C_R   0.092072 0.963187 0.488155 0.029862
C119  C     C_R   0.907928 0.036813 0.511844 0.029862
C120  C     C_R   0.071004 0.422448 0.983103 0.037524
H1    H     H_    0.784932 0.294144 0.413590 0.151680
H2    H     H_    0.336184 0.567878 0.034020 0.169799
H3    H     H_    0.434850 0.937483 0.664122 0.176323
H4    H     H_    0.565150 0.062517 0.335877 0.176323
H5    H     H_    0.225191 0.969469 0.440642 0.140757
H6    H     H_    0.774810 0.030531 0.559356 0.140759
H7    H     H_    0.208424 0.332215 0.967477 0.143130
H8    H     H_    0.791575 0.667785 0.032523 0.143130
H9    H     H_    0.266448 0.075279 0.083323 0.190365
H10   H     H_    0.733552 0.924721 0.916677 0.190365
H11   H     H_    0.295700 0.811165 0.506660 0.160918
H12   H     H_    0.215069 0.705856 0.586405 0.151680
H13   H     H_    0.704301 0.188834 0.493335 0.160918
H14   H     H_    0.212503 0.270208 0.874391 0.166459
H15   H     H_    0.787496 0.729792 0.125609 0.166459
H16   H     H_    0.220038 0.107217 0.966489 0.155407
H17   H     H_    0.779962 0.892782 0.033511 0.155407
H18   H     H_    0.255876 0.650216 0.151247 0.158001
H19   H     H_    0.744124 0.349784 0.848753 0.158001
H20   H     H_    0.678853 0.151018 0.234481 0.166327
H21   H     H_    0.321147 0.848982 0.765519 0.166327
H22   H     H_    0.119362 0.180635 0.678643 0.154831
H23   H     H_    0.925019 0.696071 0.144012 0.146659
H24   H     H_    0.880637 0.819364 0.321358 0.154831
H25   H     H_    0.940141 0.666956 0.301972 0.175337
H26   H     H_    0.059859 0.333044 0.698028 0.175337
H27   H     H_    0.596667 0.280500 0.964759 0.151379
H28   H     H_    0.403333 0.719500 0.035241 0.151379
H29   H     H_    0.318880 0.913846 0.581346 0.158585
H30   H     H_    0.681121 0.086154 0.418653 0.158585
H31   H     H_    0.984940 0.776419 0.154185 0.142697
H32   H     H_    0.015060 0.223581 0.845815 0.142697
H33   H     H_    0.679394 0.118445 0.018463 0.149057
H34   H     H_    0.074981 0.303929 0.855988 0.146659
H35   H     H_    0.320605 0.881555 0.981537 0.149057
H36   H     H_    0.158277 0.940239 0.652922 0.153784
H37   H     H_    0.841723 0.059760 0.347077 0.153784
H38   H     H_    0.001363 0.732858 0.681433 0.248581
H39   H     H_    0.100623 0.665928 0.622270 0.228804
H40   H     H_    0.018505 0.742849 0.570168 0.242803
H41   H     H_    0.998638 0.267143 0.318568 0.248580
H42   H     H_    0.981494 0.257150 0.429834 0.242803
H43   H     H_    0.899377 0.334072 0.377731 0.228805
H44   H     H_    0.853090 0.431378 0.986392 0.242191
H45   H     H_    0.670841 0.900150 0.180274 0.169857
H46   H     H_    0.915832 0.323168 0.974895 0.220385
H47   H     H_    0.896615 0.420053 0.878050 0.274738
H48   H     H_    0.146910 0.568622 0.013608 0.242191
H49   H     H_    0.103385 0.579947 0.121950 0.274737
H50   H     H_    0.084168 0.676832 0.025105 0.220385
H51   H     H_    0.480890 0.123871 0.720827 0.242750
H52   H     H_    0.573583 0.042232 0.757211 0.212786
H53   H     H_    0.506098 0.006848 0.743788 0.264524
H54   H     H_    0.519110 0.876128 0.279173 0.242750
H55   H     H_    0.493902 0.993152 0.256212 0.264524
H56   H     H_    0.329158 0.099850 0.819726 0.169857
H57   H     H_    0.426417 0.957768 0.242788 0.212786
H58   H     H_    0.205025 0.749559 0.004189 0.253097
H59   H     H_    0.094921 0.831321 0.024324 0.237867
H60   H     H_    0.174936 0.828508 0.055137 0.252327
H61   H     H_    0.794975 0.250441 0.995811 0.253097
H62   H     H_    0.825064 0.171492 0.944863 0.252327
H63   H     H_    0.905078 0.168679 0.975676 0.237867
H64   H     H_    0.702324 0.989549 0.224336 0.253777
H65   H     H_    0.766547 0.994236 0.110320 0.237346
H66   H     H_    0.800973 0.021361 0.166638 0.252894
H67   H     H_    0.971527 0.664640 0.438015 0.172554
H68   H     H_    0.297676 0.010451 0.775663 0.253778
H69   H     H_    0.199027 0.978639 0.833362 0.252894
H70   H     H_    0.233453 0.005763 0.889680 0.237346
H71   H     H_    0.993707 0.147392 0.672144 0.252958
H72   H     H_    0.010605 0.028221 0.718664 0.242057
H73   H     H_    0.006889 0.081703 0.780852 0.241630
H74   H     H_    0.006292 0.852606 0.327857 0.252958
H75   H     H_    0.993111 0.918295 0.219149 0.241631
H76   H     H_    0.989395 0.971777 0.281337 0.242057
H77   H     H_    0.028473 0.335360 0.561985 0.172554
H78   H     H_    0.663816 0.432121 0.965980 0.169799
I1    I     I_    0.260199 0.500900 0.332617 -0.327092
I2    I     I_    0.739801 0.499101 0.667383 -0.327092
I3    I     I_    0.574806 0.349942 0.221258 -0.374200
I4    I     I_    0.425194 0.650058 0.778742 -0.374199
I5    I     I_    0.302135 0.201964 0.598944 -0.416676
I6    I     I_    0.697864 0.798036 0.401057 -0.416674
O1    O     O_3   0.250000 0.250000 0.250000 -0.482397
O2    O     O_R   0.865800 0.694910 0.573470 -0.636207
O3    O     O_R   0.305090 0.426530 0.134200 -0.647780
O4    O     O_R   0.694910 0.573470 0.865800 -0.647779
O5    O     O_R   0.426530 0.134200 0.305090 -0.651519
O6    O     O_R   0.573470 0.865800 0.694910 -0.651519
O7    O     O_R   0.134190 0.426530 0.134200 -0.650875
O8    O     O_R   0.865810 0.573470 0.865800 -0.650875
O9    O     O_R   0.426530 0.134200 0.134190 -0.625740
O10   O     O_R   0.573470 0.865800 0.865810 -0.625741
O11   O     O_R   0.134200 0.134190 0.426530 -0.644020
O12   O     O_3   0.750000 0.750000 0.750000 -0.482397
O13   O     O_R   0.865800 0.865810 0.573470 -0.644021
O14   O     O_R   0.426530 0.305080 0.134210 -0.630064
O15   O     O_R   0.573470 0.694920 0.865790 -0.630063
O16   O     O_R   0.305080 0.134210 0.426530 -0.624995
O17   O     O_R   0.694920 0.865790 0.573470 -0.624995
O18   O     O_R   0.134210 0.426530 0.305080 -0.641726
O19   O     O_R   0.865790 0.573470 0.694920 -0.641726
O20   O     O_R   0.305080 0.134200 0.134200 -0.667343
O21   O     O_R   0.694920 0.865800 0.865800 -0.667343
O22   O     O_R   0.134200 0.134200 0.305080 -0.642857
O23   O     O_R   0.865800 0.865800 0.694920 -0.642857
O24   O     O_R   0.134200 0.305080 0.134200 -0.637534
O25   O     O_R   0.865800 0.694920 0.865800 -0.637534
O26   O     O_R   0.134200 0.305090 0.426530 -0.636208
Zn1   Zn    Zn3+2 0.206620 0.206630 0.380140 0.987384
Zn2   Zn    Zn3+2 0.793380 0.793370 0.619860 0.987384
Zn3   Zn    Zn3+2 0.206630 0.380140 0.206620 0.972256
Zn4   Zn    Zn3+2 0.793370 0.619860 0.793380 0.972256
Zn5   Zn    Zn3+2 0.380140 0.206620 0.206630 0.984393
Zn6   Zn    Zn3+2 0.619860 0.793380 0.793370 0.984392
Zn7   Zn    Zn3+2 0.206620 0.206620 0.206620 0.945404
Zn8   Zn    Zn3+2 0.793380 0.793380 0.793380 0.945404

loop_
_geom_bond_atom_site_label_1
_geom_bond_atom_site_label_2
_ccdc_geom_bond_type
C101  C107  A    
C21   H64   S    
C15   C107  S    
C48   H33   S    
O18   Zn3   S    
C89   C95   A    
O4    Zn4   S    
C14   H42   S    
C86   H6    S    
C44   O11   A    
O12   Zn4   S    
C36   C42   A    
C1    C11   S    
C6    C55   S    
C42   H28   S    
C82   O4    A    
C17   H52   S    
C92   C98   A    
C21   H66   S    
C55   O13   A    
C91   H10   S    
C38   C76   S    
C53   C99   A    
C48   C54   A    
C30   I5    S    
C29   C36   A    
C35   C75   S    
C98   C105  A    
C14   C106  S    
C1    O20   A    
O11   Zn1   S    
C28   I3    S    
C108  C115  A    
O19   Zn4   S    
C24   H24   S    
O14   Zn5   S    
C45   H30   S    
C19   H59   S    
C93   H13   S    
C84   O17   A    
C97   H17   S    
O13   Zn2   S    
C12   C105  S    
C84   O6    A    
C64   C71   A    
C13   C57   A    
C45   C51   A    
C68   C74   A    
C87   C94   A    
C46   C52   A    
C87   H7    S    
C54   C110  A    
C100  H1    S    
C32   C39   A    
C55   O23   A    
C14   H43   S    
C9    C66   S    
C38   C45   A    
C109  C116  A    
C94   H14   S    
C104  H45   S    
C113  C119  A    
C90   H9    S    
C85   H5    S    
C16   H49   S    
C82   O15   A    
C18   H57   S    
C50   H36   S    
C94   C101  A    
C15   H46   S    
C102  C108  A    
C86   C119  A    
C67   C73   A    
O6    Zn6   S    
C22   H70   S    
C70   C84   S    
O20   Zn7   S    
C59   C73   A    
C4    C90   A    
C77   O8    A    
C95   C102  A    
C8    C114  A    
C47   C53   A    
C18   H55   S    
C46   H31   S    
C65   C80   S    
C22   H68   S    
O21   Zn8   S    
C7    C118  A    
C99   H19   S    
C80   O2    A    
C85   C118  A    
C6    C112  A    
C19   C52   S    
C23   H71   S    
C23   H72   S    
C85   C92   A    
C17   H53   S    
C1    O9    A    
C71   C83   S    
C27   C34   A    
C106  C113  A    
O2    Zn2   S    
C9    C115  A    
C15   H44   S    
O1    Zn5   S    
C92   H11   S    
C67   C79   S    
C18   C111  S    
C60   C67   A    
C96   H16   S    
C3    C8    A    
C103  C109  A    
C32   C73   S    
C26   C32   A    
C19   H58   S    
C22   C56   S    
C28   C110  A    
C13   H22   S    
C40   C47   A    
C51   H37   S    
C61   C75   A    
O7    Zn3   S    
C30   C37   A    
C5    C117  A    
C22   H69   S    
C37   C43   A    
O1    Zn7   S    
C21   H65   S    
O5    Zn5   S    
C79   O26   A    
C86   C93   A    
C13   C30   A    
O8    Zn4   S    
C41   H27   S    
C63   C70   A    
C52   C88   A    
C27   C99   A    
C39   H25   S    
C95   H15   S    
C3    C89   A    
C64   C76   A    
C51   C58   A    
C5    C91   A    
C7    C44   S    
C91   C97   A    
C4    C11   A    
C59   H67   S    
C26   I1    S    
C93   C100  A    
C88   H18   S    
C31   I6    S    
C83   O5    A    
C25   H76   S    
C36   C74   S    
C60   H77   S    
C2    C56   A    
C39   C46   A    
C18   H54   S    
C24   C58   A    
C105  C112  A    
C20   H63   S    
C70   C76   A    
C8    C77   S    
O12   Zn6   S    
C34   C40   A    
O1    Zn1   S    
C102  H23   S    
C66   O24   A    
C23   H73   S    
C11   C117  A    
C15   H47   S    
C34   C72   S    
C6    C119  A    
C62   H2    S    
C10   C116  A    
O3    Zn3   S    
C79   O18   A    
C20   H62   S    
C107  C114  A    
C5    C10   A    
C23   C57   S    
C29   I4    S    
O16   Zn1   S    
C43   H29   S    
C50   C57   A    
C77   O25   A    
O15   Zn6   S    
C4    C116  A    
O10   Zn6   S    
C27   I2    S    
C20   C53   S    
C12   H40   S    
C17   C109  S    
C61   H78   S    
C104  C111  A    
C63   H3    S    
C33   O10   A    
C17   H51   S    
C43   C50   A    
C90   C96   A    
C25   H75   S    
C40   H26   S    
C100  C106  A    
C65   C72   A    
C37   C78   S    
C33   O21   A    
C31   C38   A    
C81   O3    A    
C111  C117  A    
O12   Zn8   S    
C7    C113  A    
C14   H41   S    
O1    Zn3   S    
C66   O7    A    
C24   C31   A    
C68   C82   S    
C87   C120  A    
C49   C56   A    
C64   H4    S    
C59   C65   A    
C80   O19   A    
C112  C118  A    
C83   O16   A    
O23   Zn8   S    
C61   C68   A    
C21   C54   S    
C101  H34   S    
C16   H48   S    
C81   O14   A    
C2    H21   S    
O17   Zn2   S    
C110  H20   S    
C103  H56   S    
O12   Zn2   S    
C41   C48   A    
C69   C75   A    
C10   C33   S    
C12   H39   S    
C49   H35   S    
O26   Zn1   S    
C35   C41   A    
C97   C104  A    
C69   C81   S    
C16   C108  S    
C42   C49   A    
C16   H50   S    
O24   Zn7   S    
C2    C29   A    
C47   H32   S    
C62   C69   A    
C26   C88   A    
C25   C58   S    
C96   C103  A    
C98   H12   S    
O22   Zn7   S    
C9    C120  A    
C60   C72   A    
C62   C74   A    
C3    C115  A    
C12   H38   S    
O25   Zn8   S    
O9    Zn5   S    
C28   C35   A    
C44   O22   A    
C19   H60   S    
C89   H8    S    
C71   C78   A    
C114  C120  A    
C25   H74   S    
C20   H61   S    
C63   C78   A    
