data_mof_unit_11049.cif
_audit_creation_date              2012-12-11T14:52:33-0500
_audit_creation_method            fapswitch 2.2
_symmetry_space_group_name_H-M    P1
_symmetry_Int_Tables_number       1
_space_group_crystal_system       triclinic
_cell_length_a                    18.846058
_cell_length_b                    10.913891
_cell_length_c                    18.778727
_cell_angle_alpha                 89.929057
_cell_angle_beta                  91.036615
_cell_angle_gamma                 89.782125
_cell_volume                      3861.81699451

loop_
_atom_site_label
_atom_site_type_symbol
_atom_type_description
_atom_site_fract_x
_atom_site_fract_y
_atom_site_fract_z
_atom_type_partial_charge
C1    C     C_R   0.271992 0.042365 0.853516 0.535710
C2    C     C_R   0.683861 0.573712 0.030838 -0.141076
C3    C     C_3   0.997847 0.329606 0.072905 0.051724
C4    C     C_R   0.808716 0.046310 0.964127 -0.152761
C5    C     C_R   0.199838 0.027406 0.037413 -0.145574
C6    C     C_R   0.300997 0.527674 0.036711 -0.152698
C7    C     C_R   0.693720 0.542253 0.959610 -0.146248
C8    C     C_R   0.802043 0.033986 0.037534 -0.158186
C9    C     C_R   0.204016 0.011127 0.964050 -0.145308
C10   C     C_R   0.237575 0.561643 0.069225 0.030420
C11   C     C_R   0.749082 0.595550 0.921429 0.028275
C12   C     C_R   0.737309 0.061618 0.069197 0.030352
C13   C     C_R   0.725630 0.037727 0.144275 0.538191
C14   C     C_R   0.252505 0.080403 0.924657 0.028708
C15   C     C_R   0.179324 0.600307 0.027191 -0.146621
C16   C     C_R   0.790872 0.686756 0.953823 -0.128689
C17   C     C_R   0.678287 0.094187 0.026426 -0.142634
C18   C     C_R   0.293738 0.169811 0.958408 -0.135738
C19   C     C_R   0.184916 0.609356 0.954487 -0.142099
C20   C     C_R   0.782011 0.715913 0.024836 -0.140063
C21   C     C_R   0.684404 0.103751 0.953709 -0.138322
C22   C     C_R   0.290969 0.183557 0.031059 -0.138329
C23   C     C_R   0.249839 0.585582 0.922280 0.030135
C24   C     C_R   0.771682 0.544178 0.853267 0.533922
C25   C     C_R   0.730215 0.656894 0.064666 0.018509
C26   C     C_R   0.750260 0.085424 0.922310 0.031068
C27   C     C_R   0.244968 0.111306 0.071457 0.026055
C28   C     C_R   0.529141 0.736085 0.544726 -0.126600
C29   C     C_R   0.538201 0.731831 0.472347 -0.122809
C30   C     C_R   0.029181 0.236113 0.544740 -0.126779
C31   C     C_R   0.038244 0.231857 0.472359 -0.122801
C32   C     C_R   0.513449 0.827894 0.428440 0.013446
C33   C     C_R   0.493310 0.834869 0.574271 0.064313
C34   C     C_R   0.013472 0.327900 0.428449 0.014012
C35   C     C_R   0.225667 0.537663 0.144265 0.543176
C36   C     C_R   0.993335 0.334881 0.574281 0.064052
C37   C     C_R   0.480250 0.929886 0.457937 -0.137204
C38   C     C_R   0.468959 0.932387 0.530865 -0.072182
C39   C     C_R   0.980261 0.429879 0.457944 -0.136720
C40   C     C_R   0.968971 0.432381 0.530871 -0.072306
C41   C     C_R   0.438584 0.817270 0.862429 0.560080
C42   C     C_R   0.527303 0.822051 0.145673 0.537836
C43   C     C_R   0.938817 0.317328 0.862456 0.559927
C44   C     C_R   0.027501 0.322061 0.145568 0.547226
C45   C     C_R   0.183966 0.567828 0.545389 0.213487
C46   C     C_3   0.510585 0.732523 0.973986 -0.104836
C47   C     C_R   0.794115 0.688956 0.476836 0.222141
C48   C     C_R   0.684059 0.067602 0.545392 0.213518
C49   C     C_R   0.294271 0.188623 0.476775 0.222957
C50   C     C_R   0.176901 0.557528 0.472793 -0.086936
C51   C     C_R   0.789264 0.683841 0.549290 -0.092037
C52   C     C_R   0.676968 0.057207 0.472801 -0.086978
C53   C     C_R   0.289378 0.183648 0.549226 -0.092312
C54   C     C_R   0.237100 0.562799 0.429850 0.001637
C55   C     C_R   0.746427 0.596241 0.580153 -0.014769
C56   C     C_R   0.737124 0.062870 0.429819 0.001635
C57   C     C_3   0.458983 0.722284 0.036440 -0.119223
C58   C     C_R   0.246466 0.096190 0.580121 -0.014968
C59   C     C_R   0.304986 0.569326 0.459363 -0.112489
C60   C     C_R   0.697513 0.529097 0.538990 -0.154283
C61   C     C_R   0.805008 0.069928 0.459277 -0.112089
C62   C     C_R   0.197521 0.029083 0.538973 -0.154403
C63   C     C_R   0.312495 0.579203 0.532155 -0.149467
C64   C     C_R   0.697543 0.540427 0.465813 -0.191228
C65   C     C_R   0.812540 0.079876 0.532063 -0.149210
C66   C     C_R   0.197563 0.040347 0.465791 -0.191240
C67   C     C_R   0.251787 0.584162 0.574812 0.034681
C68   C     C_3   0.012263 0.234166 0.973512 -0.103759
C69   C     C_R   0.746735 0.617703 0.433943 0.028559
C70   C     C_R   0.751856 0.084357 0.574763 0.034887
C71   C     C_R   0.246812 0.117493 0.433900 0.030088
C72   C     C_R   0.260539 0.634789 0.851296 0.542909
C73   C     C_R   0.725639 0.684965 0.140819 0.552955
C74   C     C_R   0.760602 0.134803 0.851313 0.543179
C75   C     C_R   0.238109 0.141228 0.146445 0.542720
C76   C     C_R   0.269618 0.049194 0.647944 0.545012
C77   C     C_R   0.726944 0.042272 0.355587 0.550897
C78   C     C_R   0.769613 0.549202 0.647952 0.544729
C79   C     C_3   0.960786 0.221575 0.035907 -0.117681
C80   C     C_R   0.226931 0.542238 0.355604 0.547873
C81   C     C_R   0.468839 0.824024 0.646431 0.574347
C82   C     C_R   0.531752 0.823064 0.354064 0.542662
C83   C     C_R   0.968847 0.324026 0.646436 0.574168
C84   C     C_R   0.031759 0.323064 0.354069 0.542771
C85   C     C_R   0.259902 0.634475 0.644633 0.586418
C86   C     C_R   0.739210 0.642947 0.358857 0.568135
C87   C     C_R   0.759918 0.134522 0.644615 0.586377
C88   C     C_R   0.239237 0.142855 0.358829 0.560513
C89   C     C_3   0.446719 0.922846 0.037903 -0.125904
C90   C     C_R   0.307463 0.540857 0.963304 -0.151580
C91   C     C_3   0.498153 0.932955 0.974647 -0.107043
C92   C     C_3   0.946273 0.421689 0.038044 -0.126869
C93   C     C_3   0.997578 0.434154 0.974816 -0.109375
C94   C     C_3   0.407875 0.815326 0.999937 -0.140720
C95   C     C_3   0.549023 0.839878 0.011058 -0.114044
C96   C     C_3   0.908650 0.313286 0.999769 -0.141758
C97   C     C_3   0.049491 0.342422 0.010958 -0.111196
C98   C     C_3   0.459939 0.825197 0.938183 0.051725
C99   C     C_3   0.497294 0.829450 0.073084 0.050898
C100  C     C_3   0.960549 0.325457 0.938043 0.049613
Cl1   Cl    Cl    0.107058 0.565466 0.597314 -0.610807
Cl2   Cl    Cl    0.864680 0.780924 0.446244 -0.613132
Cl3   Cl    Cl    0.607214 0.064791 0.597389 -0.610938
Cl4   Cl    Cl    0.364977 0.280264 0.446167 -0.613703
Cr1   Cr    Cr6+3 0.229630 0.835900 0.747350 1.047614
Cr2   Cr    Cr6+3 0.614200 0.677120 0.250660 1.022528
Cr3   Cr    Cr6+3 0.885800 0.177120 0.749340 1.020209
Cr4   Cr    Cr6+3 0.114200 0.177120 0.250660 1.025397
Cr5   Cr    Cr6+3 0.770370 0.835900 0.252650 1.061894
Cr6   Cr    Cr6+3 0.729630 0.335900 0.747350 1.048898
Cr7   Cr    Cr6+3 0.270370 0.335900 0.252650 1.064574
Cr8   Cr    Cr6+3 0.387410 0.989850 0.750850 1.051244
Cr9   Cr    Cr6+3 0.612590 0.989850 0.249150 1.026413
Cr10  Cr    Cr6+3 0.887410 0.489850 0.750850 1.051119
Cr11  Cr    Cr6+3 0.112590 0.489850 0.249150 1.031415
Cr12  Cr    Cr6+3 0.385800 0.677120 0.749340 1.019973
H1    H     H_    0.349452 0.805501 0.993881 0.120451
H2    H     H_    0.663194 0.461436 0.562627 0.166040
H3    H     H_    0.851491 0.069785 0.426118 0.163498
H4    H     H_    0.163151 0.961521 0.562632 0.166089
H5    H     H_    0.365474 0.591916 0.554264 0.159598
H6    H     H_    0.660149 0.487344 0.434163 0.145288
H7    H     H_    0.865496 0.092975 0.554140 0.159484
H8    H     H_    0.160120 0.987341 0.434155 0.144724
H9    H     H_    0.420683 0.000426 0.065441 0.123159
H10   H     H_    0.514366 0.019206 0.948233 0.119573
H11   H     H_    0.919363 0.498146 0.065795 0.129450
H12   H     H_    0.607490 0.849659 0.016697 0.118343
H13   H     H_    0.012882 0.521170 0.948663 0.120841
H14   H     H_    0.537167 0.654402 0.947473 0.131605
H15   H     H_    0.443532 0.636078 0.063219 0.118394
H16   H     H_    0.039780 0.157244 0.946767 0.133806
H17   H     H_    0.946659 0.134519 0.062464 0.118805
H18   H     H_    0.358243 0.522098 0.939426 0.129450
H19   H     H_    0.642078 0.529268 0.059969 0.138265
H20   H     H_    0.860260 0.031879 0.940891 0.131051
H21   H     H_    0.162479 0.973759 0.067442 0.128033
H22   H     H_    0.345392 0.492503 0.068001 0.114046
H23   H     H_    0.850338 0.301955 0.993701 0.122239
H24   H     H_    0.660541 0.472081 0.935729 0.130427
H25   H     H_    0.847133 0.003709 0.069520 0.113041
H26   H     H_    0.171938 0.940695 0.938915 0.135395
H27   H     H_    0.128401 0.621692 0.050091 0.138569
H28   H     H_    0.833402 0.730881 0.925570 0.136348
H29   H     H_    0.626528 0.110570 0.048818 0.139008
H30   H     H_    0.331063 0.225039 0.929233 0.135016
H31   H     H_    0.139274 0.642216 0.924061 0.133878
H32   H     H_    0.817500 0.781810 0.049346 0.131204
H33   H     H_    0.638285 0.132421 0.922575 0.133399
H34   H     H_    0.107834 0.354100 0.016719 0.125174
H35   H     H_    0.324622 0.252701 0.055286 0.137977
H36   H     H_    0.547605 0.659824 0.577225 0.137868
H37   H     H_    0.565540 0.653241 0.450837 0.151617
H38   H     H_    0.047653 0.159863 0.577241 0.137937
H39   H     H_    0.065596 0.153282 0.450849 0.151736
H40   H     H_    0.462226 0.005497 0.424752 0.160727
H41   H     H_    0.439609 0.008538 0.552923 0.175326
H42   H     H_    0.962222 0.505475 0.424756 0.161083
H43   H     H_    0.939605 0.508514 0.552926 0.175386
H44   H     H_    0.124209 0.544902 0.449968 0.173920
H45   H     H_    0.826148 0.737350 0.581440 0.174653
H46   H     H_    0.624296 0.044217 0.450006 0.173845
H47   H     H_    0.326297 0.237122 0.581356 0.174640
H48   H     H_    0.351498 0.568845 0.426241 0.163570
O1    O     O_R   0.214270 0.709000 0.827470 -0.517206
O2    O     O_R   0.543270 0.717630 0.330160 -0.519639
O3    O     O_R   0.956730 0.217630 0.669840 -0.528258
O4    O     O_R   0.043270 0.217630 0.330160 -0.520366
O5    O     O_R   0.320620 0.625640 0.672920 -0.522918
O6    O     O_R   0.679380 0.625640 0.327080 -0.514201
O7    O     O_R   0.820620 0.125640 0.672920 -0.522909
O8    O     O_R   0.179380 0.125640 0.327080 -0.519253
O9    O     O_3   0.334280 0.834290 0.749180 -0.283028
O10   O     O_3   0.665720 0.834290 0.250820 -0.281783
O11   O     O_3   0.834280 0.334290 0.749180 -0.282546
O12   O     O_R   0.785730 0.709000 0.172530 -0.517177
O13   O     O_3   0.165720 0.334290 0.250820 -0.263741
O14   O     O_R   0.236160 0.958490 0.823130 -0.511473
O15   O     O_R   0.763840 0.958490 0.176870 -0.524613
O16   O     O_R   0.736160 0.458490 0.823130 -0.508535
O17   O     O_R   0.263840 0.458490 0.176870 -0.510143
O18   O     O_R   0.332080 0.075470 0.831280 -0.529475
O19   O     O_R   0.667920 0.075470 0.168720 -0.520697
O20   O     O_R   0.832080 0.575470 0.831280 -0.530575
O21   O     O_R   0.167920 0.575470 0.168720 -0.524962
O22   O     O_R   0.446300 0.918110 0.826620 -0.492432
O23   O     O_R   0.714270 0.209000 0.827470 -0.514722
O24   O     O_R   0.553700 0.918110 0.173380 -0.507289
O25   O     O_R   0.946300 0.418110 0.826620 -0.492142
O26   O     O_R   0.053700 0.418110 0.173380 -0.504569
O27   O     O_R   0.457110 0.716200 0.831760 -0.518501
O28   O     O_R   0.542890 0.716200 0.168240 -0.526846
O29   O     O_R   0.957110 0.216200 0.831760 -0.518795
O30   O     O_R   0.042890 0.216200 0.168240 -0.518131
O31   O     O_R   0.320980 0.624310 0.823030 -0.523179
O32   O     O_R   0.679020 0.624310 0.176970 -0.500602
O33   O     O_R   0.820980 0.124310 0.823030 -0.523645
O34   O     O_R   0.285730 0.209000 0.172530 -0.529004
O35   O     O_R   0.179020 0.124310 0.176970 -0.501895
O36   O     O_R   0.213890 0.710430 0.665540 -0.452237
O37   O     O_R   0.786110 0.710430 0.334460 -0.441956
O38   O     O_R   0.713890 0.210430 0.665540 -0.452627
O39   O     O_R   0.286110 0.210430 0.334460 -0.445305
O40   O     O_R   0.235810 0.959820 0.673020 -0.501996
O41   O     O_R   0.764190 0.959820 0.326980 -0.466658
O42   O     O_R   0.735810 0.459820 0.673020 -0.502381
O43   O     O_R   0.264190 0.459820 0.326980 -0.467492
O44   O     O_R   0.331700 0.076900 0.669350 -0.522340
O45   O     O_R   0.445950 0.919440 0.676520 -0.472546
O46   O     O_R   0.668300 0.076900 0.330650 -0.523334
O47   O     O_R   0.831700 0.576900 0.669350 -0.522369
O48   O     O_R   0.168300 0.576900 0.330650 -0.525922
O49   O     O_R   0.554050 0.919440 0.323480 -0.501355
O50   O     O_R   0.945950 0.419440 0.676520 -0.472527
O51   O     O_R   0.054050 0.419440 0.323480 -0.502552
O52   O     O_R   0.456730 0.717630 0.669840 -0.528311

loop_
_geom_bond_atom_site_label_1
_geom_bond_atom_site_label_2
_ccdc_geom_bond_type
C56   C61   A    
C58   C62   A    
C81   O45   A    
C21   C26   A    
C35   O21   A    
C88   O8    A    
C91   H10   S    
C93   C97   S    
C61   H3    S    
Cr2   O6    S    
C72   O1    A    
Cr10  O50   S    
C40   H43   S    
C17   H29   S    
C2    C7    A    
Cr9   O49   S    
Cr1   O14   S    
C4    C8    A    
C3    C79   S    
C49   Cl4   S    
C68   C100  S    
Cr5   O12   S    
C58   C76   S    
Cr3   O7    S    
Cr6   O11   S    
C46   C98   S    
C7    C11   A    
C50   C54   A    
Cr11  O48   S    
C89   C99   S    
Cr2   O2    S    
C28   C29   A    
C16   H28   S    
C14   C18   A    
Cr9   O46   S    
C15   C19   A    
C29   C32   A    
C10   C15   A    
Cr7   O34   S    
Cr8   O22   S    
C30   C31   A    
Cr11  O21   S    
C94   H1    S    
Cr10  O20   S    
C81   O52   A    
C24   O20   A    
C20   C25   A    
C94   C98   S    
C36   C83   S    
C65   C70   A    
C57   C99   S    
C11   C24   S    
C92   C96   S    
C76   O44   A    
C11   C16   A    
C89   C94   S    
C68   H16   S    
Cr5   O15   S    
C68   C97   S    
C47   C69   A    
C59   H48   S    
C44   O26   A    
C5    C27   A    
Cr12  O31   S    
C95   H12   S    
Cr1   O36   S    
C46   C95   S    
C13   O19   A    
C12   C17   A    
C24   O16   A    
C97   H34   S    
C20   H32   S    
C60   H2    S    
C8    H25   S    
C21   H33   S    
C8    C12   A    
C89   C91   S    
C87   O38   A    
C62   H4    S    
C84   O51   A    
Cr12  O52   S    
C4    H20   S    
C68   C79   S    
Cr10  O25   S    
Cr8   O9    S    
Cr4   O4    S    
C88   O39   A    
C47   Cl2   S    
Cr1   O9    S    
C55   C60   A    
C1    O18   A    
Cr11  O26   S    
C37   H40   S    
C34   C84   S    
C96   H23   S    
C93   H13   S    
C70   C87   S    
C80   O48   A    
C63   H5    S    
C54   C80   S    
C54   C59   A    
C79   H17   S    
Cr3   O3    S    
Cr6   O23   S    
C67   C85   S    
C62   C66   A    
C34   C39   A    
C90   H18   S    
C57   C94   S    
C36   C40   A    
C43   C100  S    
Cr8   O44   S    
Cr7   O39   S    
C39   C40   A    
Cr3   O33   S    
C55   C78   S    
C41   O27   A    
Cr5   O10   S    
C53   H47   S    
Cr1   O40   S    
C89   H9    S    
C51   C55   A    
C50   H44   S    
C6    C90   A    
C48   Cl3   S    
C83   O3    A    
C42   O28   A    
C19   H31   S    
C56   C77   S    
C3    C92   S    
Cr10  O47   S    
C6    H22   S    
C19   C23   A    
C9    C14   A    
C78   O42   A    
C63   C67   A    
C5    C9    A    
C37   C38   A    
C84   O4    A    
C77   O41   A    
C82   O49   A    
C1    O14   A    
C3    C97   S    
C85   O36   A    
C4    C26   A    
C66   C71   A    
C93   C100  S    
C74   O33   A    
Cr6   O16   S    
C78   O47   A    
C16   C20   A    
C87   O7    A    
Cr2   O10   S    
C23   C90   A    
Cr11  O51   S    
Cr6   O42   S    
C32   C37   A    
Cr6   O38   S    
Cr5   O41   S    
C86   O37   A    
Cr11  O13   S    
C45   Cl1   S    
C77   O46   A    
C15   H27   S    
Cr12  O9    S    
Cr10  O11   S    
Cr12  O27   S    
C28   C33   A    
C28   H36   S    
C3    C44   S    
Cr4   O8    S    
C39   H42   S    
C22   C27   A    
C66   H8    S    
C31   H39   S    
Cr4   O30   S    
C92   H11   S    
Cr7   O43   S    
Cr3   O29   S    
C83   O50   A    
C31   C34   A    
C29   H37   S    
C74   O23   A    
C82   O2    A    
C75   O34   A    
C42   O24   A    
C22   H35   S    
Cr2   O32   S    
C86   O6    A    
C44   O30   A    
C23   C72   S    
C57   H15   S    
C95   C99   S    
C2    H19   S    
C72   O31   A    
C48   C70   A    
C18   H30   S    
C46   H14   S    
C47   C51   A    
C9    H26   S    
C76   O40   A    
C5    H21   S    
C45   C67   A    
C75   O35   A    
C35   O17   A    
C64   C69   A    
C43   O29   A    
C59   C63   A    
C33   C38   A    
Cr7   O17   S    
C30   C36   A    
C60   C64   A    
Cr8   O45   S    
C38   H41   S    
Cr4   O35   S    
C18   C22   A    
C79   C96   S    
C46   C57   S    
C13   O15   A    
C42   C99   S    
C32   C82   S    
Cr9   O24   S    
Cr9   O19   S    
Cr3   O11   S    
C45   C50   A    
C73   O12   A    
C49   C53   A    
C96   C100  S    
Cr5   O37   S    
C92   C93   S    
C26   C74   S    
Cr1   O1    S    
Cr12  O5    S    
C51   H45   S    
C2    C25   A    
C25   C73   S    
C65   H7    S    
C91   C98   S    
Cr8   O18   S    
C85   O5    A    
C6    C10   A    
C27   C75   S    
C91   C95   S    
C71   C88   S    
C10   C35   S    
C61   C65   A    
C7    H24   S    
C30   H38   S    
C80   O43   A    
C12   C13   S    
C43   O25   A    
C64   H6    S    
C49   C71   A    
C73   O32   A    
C41   O22   A    
Cr7   O13   S    
C41   C98   S    
C1    C14   S    
C48   C52   A    
C33   C81   S    
Cr2   O28   S    
C53   C58   A    
Cr4   O13   S    
C69   C86   S    
C52   C56   A    
C52   H46   S    
Cr9   O10   S    
C17   C21   A    
