data_mof_unit_10249.cif
_audit_creation_date              2012-12-11T14:39:22-0500
_audit_creation_method            fapswitch 2.2
_symmetry_space_group_name_H-M    P1
_symmetry_Int_Tables_number       1
_space_group_crystal_system       triclinic
_cell_length_a                    7.245714
_cell_length_b                    13.705716
_cell_length_c                    16.738529
_cell_angle_alpha                 89.999805
_cell_angle_beta                  96.950148
_cell_angle_gamma                 90.000163
_cell_volume                      1650.05015408

loop_
_atom_site_label
_atom_site_type_symbol
_atom_type_description
_atom_site_fract_x
_atom_site_fract_y
_atom_site_fract_z
_atom_type_partial_charge
O1    O     O_R   0.525340 0.338340 0.164530 -0.543003
O2    O     O_R   0.474660 0.661660 0.835470 -0.546752
O3    O     O_R   0.974660 0.838340 0.835470 -0.543001
O4    O     O_R   0.025340 0.161660 0.164530 -0.546762
O5    O     O_R   0.253520 0.352000 0.336710 -0.527851
O6    O     O_R   0.746480 0.648000 0.663290 -0.522815
O7    O     O_R   0.246480 0.852000 0.663290 -0.527855
O8    O     O_R   0.753520 0.148000 0.336710 -0.522798
O9    O     O_R   0.083330 0.168380 0.337300 -0.521658
O10   O     O_R   0.916670 0.831620 0.662700 -0.512817
O11   O     O_R   0.416670 0.668380 0.662700 -0.521651
O12   O     O_R   0.583330 0.331620 0.337300 -0.512820
C1    C     C_R   0.432274 0.370042 0.362990 0.781570
C2    C     C_R   0.568778 0.628307 0.638189 0.781991
C3    C     C_R   0.067726 0.870041 0.637009 0.781572
C4    C     C_R   0.931223 0.128309 0.361812 0.781966
O13   O     O_R   0.195840 0.349670 0.165140 -0.552012
O14   O     O_R   0.804160 0.650330 0.834860 -0.544976
O15   O     O_R   0.304160 0.849670 0.834860 -0.552015
O16   O     O_R   0.695840 0.150330 0.165140 -0.544968
C5    C     C_R   0.356495 0.369554 0.136113 0.749196
C6    C     C_R   0.642871 0.629158 0.863038 0.749864
C7    C     C_R   0.143505 0.869554 0.863887 0.749193
C8    C     C_R   0.857128 0.129160 0.136960 0.749851
O17   O     O_3   0.387830 0.193120 0.250910 -0.377602
O18   O     O_3   0.612170 0.806880 0.749090 -0.371717
O19   O     O_3   0.112170 0.693120 0.749090 -0.377592
O20   O     O_3   0.887830 0.306880 0.250910 -0.371721
V1    V     V_3+5 0.113010 0.264540 0.250910 1.469815
V2    V     V_3+5 0.886990 0.735460 0.749090 1.464790
V3    V     V_3+5 0.386990 0.764540 0.749090 1.469834
V4    V     V_3+5 0.613010 0.235460 0.250910 1.464803
H1    H     H_    0.878452 0.784140 0.271048 0.119931
H2    H     H_    0.137264 0.210621 0.727244 0.126687
H3    H     H_    0.621607 0.284134 0.728948 0.119901
H4    H     H_    0.362791 0.710624 0.272752 0.126683
C9    C     C_R   0.019549 0.207640 0.525383 -0.117403
C10   C     C_R   0.990339 0.789529 0.473039 -0.117870
C11   C     C_R   0.480467 0.707642 0.474616 -0.117396
C12   C     C_R   0.509684 0.289529 0.526959 -0.117876
C13   C     C_R   0.079655 0.243573 0.602560 -0.055231
C14   C     C_R   0.952936 0.752327 0.394791 -0.052702
C15   C     C_R   0.420385 0.743576 0.397436 -0.055244
C16   C     C_R   0.547105 0.252325 0.605206 -0.052699
C17   C     C_R   0.101069 0.181247 0.667176 -0.224987
C18   C     C_R   0.907841 0.814362 0.331182 -0.225875
C19   C     C_R   0.398970 0.681250 0.332822 -0.224992
C20   C     C_R   0.592205 0.314359 0.668814 -0.225849
C21   C     C_R   0.063928 0.082109 0.657498 0.287420
C22   C     C_R   0.895485 0.914769 0.342108 0.282485
C23   C     C_R   0.436093 0.582110 0.342502 0.287426
C24   C     C_R   0.604540 0.414768 0.657893 0.282478
C25   C     C_R   0.032514 0.039283 0.578683 0.063798
C26   C     C_R   0.945724 0.958113 0.420228 0.069370
C27   C     C_R   0.467496 0.539284 0.421317 0.063800
C28   C     C_R   0.554294 0.458113 0.579772 0.069386
C29   C     C_R   0.004340 0.103405 0.510737 -0.028784
C30   C     C_R   0.988839 0.893961 0.487815 -0.025011
C31   C     C_R   0.495668 0.603406 0.489263 -0.028782
C32   C     C_R   0.511177 0.393962 0.512184 -0.024991
C33   C     C_R   0.029857 0.935620 0.566711 -0.121993
C34   C     C_R   0.960624 0.062027 0.431908 -0.122317
C35   C     C_R   0.470148 0.435621 0.433289 -0.121994
C36   C     C_R   0.539381 0.562027 0.568092 -0.122330
H5    H     H_    0.140547 0.060287 0.060725 0.154871
H6    H     H_    0.863981 0.930584 0.945826 0.154489
H7    H     H_    0.359455 0.560294 0.939280 0.154869
H8    H     H_    0.636015 0.430575 0.054168 0.154490
C37   C     C_2   0.151437 0.937542 0.933628 -0.342715
C38   C     C_2   0.850779 0.058939 0.068767 -0.351145
C39   C     C_2   0.348563 0.437542 0.066372 -0.342716
C40   C     C_2   0.649220 0.558931 0.931228 -0.351154
C41   C     C_2   0.998272 0.961458 0.968520 -0.142774
C42   C     C_2   0.005670 0.031106 0.036808 -0.133728
C43   C     C_2   0.501727 0.461454 0.031477 -0.142778
C44   C     C_2   0.494330 0.531104 0.963191 -0.133722
H9    H     H_    0.716535 0.029736 0.043988 0.122871
H10   H     H_    0.285124 0.968851 0.956675 0.124075
H11   H     H_    0.783461 0.529719 0.956000 0.122873
H12   H     H_    0.214878 0.468856 0.043328 0.124075
C45   C     C_1   0.970436 0.282925 0.465898 0.288823
N1    N     N_1   0.933021 0.345808 0.420828 -0.259761
C46   C     C_1   0.032564 0.715160 0.533996 0.285996
N2    N     N_1   0.064605 0.652896 0.580171 -0.268384
C47   C     C_1   0.529569 0.782926 0.534103 0.288819
N3    N     N_1   0.566975 0.845808 0.579174 -0.259753
C48   C     C_1   0.467444 0.215161 0.466003 0.285988
N4    N     N_1   0.435391 0.152898 0.419828 -0.268345
C49   C     C_1   0.115957 0.346359 0.617283 0.298556
N5    N     N_1   0.145843 0.428501 0.627993 -0.354408
C50   C     C_1   0.962776 0.648729 0.377783 0.288191
N6    N     N_1   0.971771 0.566047 0.364786 -0.329180
C51   C     C_1   0.384125 0.846366 0.382707 0.298543
N7    N     N_1   0.354278 0.928511 0.371988 -0.354342
C52   C     C_1   0.537271 0.148727 0.622212 0.288187
N8    N     N_1   0.528280 0.066044 0.635209 -0.329171
N9    N     N_2   0.051307 0.028150 0.728944 -0.530404
H13   H     H_    0.178070 0.022972 0.764029 0.243958
C53   C     C_3   0.902366 0.057900 0.774634 -0.505774
H14   H     H_    0.809859 0.994956 0.781793 0.232373
H15   H     H_    0.816247 0.117546 0.744904 0.191086
H16   H     H_    0.960854 0.085233 0.834819 0.176540
N10   N     N_2   0.834942 0.969561 0.271763 -0.538956
H17   H     H_    0.921255 0.959114 0.227805 0.241490
C54   C     C_3   0.640656 0.955064 0.240799 -0.459795
H18   H     H_    0.552781 0.005168 0.271708 0.250217
H19   H     H_    0.594853 0.878597 0.248270 0.166648
H20   H     H_    0.617310 0.971005 0.175473 0.163225
N11   N     N_2   0.448713 0.528150 0.271056 -0.530408
H21   H     H_    0.321952 0.522977 0.235969 0.243958
C55   C     C_3   0.597664 0.557892 0.225369 -0.505769
H22   H     H_    0.690166 0.494944 0.218216 0.232380
H23   H     H_    0.683787 0.617537 0.255099 0.191087
H24   H     H_    0.539188 0.585223 0.165182 0.176539
N12   N     N_2   0.665088 0.469554 0.728241 -0.538991
H25   H     H_    0.578854 0.459051 0.772222 0.241503
C56   C     C_3   0.859412 0.455098 0.759155 -0.459814
H26   H     H_    0.947218 0.505124 0.728139 0.250241
H27   H     H_    0.905170 0.378606 0.751781 0.166595
H28   H     H_    0.882897 0.471175 0.824456 0.163327

loop_
_geom_bond_atom_site_label_1
_geom_bond_atom_site_label_2
_ccdc_geom_bond_type
C13   C49   S    
C48   N4    T    
O1    C5    A    
C51   N7    T    
C12   C32   A    
C27   C31   A    
C10   C46   S    
O13   V1    S    
C41   C42   S    
C7    C37   S    
O3    C7    A    
C52   N8    T    
C40   C44   D    
O15   V3    S    
C45   N1    T    
C8    C38   S    
C29   C34   A    
C47   N3    T    
H8    C43   S    
C54   H19   S    
C31   C36   A    
C22   C26   A    
C5    C39   S    
C32   C35   A    
C12   C48   S    
O20   V1    S    
O9    C4    A    
C10   C14   A    
C40   H11   S    
O10   C3    A    
N11   C55   S    
O16   V4    S    
O4    C8    A    
O11   C2    A    
N12   H25   S    
H4    C19   S    
C14   C50   S    
C14   C18   A    
C10   C30   A    
C25   C33   A    
O16   C8    A    
N12   C56   S    
C27   C35   A    
C38   C42   D    
C28   C36   A    
C37   C41   D    
O14   V2    S    
C12   C16   A    
O5    C1    A    
O4    V1    S    
O9    V1    S    
C30   C33   A    
O7    C3    A    
O11   V3    S    
C22   N10   S    
O8    C4    A    
O12   V4    S    
O19   V2    S    
H1    C18   S    
C9    C45   S    
C37   H10   S    
C4    C34   S    
H3    C20   S    
C6    C40   S    
C39   H12   S    
N9    C53   S    
N9    H13   S    
O5    V1    S    
C54   H20   S    
O7    V3    S    
O8    V4    S    
N10   C54   S    
C56   H28   S    
C50   N6    T    
C25   C29   A    
C19   C23   A    
C26   C34   A    
H6    C41   S    
O1    V4    S    
O13   C5    A    
H5    C42   S    
C28   C32   A    
O2    V3    S    
O3    V2    S    
O15   C7    A    
C43   C44   S    
O2    C6    A    
O6    C2    A    
O10   V2    S    
C53   H14   S    
C1    C35   S    
C17   C21   A    
C11   C31   A    
C3    C33   S    
C55   H23   S    
H2    C17   S    
C2    C36   S    
O6    V2    S    
C46   N2    T    
C11   C47   S    
C26   C30   A    
C24   N12   S    
C55   H22   S    
C53   H15   S    
O14   C6    A    
O18   V3    S    
C11   C15   A    
C54   H18   S    
C18   C22   A    
C56   H27   S    
C16   C52   S    
N11   H21   S    
C39   C43   D    
O17   V4    S    
C21   C25   A    
C15   C51   S    
C55   H24   S    
C23   C27   A    
C9    C13   A    
C21   N9    S    
C16   C20   A    
C20   C24   A    
C53   H16   S    
O12   C1    A    
C23   N11   S    
N10   H17   S    
C13   C17   A    
H7    C44   S    
C49   N5    T    
C56   H26   S    
C15   C19   A    
C9    C29   A    
C24   C28   A    
C38   H9    S    
