data_mof_unit_12471.cif
_audit_creation_date              2012-12-11T15:08:42-0500
_audit_creation_method            fapswitch 2.2
_symmetry_space_group_name_H-M    P1
_symmetry_Int_Tables_number       1
_space_group_crystal_system       triclinic
_cell_length_a                    25.847921
_cell_length_b                    27.533718
_cell_length_c                    8.76918
_cell_angle_alpha                 89.64869
_cell_angle_beta                  96.615364
_cell_angle_gamma                 89.99834
_cell_volume                      6199.26124383

loop_
_atom_site_label
_atom_site_type_symbol
_atom_type_description
_atom_site_fract_x
_atom_site_fract_y
_atom_site_fract_z
_atom_type_partial_charge
Ba1   Ba    Ba6+2 0.999910 0.465960 0.844870 1.804381
Ba2   Ba    Ba6+2 0.999910 0.534040 0.344870 1.819142
Ba3   Ba    Ba6+2 0.499910 0.965960 0.844870 1.804381
Ba4   Ba    Ba6+2 0.499910 0.034040 0.344870 1.819142
C1    C     C_3   0.991440 0.214546 0.594939 -0.224749
C2    C     C_3   0.059774 0.752674 0.176192 -0.222131
C3    C     C_3   0.491440 0.714546 0.594939 -0.224751
C4    C     C_3   0.559774 0.252674 0.176192 -0.222131
C5    C     C_R   0.897735 0.384446 0.125400 0.160329
C6    C     C_R   0.889628 0.611272 0.645335 0.096338
C7    C     C_R   0.397735 0.884446 0.125400 0.160329
C8    C     C_R   0.389628 0.111272 0.645335 0.096338
C9    C     C_R   0.857559 0.351290 0.077529 -0.046562
C10   C     C_R   0.848767 0.644044 0.600656 -0.094534
C11   C     C_R   0.357559 0.851290 0.077529 -0.046563
C12   C     C_R   0.348767 0.144044 0.600656 -0.094533
C13   C     C_R   0.846724 0.311387 0.171401 0.008614
C14   C     C_R   0.838339 0.683703 0.693858 0.036275
C15   C     C_R   0.346724 0.811387 0.171401 0.008614
C16   C     C_R   0.338339 0.183703 0.693858 0.036275
C17   C     C_R   0.874990 0.306879 0.318172 -0.037370
C18   C     C_R   0.868861 0.689630 0.836275 0.011887
C19   C     C_R   0.374990 0.806879 0.318172 -0.037370
C20   C     C_R   0.368861 0.189630 0.836275 0.011887
C21   C     C_R   0.915154 0.339443 0.367292 -0.005818
C22   C     C_R   0.910105 0.657939 0.883235 0.017491
C23   C     C_R   0.415154 0.839443 0.367292 -0.005817
C24   C     C_R   0.410105 0.157939 0.883235 0.017491
C25   C     C_R   0.806962 0.227707 0.150334 -0.105440
C26   C     C_R   0.801533 0.768172 0.665482 -0.071848
C27   C     C_R   0.306962 0.727707 0.150334 -0.105440
C28   C     C_R   0.301533 0.268172 0.665482 -0.071848
C29   C     C_R   0.265441 0.695429 0.107830 -0.007605
C30   C     C_R   0.261340 0.301635 0.620842 -0.030281
C31   C     C_R   0.765441 0.195429 0.107830 -0.007605
C32   C     C_R   0.761340 0.801635 0.620842 -0.030280
C33   C     C_R   0.215902 0.713482 0.039854 -0.057641
C34   C     C_R   0.211176 0.284766 0.556439 -0.054070
C35   C     C_R   0.715902 0.213482 0.039854 -0.057641
C36   C     C_R   0.711176 0.784766 0.556439 -0.054070
C37   C     C_R   0.210386 0.765440 0.024221 -0.045089
C38   C     C_R   0.203314 0.233371 0.545527 -0.010755
C39   C     C_R   0.710386 0.265440 0.024221 -0.045089
C40   C     C_R   0.703314 0.733371 0.545527 -0.010755
C41   C     C_R   0.753888 0.295873 0.062607 -0.037419
C42   C     C_R   0.745369 0.701257 0.585640 -0.036508
C43   C     C_R   0.253887 0.795873 0.062607 -0.037419
C44   C     C_R   0.245369 0.201257 0.585640 -0.036508
C45   C     C_3   0.041543 0.256437 0.115423 0.267708
C46   C     C_3   0.032207 0.739273 0.637754 0.194992
C47   C     C_3   0.541543 0.756437 0.115422 0.267709
C48   C     C_3   0.532207 0.239274 0.637754 0.194992
C49   C     C_R   0.802114 0.277725 0.125165 0.006418
C50   C     C_R   0.794526 0.718158 0.645900 0.025178
C51   C     C_R   0.302114 0.777725 0.125165 0.006418
C52   C     C_R   0.294526 0.218158 0.645899 0.025178
C53   C     C_R   0.146331 0.679785 0.836685 0.026643
C54   C     C_R   0.141717 0.316772 0.350224 -0.009994
C55   C     C_R   0.646331 0.179785 0.836685 0.026643
C56   C     C_R   0.641717 0.816772 0.350224 -0.009994
C57   C     C_R   0.103489 0.649367 0.790783 -0.006777
C58   C     C_R   0.100132 0.348361 0.299536 -0.021760
C59   C     C_R   0.603489 0.149367 0.790783 -0.006777
C60   C     C_R   0.600132 0.848361 0.299536 -0.021760
C61   C     C_R   0.115714 0.608915 0.038847 0.045315
C62   C     C_R   0.114008 0.390787 0.542740 0.054419
C63   C     C_R   0.615714 0.108915 0.038847 0.045315
C64   C     C_R   0.614008 0.890787 0.542740 0.054420
C65   C     C_R   0.155072 0.642645 0.089943 -0.095764
C66   C     C_R   0.152701 0.357004 0.597177 -0.047315
C67   C     C_R   0.655072 0.142645 0.089943 -0.095764
C68   C     C_R   0.652700 0.857004 0.597177 -0.047316
C69   C     C_R   0.171210 0.678820 0.989482 0.060250
C70   C     C_R   0.167707 0.319795 0.501226 0.087414
C71   C     C_R   0.671210 0.178820 0.989482 0.060250
C72   C     C_R   0.667707 0.819795 0.501226 0.087414
C73   C     C_R   0.088771 0.614082 0.892089 -0.256120
C74   C     C_R   0.086665 0.385083 0.396785 -0.246343
C75   C     C_R   0.588771 0.114082 0.892089 -0.256120
C76   C     C_R   0.586665 0.885083 0.396785 -0.246343
C77   C     C_3   0.067999 0.209264 0.071123 -0.190552
C78   C     C_3   0.045890 0.792333 0.601418 -0.182244
C79   C     C_3   0.567999 0.709264 0.071122 -0.190552
C80   C     C_3   0.545890 0.292333 0.601418 -0.182245
C81   C     C_3   0.174234 0.492806 0.296228 0.522158
C82   C     C_3   0.174903 0.506293 0.794792 0.522533
C83   C     C_3   0.674234 0.992806 0.296228 0.522158
C84   C     C_3   0.674903 0.006293 0.794792 0.522533
C85   C     C_3   0.217325 0.524225 0.378071 -0.234499
C86   C     C_3   0.217055 0.474015 0.879029 -0.233396
C87   C     C_3   0.717325 0.024225 0.378071 -0.234498
C88   C     C_3   0.717055 0.974015 0.879030 -0.233397
C89   C     C_3   0.822170 0.525452 0.009401 0.323466
C90   C     C_3   0.814981 0.472949 0.488752 0.463467
C91   C     C_3   0.322170 0.025452 0.009401 0.323466
C92   C     C_3   0.314981 0.972949 0.488752 0.463467
C93   C     C_3   0.772493 0.551798 0.061163 0.362611
C94   C     C_3   0.761261 0.470811 0.382585 0.471532
C95   C     C_3   0.272493 0.051798 0.061163 0.362611
C96   C     C_3   0.261261 0.970811 0.382585 0.471533
C97   C     C_3   0.997202 0.269522 0.590591 0.324973
C98   C     C_3   0.030829 0.706291 0.129828 0.320866
C99   C     C_3   0.497202 0.769522 0.590591 0.324974
C100  C     C_3   0.530829 0.206291 0.129828 0.320866
C101  C     C_R   0.930833 0.373827 0.261713 -0.178390
C102  C     C_R   0.921501 0.619894 0.784498 -0.217270
C103  C     C_R   0.430833 0.873827 0.261713 -0.178390
C104  C     C_R   0.421501 0.119894 0.784498 -0.217270
H1    H     H_    0.035765 0.279936 0.650651 0.110887
H2    H     H_    0.044354 0.677744 0.215539 0.085491
H3    H     H_    0.535765 0.779936 0.650652 0.110887
H4    H     H_    0.544354 0.177744 0.215539 0.085491
H5    H     H_    0.201731 0.560261 0.405516 0.126561
H6    H     H_    0.200593 0.438353 0.907621 0.128334
H7    H     H_    0.701731 0.060261 0.405516 0.126561
H8    H     H_    0.700593 0.938353 0.907621 0.128334
H9    H     H_    0.234399 0.506270 0.485864 0.159582
H10   H     H_    0.234144 0.491713 0.986538 0.159634
H11   H     H_    0.734399 0.006270 0.485864 0.159582
H12   H     H_    0.734145 0.991714 0.986538 0.159634
H13   H     H_    0.248701 0.529699 0.303219 0.121827
H14   H     H_    0.248590 0.467772 0.805440 0.121425
H15   H     H_    0.748701 0.029699 0.303219 0.121827
H16   H     H_    0.748590 0.967773 0.805440 0.121425
H17   H     H_    0.738871 0.526474 0.051491 0.118431
H18   H     H_    0.767032 0.484417 0.268301 0.033035
H19   H     H_    0.238871 0.026474 0.051491 0.118431
H20   H     H_    0.267032 0.984417 0.268301 0.033035
H21   H     H_    0.995783 0.280662 0.467898 -0.076604
H22   H     H_    0.039779 0.695682 0.013676 -0.078291
H23   H     H_    0.495783 0.780662 0.467899 -0.076604
H24   H     H_    0.539779 0.195682 0.013676 -0.078292
H25   H     H_    0.952313 0.204042 0.539089 0.134457
H26   H     H_    0.050326 0.781160 0.087286 0.126171
H27   H     H_    0.452313 0.704042 0.539088 0.134457
H28   H     H_    0.550326 0.281160 0.087286 0.126171
H29   H     H_    0.021259 0.196932 0.532530 0.134520
H30   H     H_    0.102287 0.745549 0.193748 0.109982
H31   H     H_    0.521259 0.696932 0.532531 0.134520
H32   H     H_    0.602287 0.245549 0.193748 0.109982
H33   H     H_    0.064721 0.181326 0.161713 0.080135
H34   H     H_    0.034278 0.816553 0.692689 0.061763
H35   H     H_    0.564721 0.681326 0.161712 0.080135
H36   H     H_    0.534278 0.316553 0.692689 0.061764
H37   H     H_    0.174668 0.639233 0.205434 0.074999
H38   H     H_    0.172702 0.361090 0.711828 0.068730
H39   H     H_    0.674668 0.139233 0.205434 0.074999
H40   H     H_    0.672702 0.861090 0.711828 0.068730
H41   H     H_    0.844346 0.213510 0.199754 0.135358
H42   H     H_    0.839594 0.781403 0.711763 0.157152
H43   H     H_    0.344346 0.713510 0.199754 0.135358
H44   H     H_    0.339594 0.281403 0.711763 0.157152
H45   H     H_    0.832689 0.358445 0.971821 0.099587
H46   H     H_    0.824482 0.638490 0.494222 0.142169
H47   H     H_    0.332689 0.858445 0.971821 0.099587
H48   H     H_    0.324482 0.138490 0.494222 0.142169
H49   H     H_    0.749900 0.334852 0.048700 0.165970
H50   H     H_    0.739234 0.662386 0.577153 0.157712
H51   H     H_    0.249900 0.834852 0.048700 0.165970
H52   H     H_    0.239234 0.162386 0.577153 0.157712
H53   H     H_    0.159459 0.705070 0.754277 0.103616
H54   H     H_    0.154019 0.290032 0.272084 0.067251
H55   H     H_    0.659459 0.205070 0.754277 0.103616
H56   H     H_    0.654019 0.790032 0.272084 0.067251
H57   H     H_    0.863369 0.280073 0.398477 0.080688
H58   H     H_    0.859644 0.718198 0.913115 0.099657
H59   H     H_    0.363369 0.780073 0.398477 0.080688
H60   H     H_    0.359644 0.218198 0.913115 0.099657
H61   H     H_    0.058184 0.588725 0.852861 0.049743
H62   H     H_    0.057526 0.411534 0.353977 0.049163
H63   H     H_    0.558184 0.088725 0.852861 0.049743
H64   H     H_    0.557526 0.911534 0.353977 0.049163
H65   H     H_    0.995858 0.201372 0.715548 0.117929
H66   H     H_    0.047442 0.766173 0.284427 0.155731
H67   H     H_    0.495858 0.701372 0.715548 0.117929
H68   H     H_    0.547442 0.266172 0.284427 0.155731
H69   H     H_    0.963206 0.397395 0.297397 0.002631
H70   H     H_    0.952317 0.594528 0.822828 0.065686
H71   H     H_    0.463206 0.897395 0.297397 0.002631
H72   H     H_    0.452317 0.094528 0.822828 0.065686
H73   H     H_    0.057084 0.265184 0.235249 -0.101823
H74   H     H_    0.051967 0.729911 0.752710 -0.043048
H75   H     H_    0.557084 0.765184 0.235248 -0.101822
H76   H     H_    0.551967 0.229911 0.752710 -0.043048
H77   H     H_    0.047823 0.194984 0.961902 0.062149
H78   H     H_    0.023156 0.804099 0.492345 0.058789
H79   H     H_    0.547823 0.694984 0.961901 0.062149
H80   H     H_    0.523156 0.304099 0.492345 0.058789
H81   H     H_    0.141362 0.487286 0.365032 0.041218
H82   H     H_    0.141999 0.512671 0.862804 0.042168
H83   H     H_    0.641362 0.987286 0.365032 0.041218
H84   H     H_    0.641999 0.012671 0.862804 0.042168
O1    O     O_2   0.898940 0.431940 0.867860 -0.386758
O2    O     O_2   0.898940 0.568060 0.367860 -0.406402
O3    O     O_2   0.398940 0.931940 0.867860 -0.386758
O4    O     O_2   0.398940 0.068060 0.367860 -0.406402
O5    O     O_3   0.158795 0.487034 0.650202 -0.647309
O6    O     O_3   0.158303 0.512320 0.151199 -0.642404
O7    O     O_3   0.658795 0.987034 0.650202 -0.647309
O8    O     O_3   0.658303 0.012320 0.151199 -0.642404
O9    O     O_3   0.050004 0.293105 0.007775 -0.558560
O10   O     O_3   0.046905 0.708898 0.520772 -0.571255
O11   O     O_3   0.550004 0.793105 0.007774 -0.558560
O12   O     O_3   0.546905 0.208898 0.520772 -0.571255
O13   O     O_3   0.058810 0.523750 0.066650 -0.471342
O14   O     O_3   0.058810 0.476250 0.566650 -0.478813
O15   O     O_3   0.558810 0.023750 0.066650 -0.471342
O16   O     O_3   0.558810 0.976250 0.566650 -0.478813
O17   O     O_3   0.941140 0.476130 0.123050 -0.484862
O18   O     O_3   0.941140 0.523870 0.623050 -0.428264
O19   O     O_3   0.441140 0.976130 0.123050 -0.484862
O20   O     O_3   0.441140 0.023870 0.623050 -0.428264
O21   O     O_3   0.982430 0.389880 0.635700 -0.444469
O22   O     O_3   0.982430 0.610120 0.135700 -0.470644
O23   O     O_3   0.482430 0.889880 0.635700 -0.444469
O24   O     O_3   0.482430 0.110120 0.135700 -0.470644
O25   O     O_2   0.888870 0.357377 0.661026 -0.395516
O26   O     O_2   0.902050 0.661457 0.199001 -0.368480
O27   O     O_2   0.388870 0.857377 0.661026 -0.395516
O28   O     O_2   0.402050 0.161457 0.199001 -0.368480
O29   O     O_3   0.830907 0.476085 0.060110 -0.625812
O30   O     O_3   0.829452 0.523157 0.518615 -0.618585
O31   O     O_3   0.330907 0.976085 0.060110 -0.625812
O32   O     O_3   0.329452 0.023157 0.518615 -0.618585
O33   O     O_3   0.957898 0.290176 0.668035 -0.557963
O34   O     O_3   0.977486 0.715185 0.128810 -0.580505
O35   O     O_3   0.457898 0.790176 0.668035 -0.557963
O36   O     O_3   0.477486 0.215185 0.128810 -0.580505
O37   O     O_2   0.100770 0.431440 0.821660 -0.465222
O38   O     O_2   0.100770 0.568560 0.321660 -0.473386
O39   O     O_2   0.600770 0.931440 0.821660 -0.465222
O40   O     O_2   0.600770 0.068560 0.321660 -0.473386
O41   O     O_3   0.017130 0.389790 0.053700 -0.474687
O42   O     O_3   0.017130 0.610210 0.553700 -0.474182
O43   O     O_3   0.517130 0.889790 0.053700 -0.474687
O44   O     O_3   0.517130 0.110210 0.553700 -0.474182
O45   O     O_2   0.112352 0.364756 0.002028 -0.413468
O46   O     O_2   0.109700 0.639376 0.484644 -0.435417
O47   O     O_2   0.612352 0.864756 0.002028 -0.413469
O48   O     O_2   0.609700 0.139376 0.484644 -0.435417
P1    P     P_3+3 0.893960 0.447890 0.040050 1.134569
P2    P     P_3+3 0.893960 0.552110 0.540050 1.140535
P3    P     P_3+3 0.393960 0.947890 0.040050 1.134569
P4    P     P_3+3 0.393960 0.052110 0.540050 1.140535
P5    P     P_3+3 0.105800 0.447360 0.649510 0.992657
P6    P     P_3+3 0.105800 0.552640 0.149510 0.988611
P7    P     P_3+3 0.605800 0.947360 0.649510 0.992657
P8    P     P_3+3 0.605800 0.052640 0.149510 0.988611
P9    P     P_3+3 0.068938 0.348224 0.097260 1.026983
P10   P     P_3+3 0.068835 0.651968 0.593170 1.015866
P11   P     P_3+3 0.568938 0.848224 0.097260 1.026984
P12   P     P_3+3 0.568835 0.151968 0.593170 1.015866
P13   P     P_3+3 0.943507 0.661453 0.084173 1.057464
P14   P     P_3+3 0.936791 0.344614 0.578305 1.061165
P15   P     P_3+3 0.443507 0.161453 0.084173 1.057464
P16   P     P_3+3 0.436791 0.844614 0.578305 1.061165
C105  C     C_2   0.817598 0.525513 0.844328 0.855550
O49   O     O_2   0.856592 0.515212 0.788636 -0.588174
O50   O     O_R   0.770583 0.534431 0.753526 -0.668741
H85   H     H_    0.774501 0.559968 0.672247 0.348372
C106  C     C_2   0.855058 0.446713 0.419486 0.745858
O51   O     O_2   0.841305 0.417860 0.320134 -0.668197
O52   O     O_R   0.906595 0.449110 0.482311 -0.693525
H86   H     H_    0.930141 0.457460 0.402228 0.270394
C107  C     C_2   0.317598 0.025514 0.844328 0.855550
O53   O     O_2   0.356592 0.015212 0.788636 -0.588174
O54   O     O_R   0.270583 0.034431 0.753526 -0.668741
H87   H     H_    0.274502 0.059968 0.672247 0.348372
C108  C     C_2   0.355057 0.946713 0.419486 0.745858
O55   O     O_2   0.341304 0.917860 0.320134 -0.668197
O56   O     O_R   0.406595 0.949110 0.482311 -0.693525
H88   H     H_    0.430140 0.957461 0.402228 0.270394
Br1   Br    Br    0.880398 0.564098 0.062728 -0.514984
Br2   Br    Br    0.800897 0.432662 0.664671 -0.391721
Br3   Br    Br    0.380398 0.064099 0.062728 -0.514984
Br4   Br    Br    0.300897 0.932662 0.664671 -0.391721
Br5   Br    Br    0.750126 0.611068 0.945329 -0.475565
Br6   Br    Br    0.731283 0.405983 0.340014 -0.401392
Br7   Br    Br    0.250126 0.111068 0.945329 -0.475565
Br8   Br    Br    0.231283 0.905983 0.340014 -0.401392
Br9   Br    Br    0.781136 0.581163 0.260928 -0.461983
Br10  Br    Br    0.705345 0.507850 0.457445 -0.311090
Br11  Br    Br    0.281136 0.081163 0.260928 -0.461983
Br12  Br    Br    0.205345 0.007850 0.457445 -0.311090
C109  C     C_2   0.276901 0.643146 0.137243 0.870835
O57   O     O_2   0.258717 0.612314 0.047353 -0.570729
O58   O     O_R   0.310576 0.629289 0.266604 -0.741368
H89   H     H_    0.316525 0.592909 0.272980 0.324284
C110  C     C_2   0.274783 0.353727 0.643226 0.872035
O59   O     O_2   0.257098 0.384297 0.550384 -0.571882
O60   O     O_R   0.309668 0.367635 0.769275 -0.736574
H90   H     H_    0.316758 0.403849 0.771053 0.325258
C111  C     C_2   0.776901 0.143146 0.137243 0.870835
O61   O     O_2   0.758717 0.112314 0.047353 -0.570729
O62   O     O_R   0.810576 0.129289 0.266604 -0.741368
H91   H     H_    0.816525 0.092909 0.272980 0.324284
C112  C     C_2   0.774783 0.853727 0.643226 0.872035
O63   O     O_2   0.757098 0.884297 0.550384 -0.571882
O64   O     O_R   0.809668 0.867635 0.769275 -0.736574
H92   H     H_    0.816758 0.903849 0.771053 0.325258
C113  C     C_2   0.160026 0.791155 0.979916 0.882686
O65   O     O_2   0.121824 0.769611 0.921603 -0.697880
O66   O     O_R   0.155994 0.840998 0.007213 -0.680086
H93   H     H_    0.119801 0.854274 0.974350 0.346230
C114  C     C_2   0.151139 0.211199 0.503942 0.896558
O67   O     O_2   0.111638 0.233578 0.522842 -0.670310
O68   O     O_R   0.147177 0.163493 0.449825 -0.671374
H94   H     H_    0.109741 0.152157 0.428378 0.328846
C115  C     C_2   0.660026 0.291155 0.979916 0.882686
O69   O     O_2   0.621824 0.269611 0.921603 -0.697880
O70   O     O_R   0.655994 0.340998 0.007213 -0.680086
H95   H     H_    0.619801 0.354274 0.974350 0.346230
C116  C     C_2   0.651139 0.711199 0.503942 0.896558
O71   O     O_2   0.611638 0.733578 0.522842 -0.670310
O72   O     O_R   0.647177 0.663493 0.449824 -0.671374
H96   H     H_    0.609741 0.652157 0.428378 0.328846
C117  C     C_2   0.983888 0.247807 0.111864 0.814077
O73   O     O_2   0.967632 0.220725 0.206582 -0.648259
O74   O     O_R   0.949146 0.269906 0.998394 -0.707877
H97   H     H_    0.911962 0.258711 0.001679 0.304638
C118  C     C_2   0.974216 0.735825 0.644437 0.806633
O75   O     O_2   0.946750 0.713695 0.545596 -0.539138
O76   O     O_R   0.951059 0.758649 0.761336 -0.761008
H98   H     H_    0.977236 0.774210 0.841123 0.278701
C119  C     C_2   0.483888 0.747807 0.111864 0.814077
O77   O     O_2   0.467632 0.720725 0.206582 -0.648259
O78   O     O_R   0.449146 0.769906 0.998394 -0.707877
H99   H     H_    0.411962 0.758711 0.001679 0.304638
C120  C     C_2   0.474216 0.235825 0.644437 0.806633
O79   O     O_2   0.446750 0.213695 0.545596 -0.539138
O80   O     O_R   0.451059 0.258649 0.761336 -0.761008
H100  H     H_    0.477236 0.274210 0.841123 0.278701
C121  C     C_2   0.124448 0.216650 0.049954 0.918340
O81   O     O_2   0.158409 0.196481 0.136270 -0.539485
O82   O     O_R   0.137834 0.245446 0.928566 -0.713978
H101  H     H_    0.176862 0.247271 0.925122 0.318723
C122  C     C_2   0.102983 0.799939 0.588009 0.949771
O83   O     O_2   0.125694 0.834326 0.652873 -0.539216
O84   O     O_R   0.129634 0.768964 0.498318 -0.751184
H102  H     H_    0.167555 0.778327 0.497987 0.324823
C123  C     C_2   0.624448 0.716650 0.049954 0.918340
O85   O     O_2   0.658409 0.696480 0.136270 -0.539485
O86   O     O_R   0.637834 0.745446 0.928567 -0.713978
H103  H     H_    0.676862 0.747271 0.925122 0.318723
C124  C     C_2   0.602983 0.299939 0.588009 0.949771
O87   O     O_2   0.625694 0.334326 0.652873 -0.539216
O88   O     O_R   0.629634 0.268964 0.498318 -0.751184
H104  H     H_    0.667555 0.278327 0.497987 0.324824
Br13  Br    Br    0.202799 0.429616 0.261232 -0.568989
Br14  Br    Br    0.205213 0.568675 0.757491 -0.578173
Br15  Br    Br    0.702799 0.929616 0.261232 -0.568989
Br16  Br    Br    0.705213 0.068675 0.757491 -0.578172

loop_
_geom_bond_atom_site_label_1
_geom_bond_atom_site_label_2
_ccdc_geom_bond_type
C83   C87   S    
C65   H37   S    
O60   H90   S    
C79   H79   S    
O42   P10   S    
C122  O83   D    
O30   P2    S    
C21   C101  A    
C121  O81   D    
Ba4   O40   S    
C99   O35   S    
C47   H75   S    
C91   C95   S    
C81   H81   S    
O56   H88   S    
O28   P15   D    
C97   O33   S    
C48   C80   S    
C5    C9    A    
Ba3   O43   S    
C7    C11   A    
C8    C12   A    
Ba1   O41   S    
C57   P10   S    
C66   C70   A    
O38   P6    D    
C45   C117  S    
C115  O70   S    
C59   P12   S    
O22   P13   S    
O8    P8    S    
C83   O8    S    
C40   C42   A    
C100  O36   S    
C46   O10   S    
C85   H5    S    
C61   C73   A    
O76   H98   S    
C48   H76   S    
O14   P5    S    
C63   C75   A    
O18   P2    S    
C82   C86   S    
C8    C104  A    
C2    H66   S    
C113  O65   D    
C56   C72   A    
Ba3   O3    S    
C36   C72   S    
C28   C30   A    
C15   C19   A    
C84   Br16  S    
O66   H93   S    
C12   C16   A    
C96   Br12  S    
C1    H29   S    
C4    C100  S    
C19   H59   S    
C31   C111  S    
C29   C109  S    
Ba2   O22   S    
O24   P15   S    
C108  O56   S    
C76   H64   S    
O17   P1    S    
C54   H54   S    
C47   C79   S    
O1    P1    D    
Ba4   O4    S    
C82   Br14  S    
C103  H71   S    
O39   P7    D    
C98   H22   S    
C101  H69   S    
C53   C57   A    
C25   C31   A    
C55   C59   A    
C26   C32   A    
C4    H32   S    
Ba3   O15   S    
C109  O58   S    
Ba1   P5    S    
C79   H35   S    
C62   C66   A    
C24   C104  A    
O5    P5    S    
O25   P14   D    
C86   H6    S    
C91   C107  S    
C25   H41   S    
O82   H101  S    
C18   H58   S    
C81   O6    S    
C53   H53   S    
C48   C120  S    
Ba3   O23   S    
C67   H39   S    
C61   P6    S    
Ba4   O24   S    
C7    P3    S    
C16   C52   S    
C5    P1    S    
C17   H57   S    
O29   P1    S    
C43   H51   S    
C1    H25   S    
C26   C50   A    
C84   O7    S    
C79   C123  S    
C106  O51   D    
C116  O72   S    
C80   C124  S    
C80   H36   S    
C5    C101  A    
C42   H50   S    
C74   H62   S    
C105  O49   D    
C53   C69   A    
C119  O78   S    
C93   Br5   S    
C95   Br7   S    
C57   C73   A    
C8    P4    S    
C66   H38   S    
C35   C71   S    
C23   P16   S    
C11   H47   S    
O37   P5    D    
C2    C98   S    
C41   C49   A    
C87   H15   S    
O46   P10   D    
C112  O64   S    
C46   H74   S    
O44   P12   S    
Ba3   O39   S    
C123  O86   S    
C45   O9    S    
C82   H82   S    
C38   C114  S    
C41   H49   S    
C6    C10   A    
O31   P3    S    
C100  H4    S    
C92   C108  S    
C91   O31   S    
O40   P8    D    
C89   Br1   S    
C111  O61   D    
C93   Br9   S    
C27   H43   S    
C28   H44   S    
C110  O59   D    
C37   C43   A    
C38   C44   A    
Ba1   O14   S    
Ba2   P2    S    
C45   H73   S    
C85   H9    S    
C118  O75   D    
O9    P9    S    
C18   C22   A    
C92   Br4   S    
O11   P11   S    
C6    C102  A    
Ba3   Ba4   S    
C89   C93   S    
C54   C70   A    
Ba4   O44   S    
O3    P3    D    
Ba2   O17   S    
C96   H20   S    
C1    H65   S    
C58   C74   A    
C20   C24   A    
C22   P13   S    
C75   H63   S    
O54   H87   S    
C4    H68   S    
O35   P16   S    
C9    C13   A    
C27   C51   A    
C88   H12   S    
C92   C96   S    
C56   H56   S    
C87   H11   S    
C33   C37   A    
C114  O68   S    
C55   H55   S    
Ba2   O38   S    
C36   C40   A    
C90   O30   S    
C99   H23   S    
Ba4   P4    S    
C97   H21   S    
C54   C58   A    
C4    H28   S    
C24   P15   S    
C40   C116  S    
C78   H34   S    
C78   C122  S    
C22   C102  A    
O41   P9    S    
O52   H86   S    
C11   C15   A    
Ba4   O19   S    
C78   H78   S    
C86   H10   S    
C88   H16   S    
C34   C70   S    
C26   H42   S    
C90   C94   S    
C97   H1    S    
C98   O34   S    
C91   Br3   S    
C99   H3    S    
C120  O79   D    
C45   C77   S    
C117  O74   S    
C17   C21   A    
Ba2   O42   S    
O34   P13   S    
C12   H48   S    
C65   C69   A    
C124  O88   S    
C30   C110  S    
C121  O82   S    
O72   H96   S    
C14   C18   A    
C108  O55   D    
C60   C76   A    
O21   P14   S    
Ba3   P7    S    
C122  O84   S    
C47   O11   S    
C1    C97   S    
C113  O66   S    
C62   C74   A    
O68   H94   S    
O19   P3    S    
C93   H17   S    
O13   P6    S    
C94   Br6   S    
O88   H104  S    
C107  O54   S    
C81   C85   S    
C95   H19   S    
C47   C119  S    
C123  O85   D    
C29   C33   A    
Ba2   O2    S    
C31   C35   A    
O64   H92   S    
C109  O57   D    
O36   P15   S    
C44   H52   S    
O84   H102  S    
C23   C103  A    
C42   C50   A    
C9    H45   S    
O48   P12   D    
Ba1   O21   S    
C80   H80   S    
C13   C49   S    
O62   H91   S    
C46   C78   S    
Ba4   O15   S    
C83   H83   S    
C15   C51   S    
C84   H84   S    
C81   Br13  S    
C90   Br2   S    
C94   Br10  S    
Ba2   P6    S    
O78   H99   S    
C39   C41   A    
O80   H100  S    
O86   H103  S    
C116  O71   D    
C85   H13   S    
O6    P6    S    
C61   C65   A    
C87   H7    S    
C63   C67   A    
C119  O77   D    
C13   C17   A    
C82   O5    S    
O74   H97   S    
C94   H18   S    
C90   C106  S    
C77   C121  S    
C114  O67   D    
C100  H24   S    
C48   O12   S    
C28   C52   A    
C62   P5    S    
C64   C76   A    
C67   C71   A    
O70   H95   S    
C112  O63   D    
C10   C14   A    
Ba1   O1    S    
C6    P2    S    
O43   P11   S    
C68   C72   A    
O15   P8    S    
C59   C75   A    
C115  O69   D    
O4    P4    D    
Ba3   O16   S    
C20   H60   S    
C34   C38   A    
C104  H72   S    
Ba1   Ba2   S    
Ba4   P8    S    
C58   P9    S    
C84   C88   S    
O33   P14   S    
C92   O32   S    
C3    H67   S    
C27   C29   A    
C19   C23   A    
Ba1   O13   S    
C107  O53   D    
C64   C68   A    
C111  O62   S    
C77   H33   S    
C96   Br8   S    
C86   H14   S    
O45   P9    D    
C77   H77   S    
C56   C60   A    
C64   P7    S    
C46   C118  S    
O27   P16   D    
O47   P11   D    
C16   C20   A    
C32   C36   A    
C106  O52   S    
C37   C113  S    
O32   P4    S    
Ba4   O16   S    
C35   C39   A    
C118  O76   S    
C68   H40   S    
C105  O50   S    
C2    H30   S    
C3    H27   S    
C60   P11   S    
C88   H8    S    
C63   P8    S    
C120  O80   S    
Ba2   O13   S    
Ba3   P3    S    
Ba1   P1    S    
Ba2   O14   S    
O10   P10   S    
O58   H89   S    
C7    C103  A    
C89   C105  S    
O50   H85   S    
C55   C71   A    
C43   C51   A    
Ba3   O20   S    
C44   C52   A    
C33   C69   S    
O2    P2    D    
Ba1   O18   S    
C30   C34   A    
C39   C115  S    
C83   Br15  S    
C89   O29   S    
C21   P14   S    
O7    P7    S    
O16   P7    S    
O20   P4    S    
C3    H31   S    
C32   C112  S    
C25   C49   A    
O23   P16   S    
C110  O60   S    
O26   P13   D    
C102  H70   S    
C117  O73   D    
C98   H2    S    
C14   C50   S    
O12   P12   S    
Ba1   O37   S    
C2    H26   S    
C73   H61   S    
C3    C99   S    
C124  O87   D    
C10   H46   S    
C95   Br11  S    
