data_mof_unit_64860.cif
_audit_creation_date              2013-03-05T15:40:39-0500
_audit_creation_method            fapswitch 2.2
_symmetry_space_group_name_H-M    P1
_symmetry_Int_Tables_number       1
_space_group_crystal_system       triclinic
_cell_length_a                    10.824166
_cell_length_b                    10.830019
_cell_length_c                    19.442777
_cell_angle_alpha                 97.158174
_cell_angle_beta                  91.676288
_cell_angle_gamma                 98.393964
_cell_volume                      2234.59344606

loop_
_atom_site_label
_atom_site_type_symbol
_atom_site_description
_atom_site_fract_x
_atom_site_fract_y
_atom_site_fract_z
_atom_type_partial_charge
Zn1   Zn    Zn3+2 0.407400 0.592620 0.441700 1.000142
Zn2   Zn    Zn3+2 0.384130 0.390950 0.548790 1.040603
Zn3   Zn    Zn3+2 0.607710 0.617180 0.567810 1.081056
Zn4   Zn    Zn3+2 0.600760 0.399250 0.441700 1.040479
O1    O     O_3   0.500000 0.500000 0.500000 -0.531055
O2    O     O_R   0.555650 0.222860 0.449830 -0.630496
O3    O     O_R   0.450070 0.771450 0.468560 -0.641080
O4    O     O_R   0.213590 0.407490 0.524780 -0.620570
O5    O     O_R   0.780700 0.598200 0.556830 -0.618803
O6    O     O_R   0.410860 0.431690 0.648970 -0.634537
O7    O     O_R   0.578570 0.421470 0.344370 -0.597406
O8    O     O_R   0.567340 0.590030 0.662290 -0.578691
O9    O     O_R   0.443230 0.556810 0.344370 -0.651008
O10   O     O_R   0.229880 0.548640 0.449830 -0.626726
O11   O     O_R   0.775840 0.445670 0.468570 -0.623345
O12   O     O_R   0.404020 0.217050 0.524780 -0.623583
O13   O     O_R   0.590260 0.788640 0.556820 -0.624593
C1    C     C_R   0.475062 0.161779 0.484237 0.862807
C2    C     C_R   0.524450 0.838952 0.515511 0.899100
C3    C     C_R   0.164119 0.472375 0.484132 0.865896
C4    C     C_R   0.836828 0.526460 0.515457 0.916705
C5    C     C_R   0.487115 0.512639 0.688104 0.960033
C6    C     C_R   0.515473 0.488717 0.311673 0.855687
C7    C     C_R   0.523958 0.486834 0.236284 -0.137571
C8    C     C_R   0.422251 0.516408 0.198411 -0.222639
C9    C     C_R   0.423543 0.511360 0.126755 -0.050841
C10   C     C_R   0.525162 0.473244 0.091395 0.156248
C11   C     C_R   0.628574 0.447174 0.128636 -0.192762
C12   C     C_R   0.630147 0.454954 0.201072 0.301663
C13   C     C_R   0.543781 0.407784 0.860603 -0.198000
C14   C     C_R   0.564036 0.434281 0.793026 0.268244
C15   C     C_R   0.391463 0.559276 0.800976 0.252435
C16   C     C_R   0.373953 0.530896 0.868641 -0.134985
C17   C     C_R   0.448772 0.454720 0.898048 -0.036155
C18   C     C_2   0.530609 0.472477 0.016033 -0.320950
C19   C     C_2   0.433148 0.430311 0.970177 0.299284
C20   C     C_R   0.486325 0.509354 0.762694 -0.230437
H1    H     H_    0.340904 0.542947 0.224237 0.193749
H2    H     H_    0.602305 0.350154 0.884389 0.201551
H3    H     H_    0.303048 0.569770 0.899023 0.206349
C21   C     C_2   0.533440 0.975066 0.521787 -0.304206
H4    H     H_    0.595423 0.033176 0.562087 0.175101
C22   C     C_2   0.465882 0.027257 0.478187 -0.283591
C23   C     C_2   0.971951 0.536201 0.521612 -0.299557
H5    H     H_    0.024219 0.604464 0.561729 0.176398
C24   C     C_2   0.030456 0.461816 0.478168 -0.266950
H6    H     H_    0.980595 0.393295 0.437455 0.183549
H7    H     H_    0.403854 0.971424 0.437253 0.170651
N1    N     N_R   0.660132 0.380198 0.755293 0.207035
O14   O     O_R   0.691406 0.274157 0.769342 -0.338506
O15   O     O_R   0.726355 0.442531 0.712579 -0.368795
N2    N     N_R   0.311339 0.636699 0.771736 0.216525
O16   O     O_R   0.351482 0.708299 0.725568 -0.385032
O17   O     O_R   0.201486 0.644903 0.795849 -0.320773
N3    N     N_R   0.318092 0.359456 0.988671 0.222002
O18   O     O_R   0.216191 0.353243 0.950381 -0.333354
O19   O     O_R   0.319636 0.282736 0.035069 -0.338738
H8    H     H_    0.709530 0.423571 0.101265 0.189929
N4    N     N_R   0.742038 0.436953 0.237675 0.220952
O20   O     O_R   0.791123 0.519885 0.289089 -0.381358
O21   O     O_R   0.806921 0.351485 0.212036 -0.352762
H9    H     H_    0.618793 0.514616 0.997420 0.167412
H10   H     H_    0.345303 0.537763 0.098982 0.168270

loop_
_geom_bond_atom_site_label_1
_geom_bond_atom_site_label_2
_geom_bond_distance
_ccdc_geom_bond_type
C6    C7    1.469121 S    
Zn3   O5    1.928419 S    
C11   H8    1.084062 S    
C8    H1    1.083447 S    
Zn1   O10   1.927009 S    
C4    C23   1.451269 S    
Zn2   O12   1.927795 S    
C22   H7    1.086311 S    
C17   C19   1.469155 S    
C18   C19   1.348757 D    
C9    H10   1.083041 S    
C15   C16   1.399835 A    
Zn3   O1    1.941419 S    
Zn4   O11   1.927570 S    
C16   C17   1.396037 A    
N4    O20   1.301576 A    
C19   N3    1.443975 S    
C24   H6    1.086385 S    
C15   C20   1.416733 A    
N2    O16   1.301441 A    
Zn4   O7    1.949466 S    
C21   C22   1.332920 D    
O5    C4    1.276903 A    
C9    C10   1.399642 A    
O4    C3    1.276169 A    
C14   N1    1.441754 S    
Zn1   O1    1.950919 S    
O7    C6    1.279140 A    
C11   C12   1.399803 A    
O13   C2    1.279963 A    
N2    O17   1.301787 A    
C13   H2    1.083943 S    
Zn3   O13   1.930904 S    
C18   H9    1.088363 S    
O3    C2    1.278581 A    
N3    O19   1.301690 A    
C14   C20   1.416512 A    
C13   C14   1.396134 A    
O2    C1    1.273570 A    
Zn2   O4    1.929899 S    
N3    O18   1.301209 A    
N4    O21   1.301450 A    
Zn2   O1    1.945257 S    
Zn1   O9    1.945717 S    
C13   C17   1.396495 A    
C16   H3    1.083553 S    
O8    C5    1.275259 A    
O11   C4    1.276615 A    
C7    C8    1.403946 A    
O9    C6    1.280640 A    
O10   C3    1.275570 A    
O12   C1    1.274066 A    
Zn4   O2    1.928760 S    
C21   H4    1.087753 S    
C10   C11   1.397402 A    
N1    O14   1.301667 A    
C12   N4    1.436799 S    
C7    C12   1.418465 A    
C15   N2    1.442465 S    
Zn1   O3    1.926044 S    
Zn3   O8    1.948298 S    
C10   C18   1.467200 S    
C8    C9    1.388000 A    
C1    C22   1.435456 S    
C5    C20   1.455331 S    
O6    C5    1.270648 A    
C3    C24   1.434686 S    
C23   H5    1.087827 S    
C2    C21   1.452578 S    
C23   C24   1.331968 D    
Zn4   O1    1.943307 S    
N1    O15   1.300958 A    
Zn2   O6    1.946230 S    
