data_mof_unit_21377.cif
_audit_creation_date              2012-12-11T20:55:33-0500
_audit_creation_method            fapswitch 2.2
_symmetry_space_group_name_H-M    P1
_symmetry_Int_Tables_number       1
_space_group_crystal_system       triclinic
_cell_length_a                    8.2658
_cell_length_b                    19.123081
_cell_length_c                    22.7837
_cell_angle_alpha                 99.886586
_cell_angle_beta                  90.044906
_cell_angle_gamma                 91.908908
_cell_volume                      3545.83581769

loop_
_atom_site_label
_atom_site_type_symbol
_atom_type_description
_atom_site_fract_x
_atom_site_fract_y
_atom_site_fract_z
_atom_type_partial_charge
Ba1   Ba    Ba6+2 0.157290 0.533910 0.474710 1.655792
Ba2   Ba    Ba6+2 0.652900 0.466090 0.525240 1.647107
C1    C     C_3   0.354475 0.743165 0.265684 -0.288594
C2    C     C_R   0.989263 0.271832 0.479399 0.053706
C3    C     C_R   0.138554 0.187849 0.550385 -0.156351
C4    C     C_3   0.914071 0.721395 0.344870 0.390904
C5    C     C_R   0.205806 0.254445 0.544785 0.000515
C6    C     C_R   0.674908 0.811006 0.448104 -0.164880
C7    C     C_R   0.607340 0.744285 0.453431 -0.011921
C8    C     C_R   0.857473 0.801568 0.528726 -0.148017
C9    C     C_R   0.821553 0.727501 0.520021 0.057002
C10   C     C_R   0.020222 0.153631 0.509195 0.001701
C11   C     C_R   0.120600 0.298617 0.514866 -0.245268
C12   C     C_3   0.420284 0.721451 0.322025 0.301603
C13   C     C_R   0.793050 0.845206 0.489403 0.003908
C14   C     C_R   0.689827 0.700720 0.484843 -0.240767
C15   C     C_R   0.229161 0.034387 0.539785 -0.077497
C16   C     C_3   0.935284 0.791914 0.322866 -0.350134
C17   C     C_R   0.322367 0.982311 0.557187 -0.080029
C18   C     C_R   0.276330 0.911961 0.539542 -0.067070
C19   C     C_R   0.131277 0.895036 0.508961 -0.077708
C20   C     C_R   0.014147 0.946303 0.507047 0.013751
C21   C     C_R   0.068099 0.019819 0.518335 0.039433
C22   C     C_R   0.850554 0.924101 0.491359 -0.015125
C23   C     C_3   0.484233 0.684044 0.618764 0.306825
C24   C     C_R   0.745189 0.979000 0.480800 0.040052
C25   C     C_R   0.799362 0.052455 0.491915 0.014227
C26   C     C_R   0.962974 0.074674 0.507403 -0.016082
C27   C     C_R   0.583371 0.964548 0.460167 -0.077007
C28   C     C_3   0.820763 0.374998 0.342189 0.298425
C29   C     C_R   0.489667 0.016668 0.443077 -0.076662
C30   C     C_R   0.536192 0.086993 0.460596 -0.064282
C31   C     C_R   0.682217 0.103743 0.490479 -0.078239
C32   C     C_R   0.644046 0.523991 0.335433 -0.301415
C33   C     C_R   0.362098 0.564791 0.948733 -0.089185
C34   C     C_3   0.492863 0.764440 0.636388 -0.374664
C35   C     C_R   0.313586 0.560839 0.888813 0.609267
C36   C     C_R   0.248526 0.436272 0.881062 0.584223
C37   C     C_R   0.299563 0.438150 0.940484 -0.007169
C38   C     C_R   0.356595 0.503004 0.974558 -0.053764
C39   C     C_R   0.416529 0.629237 0.983139 -0.073042
C40   C     C_3   0.814922 0.355951 0.274572 -0.355945
C41   C     C_R   0.465403 0.633314 0.042383 0.407737
C42   C     C_R   0.462338 0.571297 0.069206 -0.081425
C43   C     C_R   0.408165 0.505975 0.034574 -0.101206
C44   C     C_R   0.296200 0.376533 0.966389 -0.076053
C45   C     C_3   0.885990 0.284107 0.650091 0.360447
C46   C     C_R   0.349419 0.378965 0.024815 -0.067032
C47   C     C_R   0.405590 0.443282 0.059525 -0.006787
C48   C     C_R   0.459536 0.445970 0.118576 0.587315
C49   C     C_R   0.510188 0.571979 0.129203 0.629109
C50   C     C_2   0.063407 0.477223 0.773276 -0.067516
C51   C     C_3   0.019786 0.483028 0.709561 -0.058497
C52   C     C_3   0.997836 0.632484 0.660137 0.294196
C53   C     C_1   0.302604 0.511801 0.694211 0.015779
C54   C     C_2   0.343305 0.511616 0.750370 -0.092092
C55   C     C_2   0.217137 0.493728 0.793312 0.215361
C56   C     C_3   0.878878 0.212216 0.670221 -0.358664
C57   C     C_R   0.707392 0.544676 0.236021 -0.097490
C58   C     C_R   0.749940 0.550207 0.296184 -0.041482
C59   C     C_R   0.500837 0.487618 0.314606 0.037827
C60   C     C_R   0.455645 0.483099 0.254669 -0.079227
C61   C     C_R   0.557386 0.512597 0.214837 0.204699
C62   C     C_2   0.169303 0.478409 0.671101 -0.281876
C63   C     C_3   0.035758 0.662249 0.725254 -0.351077
C64   C     C_3   0.320428 0.317263 0.393724 0.315271
C65   C     C_3   0.317997 0.236798 0.376413 -0.373311
C66   C     C_3   0.390096 0.295273 0.679809 0.306579
C67   C     C_3   0.454424 0.280891 0.738928 -0.354982
C68   C     C_R   0.954600 0.197542 0.470177 -0.148982
Cl1   Cl    Cl    0.530374 0.718468 0.079398 -0.604954
H1    H     H_    0.439211 0.663199 0.313464 0.028277
H2    H     H_    0.196570 0.334436 0.404928 -0.000408
H3    H     H_    0.401159 0.332668 0.433087 0.082002
H4    H     H_    0.245537 0.710076 0.249386 0.161698
H5    H     H_    0.234242 0.219503 0.338152 0.129556
H6    H     H_    0.276632 0.211785 0.414439 0.056305
H7    H     H_    0.441586 0.218781 0.363876 0.130288
H8    H     H_    0.537527 0.750825 0.332107 -0.030491
H9    H     H_    0.447943 0.736158 0.230497 0.168261
H10   H     H_    0.607606 0.665587 0.606926 0.016401
H11   H     H_    0.403325 0.670445 0.579238 0.075331
H12   H     H_    0.730384 0.309665 0.260755 0.142207
H13   H     H_    0.575674 0.780224 0.675148 0.134608
H14   H     H_    0.539074 0.788786 0.598545 0.055330
H15   H     H_    0.370400 0.784387 0.648255 0.125980
H16   H     H_    0.323399 0.800040 0.274538 0.104789
H17   H     H_    0.865024 0.833348 0.350714 0.064858
H18   H     H_    0.790803 0.283813 0.615575 0.099008
H19   H     H_    0.006430 0.292675 0.631217 -0.055913
H20   H     H_    0.886294 0.168994 0.631154 0.070103
H21   H     H_    0.981114 0.208577 0.701091 0.120190
H22   H     H_    0.762957 0.204959 0.693341 0.141986
H23   H     H_    0.772665 0.401270 0.254964 0.069248
H24   H     H_    0.263773 0.273296 0.674148 -0.021548
H25   H     H_    0.391390 0.353792 0.681385 0.044490
H26   H     H_    0.373777 0.304047 0.775449 0.138638
H27   H     H_    0.577679 0.305323 0.747606 0.157580
H28   H     H_    0.961646 0.728030 0.391252 0.058000
H29   H     H_    0.458973 0.222754 0.738186 0.113867
H30   H     H_    0.870695 0.175660 0.434848 0.077496
H31   H     H_    0.177932 0.165075 0.587897 0.063677
H32   H     H_    0.633782 0.834719 0.411458 0.060166
H33   H     H_    0.941152 0.823509 0.564111 0.076701
H34   H     H_    0.937580 0.342526 0.257182 0.131199
H35   H     H_    0.162775 0.353054 0.516316 0.061245
H36   H     H_    0.645481 0.646814 0.484684 0.065932
H37   H     H_    0.294484 0.083262 0.539950 0.074954
H38   H     H_    0.441120 0.996013 0.576782 0.080142
H39   H     H_    0.358853 0.871162 0.545824 0.099180
H40   H     H_    0.783040 0.706627 0.344121 -0.097995
H41   H     H_    0.109129 0.841472 0.486965 0.127877
H42   H     H_    0.518045 0.915771 0.460604 0.074182
H43   H     H_    0.370312 0.003047 0.423999 0.080566
H44   H     H_    0.453498 0.127948 0.454946 0.096928
H45   H     H_    0.111032 0.614213 0.637592 0.020862
H46   H     H_    0.705037 0.157134 0.512575 0.127031
H47   H     H_    0.345670 0.330097 0.042865 0.126451
H48   H     H_    0.253541 0.325932 0.941352 0.123160
H49   H     H_    0.790771 0.564806 0.205775 0.112101
H50   H     H_    0.421268 0.677343 0.963957 0.165503
H51   H     H_    0.064493 0.809675 0.325505 0.138080
H52   H     H_    0.466709 0.524950 0.765614 0.103149
H53   H     H_    0.968834 0.466542 0.803901 0.096597
H54   H     H_    0.342177 0.456442 0.239038 0.116912
H55   H     H_    0.678684 0.527545 0.381684 0.078809
H56   H     H_    0.908496 0.587445 0.657272 0.036221
H57   H     H_    0.168422 0.447641 0.626335 0.064172
H58   H     H_    0.892519 0.786115 0.276000 0.141964
H59   H     H_    0.697588 0.387298 0.358717 0.011241
H60   H     H_    0.903560 0.422127 0.354834 0.062077
H61   H     H_    0.117766 0.709973 0.728359 0.149691
H62   H     H_    0.096405 0.622699 0.747008 0.083440
H63   H     H_    0.922135 0.677275 0.749473 0.124454
N1    N     N_R   0.258966 0.496945 0.855600 -0.427860
N2    N     N_R   0.508758 0.509951 0.153061 -0.433931
O1    O     O_2   0.108070 0.674980 0.540650 -0.458414
O2    O     O_2   0.687361 0.445220 0.697646 -0.480430
O3    O     O_3   0.862432 0.337326 0.699398 -0.595743
O4    O     O_3   0.861930 0.586170 0.535430 -0.487493
O5    O     O_3   0.451480 0.461630 0.428900 -0.494923
O6    O     O_2   0.599240 0.538720 0.642170 -0.458462
O7    O     O_3   0.424250 0.653787 0.666743 -0.633376
O8    O     O_2   0.528863 0.247404 0.517939 -0.507201
O9    O     O_3   0.488285 0.262194 0.633631 -0.598521
O10   O     O_2   0.318804 0.614429 0.866233 -0.584809
O11   O     O_2   0.196097 0.380548 0.851810 -0.604898
O12   O     O_3   0.375473 0.347340 0.345342 -0.627192
O13   O     O_2   0.464323 0.391108 0.139176 -0.594157
O14   O     O_2   0.551733 0.627848 0.160684 -0.553491
O15   O     O_3   0.366390 0.628250 0.433820 -0.458103
O16   O     O_2   0.289069 0.751969 0.485115 -0.502266
O17   O     O_3   0.931665 0.686435 0.634703 -0.635424
O18   O     O_3   0.310873 0.739636 0.368933 -0.581054
O19   O     O_2   0.211060 0.461230 0.357810 -0.458901
O20   O     O_3   0.958150 0.591500 0.402390 -0.483432
O21   O     O_2   0.083774 0.538823 0.296482 -0.476298
O22   O     O_3   0.000342 0.669842 0.307501 -0.578168
O23   O     O_2   0.702240 0.324970 0.459330 -0.460556
O24   O     O_3   0.948380 0.413820 0.464520 -0.492696
O25   O     O_3   0.443920 0.371740 0.566130 -0.462442
O26   O     O_3   0.876219 0.316741 0.364986 -0.630127
O27   O     O_3   0.358830 0.538360 0.571050 -0.480501
O28   O     O_3   0.852160 0.408490 0.597560 -0.488297
P1    P     P_3+3 0.933470 0.664380 0.557030 0.983521
P2    P     P_3+3 0.383600 0.440030 0.365120 0.993873
P3    P     P_3+3 0.948006 0.586657 0.325039 0.977628
P4    P     P_3+3 0.876840 0.335610 0.442930 0.982604
P5    P     P_3+3 0.855724 0.419588 0.675706 0.973496
P6    P     P_3+3 0.396176 0.718072 0.433509 0.941871
P7    P     P_3+3 0.417959 0.561240 0.645699 0.959201
P8    P     P_3+3 0.414423 0.282017 0.566811 0.922872

loop_
_geom_bond_atom_site_label_1
_geom_bond_atom_site_label_2
_ccdc_geom_bond_type
C23   H10   S    
C53   C54   D    
C31   H46   S    
C57   H49   S    
O12   P2    S    
C4    H40   S    
C17   C18   A    
C65   H6    S    
C40   H34   S    
O21   P3    D    
C52   O17   S    
O1    P1    D    
O28   P5    S    
C68   H30   S    
C52   C63   S    
C25   C31   A    
C24   C25   A    
C66   H25   S    
O15   P6    S    
C10   C26   S    
C33   C35   A    
C7    C14   A    
C22   C24   A    
C59   P2    S    
C8    C13   A    
C36   C37   A    
C51   C62   S    
O19   P2    D    
C28   H60   S    
C64   H3    S    
O23   P4    D    
O18   P6    S    
Ba1   Ba2   S    
C49   N2    Am   
C39   H50   S    
C2    C11   A    
Ba1   O19   S    
C27   H42   S    
C14   H36   S    
C66   C67   S    
O25   P8    S    
C49   O14   D    
Ba2   O23   S    
C62   H57   S    
C52   H45   S    
C35   N1    Am   
O3    P5    S    
C43   C47   A    
C35   O10   D    
C1    H4    S    
C56   H20   S    
C29   H43   S    
C64   O12   S    
C63   H63   S    
C51   P5    S    
C67   H27   S    
C64   C65   S    
O9    P8    S    
C57   C58   A    
C5    P8    S    
C12   O18   S    
O2    P5    D    
C32   C58   A    
C39   C41   A    
C7    P6    S    
C23   O7    S    
C65   H7    S    
C1    H9    S    
Ba2   O25   S    
C53   P7    S    
C4    O22   S    
O22   P3    S    
C17   H38   S    
C38   C43   A    
C4    C16   S    
C44   C46   A    
C2    C68   A    
C66   H24   S    
C1    H16   S    
C58   P3    S    
C54   H52   S    
Ba1   O5    S    
C3    C10   A    
C8    C9    A    
C15   H37   S    
Ba2   O28   S    
C37   C38   A    
C3    C5    A    
C6    C7    A    
C46   H47   S    
O27   P7    S    
O20   P3    S    
C34   H15   S    
C28   H59   S    
C64   H2    S    
C32   C59   A    
C16   H17   S    
C2    P4    S    
C30   C31   A    
Ba1   O20   S    
C41   C42   A    
C60   C61   A    
O16   P6    D    
C9    C14   A    
C29   C30   A    
Ba1   P1    S    
C32   H55   S    
C53   C62   D    
O5    P2    S    
C15   C21   A    
C36   N1    Am   
Ba1   O4    S    
C1    C12   S    
C16   H51   S    
C37   C44   A    
O26   P4    S    
C42   C49   A    
C46   C47   A    
C45   H18   S    
C6    C13   A    
C23   H11   S    
Ba2   O6    S    
C45   H19   S    
C18   H39   S    
C21   C26   A    
C54   C55   S    
C28   O26   S    
Ba2   P4    S    
C63   H61   S    
Ba1   O1    S    
C42   C43   A    
O4    P1    S    
C10   C68   A    
C3    H31   S    
C13   C22   S    
C41   Cl1   S    
O17   P1    S    
C40   H23   S    
C12   H1    S    
C56   H22   S    
Ba1   O24   S    
C55   N1    S    
C40   H12   S    
C11   H35   S    
Ba2   O27   S    
C60   H54   S    
C34   H14   S    
C52   H56   S    
O8    P8    D    
C57   C61   A    
C19   H41   S    
Ba2   O4    S    
C4    H28   S    
C8    H33   S    
C33   C38   A    
O7    P7    S    
C27   C29   A    
C48   N2    Am   
C61   N2    S    
C45   C56   S    
C50   H53   S    
C48   O13   D    
Ba1   P2    S    
C34   H13   S    
C15   C17   A    
C44   H48   S    
Ba1   O15   S    
C20   C22   A    
O24   P4    S    
C30   H44   S    
C59   C60   A    
C33   C39   A    
C6    H32   S    
C36   O11   D    
C12   H8    S    
C50   C55   D    
C23   C34   S    
C67   H29   S    
C5    C11   A    
C18   C19   A    
Ba1   O27   S    
C24   C27   A    
Ba2   O24   S    
C47   C48   A    
C45   O3    S    
C25   C26   A    
C9    P1    S    
Ba2   O5    S    
C20   C21   A    
C28   C40   S    
C16   H58   S    
C65   H5    S    
C19   C20   A    
C56   H21   S    
C63   H62   S    
C66   O9    S    
C50   C51   S    
O6    P7    D    
C67   H26   S    
