data_mof_unit_13652.cif
_audit_creation_date              2012-12-11T14:43:29-0500
_audit_creation_method            fapswitch 2.2
_symmetry_space_group_name_H-M    P1
_symmetry_Int_Tables_number       1
_space_group_crystal_system       triclinic
_cell_length_a                    20.844537
_cell_length_b                    7.094073
_cell_length_c                    16.390065
_cell_angle_alpha                 88.665983
_cell_angle_beta                  92.378306
_cell_angle_gamma                 88.195098
_cell_volume                      2419.61979512

loop_
_atom_site_label
_atom_site_type_symbol
_atom_type_description
_atom_site_fract_x
_atom_site_fract_y
_atom_site_fract_z
_atom_type_partial_charge
O1    O     O_R   0.564840 0.505290 0.579830 -0.537201
O2    O     O_R   0.435160 0.005290 0.420170 -0.540900
O3    O     O_R   0.556720 0.179930 0.409350 -0.541941
O4    O     O_R   0.443280 0.679930 0.590650 -0.539197
C1    C     C_R   0.570008 0.344591 0.380388 0.715468
C2    C     C_R   0.430341 0.844843 0.619688 0.716113
O5    O     O_R   0.572280 0.175810 0.578530 -0.544578
O6    O     O_R   0.427720 0.675810 0.421470 -0.540797
O7    O     O_R   0.450830 0.001920 0.590540 -0.538414
O8    O     O_R   0.549170 0.501920 0.409460 -0.536261
C3    C     C_R   0.590578 0.340030 0.604757 0.685906
C4    C     C_R   0.410004 0.849089 0.395107 0.686674
O9    O     O_3   0.460130 0.338030 0.503750 -0.369443
O10   O     O_3   0.539870 0.838030 0.496250 -0.371037
V1    V     V_3+5 0.507400 0.064560 0.499310 1.400850
V2    V     V_3+5 0.492600 0.564560 0.500690 1.401161
C5    C     C_R   0.144149 0.885425 0.166240 -0.066054
C6    C     C_R   0.852977 0.433689 0.835726 -0.066265
C7    C     C_R   0.355846 0.880041 0.333512 -0.065363
C8    C     C_R   0.646070 0.332428 0.665722 -0.065145
C9    C     C_R   0.296420 0.098662 0.237871 -0.202278
C10   C     C_R   0.715970 0.145968 0.763000 -0.202933
C11   C     C_R   0.349589 0.054549 0.290064 -0.163779
C12   C     C_R   0.661655 0.162828 0.709898 -0.168026
C13   C     C_R   0.307504 0.748594 0.322299 -0.245655
C14   C     C_R   0.686079 0.486695 0.677167 -0.244119
C15   C     C_R   0.253057 0.793794 0.270637 0.159755
C16   C     C_R   0.741536 0.469499 0.729791 0.158303
C17   C     C_R   0.247384 0.970395 0.228145 0.161227
C18   C     C_R   0.756832 0.297480 0.772851 0.159592
C19   C     C_R   0.192996 0.015583 0.176436 -0.249051
C20   C     C_R   0.812513 0.280050 0.825139 -0.243849
C21   C     C_R   0.149939 0.711798 0.210433 -0.155833
C22   C     C_R   0.837112 0.603541 0.791877 -0.162723
C23   C     C_R   0.203643 0.666419 0.261620 -0.204776
C24   C     C_R   0.782403 0.620955 0.739517 -0.204666
H1    H     H_    0.189634 0.148971 0.142636 0.125836
H2    H     H_    0.823467 0.148779 0.858754 0.125013
H3    H     H_    0.113018 0.608272 0.204650 0.129043
H4    H     H_    0.867114 0.724710 0.798145 0.128556
H5    H     H_    0.293264 0.234623 0.206129 0.119793
H6    H     H_    0.726283 0.013491 0.795875 0.121099
H7    H     H_    0.206617 0.530972 0.293778 0.120258
H8    H     H_    0.772000 0.753492 0.706724 0.120948
H9    H     H_    0.385477 0.160274 0.297482 0.136797
H10   H     H_    0.631888 0.041317 0.703114 0.130004
H11   H     H_    0.311068 0.614723 0.355714 0.125842
H12   H     H_    0.675148 0.618048 0.643601 0.127112
C25   C     C_R   0.381813 0.888283 0.838799 -0.188947
C26   C     C_R   0.620692 0.327998 0.161107 -0.189413
H13   H     H_    0.301142 0.919459 0.958777 0.126097
H14   H     H_    0.701885 0.331826 0.041168 0.126343
H15   H     H_    0.404347 0.899566 0.899266 0.112213
H16   H     H_    0.599121 0.310161 0.100517 0.112230
C27   C     C_R   0.391284 0.855066 0.692794 -0.064774
C28   C     C_R   0.609398 0.351877 0.307312 -0.065478
C29   C     C_R   0.079011 0.894131 0.732807 -0.162846
C30   C     C_R   0.919765 0.432995 0.267489 -0.163505
C31   C     C_R   0.113952 0.877857 0.662795 -0.120683
C32   C     C_R   0.884409 0.433932 0.337539 -0.120003
C33   C     C_R   0.180890 0.872317 0.667740 -0.157620
C34   C     C_R   0.818042 0.414471 0.332564 -0.157840
C35   C     C_R   0.215091 0.883396 0.743817 0.086474
C36   C     C_R   0.784872 0.392937 0.256422 0.086266
C37   C     C_R   0.178719 0.901961 0.815656 0.066930
C38   C     C_R   0.821751 0.390521 0.184527 0.067266
C39   C     C_R   0.284019 0.876725 0.750967 0.074916
C40   C     C_R   0.716498 0.373649 0.249242 0.074874
C41   C     C_R   0.314556 0.891084 0.829490 0.108157
C42   C     C_R   0.687165 0.350568 0.170575 0.108054
C43   C     C_R   0.277937 0.908958 0.898693 -0.189613
C44   C     C_R   0.724232 0.349014 0.101340 -0.189817
C45   C     C_R   0.211234 0.913850 0.892066 -0.190340
C46   C     C_R   0.790300 0.368997 0.108029 -0.190739
C47   C     C_R   0.323892 0.857015 0.683166 -0.255574
C48   C     C_R   0.676057 0.375504 0.317089 -0.256382
C49   C     C_R   0.420609 0.871745 0.771358 0.138231
C50   C     C_R   0.581487 0.326991 0.228492 0.139685
C51   C     C_R   0.110375 0.906854 0.809401 -0.080656
C52   C     C_R   0.889473 0.411042 0.190795 -0.081066
H17   H     H_    0.304224 0.845059 0.621736 0.104104
H18   H     H_    0.694833 0.392657 0.378621 0.104396
H19   H     H_    0.026995 0.896477 0.727252 0.102595
H20   H     H_    0.971243 0.449973 0.273093 0.100841
H21   H     H_    0.204325 0.859317 0.610740 0.108745
H22   H     H_    0.794195 0.416897 0.389572 0.108947
H23   H     H_    0.088866 0.868644 0.603912 0.119002
H24   H     H_    0.908691 0.450693 0.396486 0.119039
H25   H     H_    0.185263 0.927642 0.947596 0.110358
H26   H     H_    0.816645 0.366852 0.052469 0.110442
O11   O     O_R   0.950790 0.256670 0.090520 -0.533518
O12   O     O_R   0.049210 0.756670 0.909480 -0.531522
O13   O     O_R   0.927720 0.590370 0.921470 -0.543861
O14   O     O_R   0.072280 0.090370 0.078530 -0.539731
C53   C     C_R   0.909236 0.425697 0.895579 0.687339
C54   C     C_R   0.089837 0.916659 0.104975 0.688681
O15   O     O_R   0.943270 0.586180 0.090640 -0.536492
O16   O     O_R   0.056730 0.086180 0.909360 -0.536925
O17   O     O_R   0.064850 0.759970 0.079840 -0.540800
O18   O     O_R   0.935150 0.259970 0.920160 -0.536660
C55   C     C_R   0.929983 0.417877 0.118843 0.681560
C56   C     C_R   0.069953 0.917405 0.881284 0.683138
O19   O     O_3   0.039850 0.428050 0.996240 -0.368812
O20   O     O_3   0.960150 0.928050 0.003760 -0.370928
V3    V     V_3+5 0.992610 0.701540 0.000700 1.417288
V4    V     V_3+5 0.007390 0.201540 0.999300 1.416251
C57   C     C_3   0.492944 0.873014 0.784974 -0.382235
C58   C     C_3   0.522399 0.673094 0.787712 -0.743958
H27   H     H_    0.503154 0.590091 0.838997 0.224701
H28   H     H_    0.511671 0.600788 0.729703 0.233040
H29   H     H_    0.575375 0.678790 0.797081 0.216234
H30   H     H_    0.514770 0.958225 0.736338 0.173196
H31   H     H_    0.505851 0.940973 0.843604 0.177573
C59   C     C_3   0.510343 0.296702 0.214537 -0.382308
C60   C     C_3   0.471625 0.483086 0.213780 -0.749556
H32   H     H_    0.477720 0.553864 0.273052 0.233547
H33   H     H_    0.487343 0.578465 0.164274 0.226172
H34   H     H_    0.419829 0.456109 0.202762 0.212258
H35   H     H_    0.500901 0.227941 0.155144 0.178355
H36   H     H_    0.493234 0.199161 0.262212 0.171999

loop_
_geom_bond_atom_site_label_1
_geom_bond_atom_site_label_2
_ccdc_geom_bond_type
C5    C54   S    
C35   C37   A    
C28   C48   A    
C15   C17   A    
C57   H30   S    
C29   C51   A    
C1    C28   S    
O1    C3    A    
C2    C27   S    
O2    C4    A    
C2    O7    A    
O20   V4    S    
C59   C60   S    
C32   H24   S    
C37   C45   A    
C37   C51   A    
O5    C3    A    
C34   H22   S    
C26   H16   S    
H13   C43   S    
C11   H9    S    
C36   C40   A    
C27   C49   A    
C29   C31   A    
C30   C32   A    
C60   H32   S    
C38   C46   A    
C54   O17   A    
C28   C50   A    
C58   H27   S    
C32   C34   A    
C41   C43   A    
C57   H31   S    
C34   C36   A    
O13   V3    S    
C8    C12   A    
C58   H28   S    
C60   H33   S    
C57   C58   S    
C29   H19   S    
C51   C56   S    
C20   H2    S    
C23   H7    S    
C13   H11   S    
C22   C24   A    
C59   H35   S    
C30   C52   A    
C27   C47   A    
O5    V1    S    
O13   C53   A    
C25   C41   A    
C6    C53   S    
O11   V4    S    
C50   C59   S    
C5    C21   A    
O11   C55   A    
C26   C50   A    
O20   V3    S    
O17   V3    S    
C35   C39   A    
C3    C8    S    
C31   C33   A    
C49   C57   S    
C44   C46   A    
C48   H18   S    
C43   C45   A    
C53   O18   A    
C47   H17   S    
C15   C23   A    
O16   C56   A    
C9    C17   A    
C19   H1    S    
C39   C41   A    
C36   C38   A    
O4    V2    S    
C7    C11   A    
H14   C44   S    
C30   H20   S    
O6    C4    A    
C60   H34   S    
C33   C35   A    
O19   V3    S    
O1    V2    S    
C21   H3    S    
O14   C54   A    
O2    V1    S    
C6    C22   A    
C33   H21   S    
C9    H5    S    
O4    C2    A    
C9    C11   A    
C13   C15   A    
C5    C19   A    
C22   H4    S    
C24   H8    S    
C6    C20   A    
O3    V1    S    
C59   H36   S    
O14   V4    S    
C10   C18   A    
C14   C16   A    
O3    C1    A    
C14   H12   S    
C40   C48   A    
C38   C52   A    
O18   V4    S    
O16   V4    S    
C58   H29   S    
C52   C55   S    
C12   H10   S    
C46   H26   S    
C16   C18   A    
C26   C42   A    
O15   V3    S    
C1    O8    A    
C17   C19   A    
O8    V2    S    
C18   C20   A    
C10   H6    S    
C8    C14   A    
C25   H15   S    
C4    C7    S    
C21   C23   A    
C25   C49   A    
O19   V4    S    
C10   C12   A    
O7    V1    S    
C7    C13   A    
C31   H23   S    
C45   H25   S    
O12   V3    S    
C39   C47   A    
C16   C24   A    
O6    V2    S    
O9    V2    S    
C40   C42   A    
O10   V1    S    
C42   C44   A    
O15   C55   A    
O12   C56   A    
