data_mof_unit_6885.cif
_audit_creation_date              2012-12-11T15:53:43-0500
_audit_creation_method            fapswitch 2.2
_symmetry_space_group_name_H-M    P1
_symmetry_Int_Tables_number       1
_space_group_crystal_system       triclinic
_cell_length_a                    10.66917
_cell_length_b                    10.656865
_cell_length_c                    17.001804
_cell_angle_alpha                 80.510631
_cell_angle_beta                  99.557611
_cell_angle_gamma                 118.388196
_cell_volume                      1668.78920185

loop_
_atom_site_label
_atom_site_type_symbol
_atom_type_description
_atom_site_fract_x
_atom_site_fract_y
_atom_site_fract_z
_atom_type_partial_charge
C1    C     C_R   0.358402 0.222266 0.626102 0.568137
C2    C     C_1   0.293879 0.108604 0.771858 0.005608
C3    C     C_1   0.335769 0.664450 0.277820 -0.067211
C4    C     C_R   0.413872 0.622636 0.601914 0.545246
C5    C     C_1   0.323484 0.673461 0.206980 -0.072905
C6    C     C_R   0.931264 0.712539 0.177817 -0.014609
C7    C     C_R   0.958116 0.618721 0.236843 0.000601
C8    C     C_R   0.931750 0.606400 0.314842 -0.026394
C9    C     C_R   0.855707 0.790224 0.279746 -0.146420
C10   C     C_R   0.888877 0.806049 0.201437 -0.148642
C11   C     C_3   0.928661 0.465154 0.242137 0.162543
C12   C     C_R   0.512849 0.746546 0.729222 0.025514
C13   C     C_3   0.906636 0.453347 0.329997 -0.218393
C14   C     C_R   0.863283 0.679349 0.334879 0.011626
C15   C     C_R   0.265040 0.061731 0.178572 -0.048434
C16   C     C_R   0.718980 0.586495 0.633256 0.527440
C17   C     C_R   0.173053 0.100483 0.204939 0.069616
C18   C     C_R   0.192996 0.135198 0.281082 -0.015463
C19   C     C_R   0.389943 0.075452 0.313565 -0.047893
C20   C     C_R   0.365087 0.036110 0.234912 -0.215411
C21   C     C_3   0.128763 0.213652 0.169705 0.151572
C22   C     C_3   0.147423 0.250402 0.254324 -0.214562
C23   C     C_R   0.497612 0.751555 0.809299 0.231716
C24   C     C_R   0.309363 0.137601 0.334113 -0.010434
C25   C     C_R   0.883042 0.698138 0.857706 0.595257
C26   C     C_R   0.318839 0.704168 0.900980 0.574424
C27   C     C_R   0.252279 0.057709 0.851326 0.572156
C28   C     C_R   0.349141 0.221669 0.401545 0.567464
C29   C     C_R   0.955162 0.718597 0.095557 0.542374
C30   C     C_R   0.313150 0.700556 0.123769 0.527024
C31   C     C_R   0.247295 0.039748 0.094963 0.542344
C32   C     C_R   0.365047 0.654576 0.360929 0.564356
C33   C     C_R   0.777397 0.624955 0.401920 0.552673
C34   C     C_3   0.123339 0.421455 0.793073 -0.042143
C35   C     C_R   0.365250 0.655212 0.841176 0.011443
C36   C     C_R   0.277676 0.530965 0.803266 -0.083758
C37   C     C_R   0.302536 0.516230 0.729471 0.006654
C38   C     C_2   0.628212 0.874284 0.690180 0.589872
C39   C     C_3   0.682710 0.389909 0.187966 -0.088450
C40   C     C_2   0.499656 0.052788 0.371711 0.601452
C41   C     C_3   0.959706 0.251818 0.080220 -0.056721
C42   C     C_3   0.641305 0.989730 0.836811 -0.020571
C43   C     C_2   0.011441 0.468933 0.788341 0.566812
C44   C     C_3   0.996201 0.193447 0.664549 -0.064787
C45   C     C_3   0.149677 0.412563 0.709045 0.165996
C46   C     C_R   0.406397 0.630422 0.686081 -0.081861
C47   C     C_1   0.768953 0.628003 0.712797 0.011984
C48   C     C_1   0.814942 0.667230 0.778767 0.048933
C49   C     C_1   0.330282 0.154773 0.705458 0.008662
Cr1   Cr    Cr6+3 0.608440 0.389080 0.519680 1.049690
Cr2   Cr    Cr6+3 0.288640 0.400090 0.490760 1.016404
Cr3   Cr    Cr6+3 0.602940 0.710800 0.489510 1.104417
Cr4   Cr    Cr6+3 0.052530 0.947560 0.964210 1.058683
Cr5   Cr    Cr6+3 0.059970 0.626800 0.992920 1.011918
Cr6   Cr    Cr6+3 0.373320 0.938440 0.995370 1.018695
H1    H     H_    0.798550 0.373082 0.346226 0.186359
H2    H     H_    0.869931 0.883209 0.158240 0.208142
H3    H     H_    0.026001 0.456941 0.235145 0.121881
H4    H     H_    0.682091 0.059437 0.618156 0.325127
H5    H     H_    0.688888 0.477890 0.141372 0.161292
H6    H     H_    0.659756 0.408469 0.244993 0.099914
H7    H     H_    0.589102 0.291284 0.167773 0.143762
H8    H     H_    0.642589 0.113786 0.290446 0.312394
H9    H     H_    0.016933 0.273143 0.026666 0.119445
H10   H     H_    0.992440 0.353566 0.105957 0.163430
H11   H     H_    0.843453 0.206072 0.060325 0.153674
H12   H     H_    0.994408 0.443634 0.371568 0.122429
H13   H     H_    0.552811 0.003628 0.797866 0.125951
H14   H     H_    0.741942 0.049296 0.807532 0.159414
H15   H     H_    0.659981 0.040512 0.892458 0.149711
H16   H     H_    0.802453 0.402560 0.799617 0.336182
H17   H     H_    0.979057 0.241589 0.603046 0.108920
H18   H     H_    0.912937 0.178344 0.701906 0.138444
H19   H     H_    0.986418 0.087134 0.658512 0.202800
H20   H     H_    0.427121 0.991817 0.216609 0.154102
H21   H     H_    0.207942 0.299401 0.130255 0.107550
H22   H     H_    0.235300 0.359805 0.263490 0.099159
H23   H     H_    0.045464 0.224115 0.277736 0.180794
H24   H     H_    0.101148 0.321883 0.833971 0.159103
H25   H     H_    0.099363 0.459309 0.657775 0.145305
H26   H     H_    0.809322 0.853818 0.293843 0.167833
O1    O     O_R   0.754020 0.497590 0.609930 -0.489417
O2    O     O_R   0.406180 0.826930 0.920660 -0.494221
O3    O     O_R   0.358620 0.062870 0.901950 -0.507986
O4    O     O_R   0.481420 0.271390 0.600630 -0.503779
O5    O     O_R   0.163910 0.085460 0.050210 -0.500165
O6    O     O_R   0.935200 0.815170 0.045770 -0.501178
O7    O     O_R   0.916120 0.596690 0.069430 -0.489315
O8    O     O_R   0.192310 0.631200 0.086170 -0.544529
O9    O     O_R   0.406770 0.819480 0.096420 -0.506212
O10   O     O_R   0.359170 0.055960 0.064880 -0.497689
O11   O     O_3   0.161940 0.837600 0.984160 -0.317843
O12   O     O_R   0.295080 0.533620 0.397890 -0.519643
O13   O     O_R   0.263810 0.254550 0.589590 -0.478365
O14   O     O_R   0.300820 0.531200 0.560890 -0.489902
O15   O     O_R   0.491480 0.744020 0.564270 -0.436258
O16   O     O_R   0.726290 0.693800 0.583010 -0.482009
O17   O     O_R   0.747830 0.500190 0.434090 -0.522537
O18   O     O_R   0.475680 0.273800 0.437630 -0.471695
O19   O     O_R   0.257620 0.257160 0.413750 -0.523725
O20   O     O_2   0.751474 0.893389 0.702903 -0.565136
O21   O     O_R   0.595526 0.976798 0.642018 -0.658956
O22   O     O_3   0.806543 0.369932 0.194479 -0.558232
O23   O     O_R   0.485280 0.746620 0.388440 -0.449529
O24   O     O_2   0.477184 0.013849 0.441900 -0.421488
O25   O     O_R   0.627649 0.071992 0.348056 -0.676378
O26   O     O_3   0.983687 0.151869 0.137566 -0.569244
O27   O     O_3   0.612449 0.844709 0.858039 -0.544462
O28   O     O_2   0.032430 0.588088 0.756949 -0.519261
O29   O     O_R   0.878492 0.369467 0.814347 -0.732726
O30   O     O_3   0.134220 0.276844 0.701016 -0.561248
O31   O     O_R   0.720550 0.696220 0.420010 -0.496140
O32   O     O_3   0.500010 0.499990 0.499980 -0.314518
O33   O     O_R   0.163320 0.092900 0.874450 -0.485866
O34   O     O_R   0.934650 0.822080 0.882840 -0.467090
O35   O     O_R   0.915520 0.604140 0.893670 -0.490472
O36   O     O_R   0.191760 0.638110 0.923230 -0.490143

loop_
_geom_bond_atom_site_label_1
_geom_bond_atom_site_label_2
_ccdc_geom_bond_type
C39   O22   S    
C8    C13   S    
C35   C36   A    
C26   O36   A    
C30   O9    A    
C14   C33   S    
C7    C8    A    
C4    C46   S    
Cr3   O32   S    
C7    C11   S    
C21   H21   S    
Cr1   O18   S    
C26   O2    A    
C18   C24   A    
C36   C37   A    
Cr6   O9    S    
C25   O34   A    
C16   O16   A    
C23   O27   S    
H16   O29   S    
Cr3   O16   S    
C42   H15   S    
C33   O17   A    
C29   O7    A    
Cr6   O10   S    
Cr1   O4    S    
C4    O15   A    
Cr3   O23   S    
C19   C20   A    
C1    O13   A    
Cr5   O35   S    
C32   O23   A    
C44   H17   S    
Cr4   O5    S    
C43   O29   S    
C11   H3    S    
C9    C10   A    
C13   H1    S    
C28   O19   A    
C32   O12   A    
C31   O5    A    
C21   C22   S    
C42   H13   S    
C3    C32   S    
C30   O8    A    
C16   C47   S    
C6    C7    A    
C1    O4    A    
C15   C20   A    
C39   H6    S    
Cr1   O17   S    
C10   H2    S    
C22   H23   S    
Cr5   O8    S    
C12   C46   A    
C25   O35   A    
C34   C45   S    
C41   H10   S    
C42   H14   S    
C17   C21   S    
C20   H20   S    
C9    C14   A    
C27   O33   A    
Cr5   O11   S    
Cr6   O11   S    
C2    C49   T    
C34   H24   S    
C4    O14   A    
C47   C48   T    
C12   C23   A    
Cr4   O11   S    
C16   O1    A    
C17   C18   A    
Cr4   O6    S    
C33   O31   A    
C21   O26   S    
H8    O25   S    
C44   H19   S    
C25   C48   S    
C2    C27   S    
Cr2   O12   S    
C28   O18   A    
C23   C35   A    
Cr6   O2    S    
Cr4   O33   S    
Cr1   O1    S    
C40   O25   S    
C5    C30   S    
C13   H12   S    
Cr2   O19   S    
C15   C17   A    
C39   H7    S    
C27   O3    A    
C8    C14   A    
C41   O26   S    
C18   C22   S    
H4    O21   S    
Cr2   O32   S    
C34   C43   S    
C24   C28   S    
C22   H22   S    
C3    C5    T    
C6    C10   A    
C45   O30   S    
C15   C31   S    
C41   H11   S    
C38   O20   D    
C31   O10   A    
Cr1   O32   S    
C19   C24   A    
C37   C46   A    
C38   O21   S    
Cr5   O7    S    
C11   C13   S    
C42   O27   S    
C39   H5    S    
C1    C49   S    
Cr3   O15   S    
C45   H25   S    
C34   C36   S    
C12   C38   S    
C44   H18   S    
C29   O6    A    
C19   C40   S    
Cr2   O13   S    
C44   O30   S    
C26   C35   S    
C6    C29   S    
Cr5   O36   S    
Cr2   O14   S    
Cr3   O31   S    
C11   O22   S    
C43   O28   D    
C41   H9    S    
Cr6   O3    S    
C37   C45   S    
Cr4   O34   S    
C9    H26   S    
C40   O24   D    
