data_mof_unit_23046.cif
_audit_creation_date              2013-03-05T16:32:08-0500
_audit_creation_method            fapswitch 2.2
_symmetry_space_group_name_H-M    P1
_symmetry_Int_Tables_number       1
_space_group_crystal_system       triclinic
_cell_length_a                    10.915938
_cell_length_b                    10.913663
_cell_length_c                    9.655327
_cell_angle_alpha                 90.379888
_cell_angle_beta                  89.657092
_cell_angle_gamma                 94.562822
_cell_volume                      1146.57888462

loop_
_atom_site_label
_atom_site_type_symbol
_atom_site_description
_atom_site_fract_x
_atom_site_fract_y
_atom_site_fract_z
_atom_type_partial_charge
O1    O     O_R   0.500000 0.319640 0.618810 -0.504421
O2    O     O_R   0.500010 0.319680 0.381230 -0.588512
C1    C     C_R   0.501990 0.262747 0.499504 0.828183
O3    O     O_R   0.317690 0.499960 0.618790 -0.511231
O4    O     O_R   0.317700 0.500000 0.381210 -0.617193
C2    C     C_R   0.260502 0.499063 0.498790 0.843949
Cu1   Cu    Cu3+1 0.499990 0.499980 0.640670 1.151169
Cu2   Cu    Cu3+1 0.500010 0.500020 0.359330 1.028935
O5    O     O_R   0.499990 0.680320 0.618770 -0.546655
O6    O     O_R   0.500000 0.680360 0.381190 -0.582495
O7    O     O_R   0.682300 0.500000 0.618790 -0.518640
O8    O     O_R   0.682310 0.500040 0.381210 -0.548482
C3    C     C_R   0.494306 0.737067 0.500439 0.866850
C4    C     C_R   0.740232 0.499986 0.499590 0.898169
C5    C     C_3   0.064927 0.400297 0.586712 -0.309609
H1    H     H_    0.104604 0.413455 0.688473 0.301916
H2    H     H_    0.089883 0.308757 0.549100 0.201447
C6    C     C_3   0.924893 0.401276 0.596391 0.183462
H3    H     H_    0.885026 0.312505 0.554234 0.165883
C7    C     C_3   0.087238 0.632538 0.537415 0.050783
C8    C     C_3   0.071452 0.475225 0.345934 -0.460973
C9    C     C_3   0.123342 0.502210 0.493966 -0.208765
H4    H     H_    0.109116 0.547123 0.272452 0.197587
H5    H     H_    0.103202 0.387184 0.306133 0.254299
C10   C     C_3   0.879533 0.505229 0.498558 -0.314167
C11   C     C_3   0.941642 0.641619 0.534292 0.461691
C12   C     C_3   0.928670 0.472558 0.347537 0.082398
H6    H     H_    0.904877 0.544890 0.274713 0.164862
H7    H     H_    0.128106 0.690990 0.452234 0.138608
C13   C     C_R   0.498318 0.065291 0.623550 0.107186
C14   C     C_R   0.497592 0.128868 0.498594 -0.142984
C15   C     C_R   0.474742 0.061528 0.375139 -0.111054
H8    H     H_    0.466778 0.107826 0.277092 0.199155
C16   C     C_R   0.466770 0.932881 0.376347 -0.118602
H9    H     H_    0.456211 0.883475 0.279185 0.212118
C17   C     C_R   0.478926 0.869526 0.501167 -0.136764
C18   C     C_R   0.480642 0.937577 0.624871 0.103445
C19   C     C_3   0.559344 0.925477 0.747345 0.139381
C20   C     C_3   0.600238 0.060446 0.728459 0.068312
H10   H     H_    0.635018 0.866430 0.730188 0.132404
H11   H     H_    0.692745 0.075940 0.679263 0.121819
C21   C     C_R   0.604583 0.532007 0.073711 0.279244
N1    N     N_R   0.500800 0.500930 0.147930 -0.225410
C22   C     C_R   0.401400 0.455712 0.078030 -0.129980
H12   H     H_    0.322251 0.419516 0.137155 0.177192
C23   C     C_R   0.403449 0.444945 0.932127 0.479593
N2    N     N_R   0.500800 0.500890 0.852020 -0.222752
C24   C     C_R   0.604327 0.533848 0.927702 0.285158
C25   C     C_3   0.681284 0.652449 0.929084 -0.396368
C26   C     C_3   0.681501 0.649256 0.085313 -0.394302
H13   H     H_    0.773550 0.643795 0.887532 0.288600
H14   H     H_    0.634323 0.728053 0.887027 0.249653
H15   H     H_    0.773722 0.636188 0.127297 0.228355
H16   H     H_    0.632554 0.723307 0.135321 0.265923
N3    N     N_R   0.916053 0.729953 0.423377 0.082504
O9    O     O_R   0.806841 0.727644 0.369779 -0.368705
O10   O     O_R   0.983692 0.833651 0.415282 -0.277389
S1    S     S_3+6 0.460290 0.889283 0.894724 0.057994
O11   O     O_2   0.407697 0.758048 0.885433 -0.266771
O12   O     O_2   0.532558 0.907820 0.026012 -0.307179
O13   O     O_3   0.343621 0.980847 0.896925 -0.403398
H17   H     H_    0.292096 0.952682 0.977148 0.397743
N4    N     N_R   0.591739 0.132954 0.854970 0.224977
O14   O     O_R   0.674343 0.125896 0.950546 -0.211941
O15   O     O_R   0.514592 0.216463 0.865508 -0.312659
S2    S     S_3+6 0.280599 0.338645 0.879641 0.105004
O16   O     O_2   0.165242 0.399884 0.909636 -0.241299
O17   O     O_2   0.284857 0.294521 0.732704 -0.251563
O18   O     O_3   0.272641 0.213137 0.981485 -0.433661
H18   H     H_    0.347554 0.218076 0.038941 0.341695
S3    S     S_3+6 0.880545 0.383590 0.777139 0.065012
O19   O     O_2   0.745100 0.355403 0.795680 -0.256473
O20   O     O_2   0.941392 0.274746 0.831138 -0.167586
O21   O     O_3   0.929644 0.506850 0.871828 -0.474426
H19   H     H_    0.919516 0.480448 0.969439 0.391335
N5    N     N_R   0.151169 0.680993 0.662388 0.184762
O22   O     O_R   0.148138 0.619825 0.777513 -0.226743
O23   O     O_R   0.214372 0.787140 0.657615 -0.276618
N6    N     N_R   0.887699 0.692114 0.661378 0.156528
O24   O     O_R   0.775644 0.723310 0.652818 -0.398378
O25   O     O_R   0.954327 0.746614 0.758157 -0.231923
N7    N     N_R   0.872970 0.355088 0.290956 0.145026
O26   O     O_R   0.913884 0.250525 0.324693 -0.314603
O27   O     O_R   0.797642 0.356581 0.187156 -0.299642

loop_
_geom_bond_atom_site_label_1
_geom_bond_atom_site_label_2
_geom_bond_distance
_ccdc_geom_bond_type
C5    C6    1.531776 S    
S2    O17   1.496846 D    
N3    O9    1.300808 A    
N4    O15   1.292294 A    
Cu2   N1    2.041190 S    
C11   N3    1.488086 S    
Cu1   Cu2   2.716430 S    
C20   H11   1.114487 S    
Cu1   O7    1.999993 S    
C26   H16   1.110042 S    
C17   C18   1.401720 A    
N5    O23   1.301264 A    
C23   S2    1.775900 S    
O4    C2    1.292066 A    
O7    C4    1.309893 A    
S2    O18   1.687787 S    
S1    O12   1.501104 D    
C5    H1    1.080241 S    
C2    C9    1.501362 S    
C7    N5    1.471594 S    
C5    H2    1.114216 S    
C16   H9    1.081115 S    
O5    C3    1.307333 A    
C19   S1    1.808642 S    
C5    C9    1.529426 S    
N2    C24   1.371933 A    
C25   H13   1.092741 S    
S1    O13   1.680138 S    
S2    O16   1.497730 D    
C8    C12   1.556539 S    
C8    C9    1.558213 S    
O13   H17   0.990564 S    
C6    C10   1.591781 S    
O3    Cu1   2.002397 S    
C22   C23   1.413050 A    
C7    H7    1.113402 S    
C19   C20   1.516646 S    
C26   H15   1.107498 S    
O21   H19   0.990340 S    
N5    O22   1.299317 A    
C3    C17   1.468497 S    
O3    C2    1.319003 A    
N6    O25   1.299176 A    
C6    H3    1.106113 S    
C10   C11   1.621672 S    
N6    O24   1.298755 A    
C13   C18   1.391959 A    
O1    C1    1.305882 A    
Cu1   N2    2.040681 S    
N1    C22   1.339963 A    
C18   C19   1.478564 S    
O4    Cu2   1.999992 S    
C14   C15   1.409248 A    
Cu2   O8    2.002396 S    
C25   H14   1.087529 S    
C21   C24   1.410064 A    
C1    C14   1.458038 S    
C21   C26   1.477581 S    
C24   C25   1.485991 S    
C7    C9    1.560036 S    
N7    O26   1.302146 A    
N7    O27   1.301179 A    
N3    O10   1.303684 A    
C21   N1    1.358077 A    
C22   H12   1.082217 S    
S3    O20   1.503986 D    
C6    S3    1.815694 S    
Cu1   O5    1.980891 S    
C23   N2    1.411917 A    
O1    Cu1   1.978072 S    
C12   N7    1.477300 S    
O2    Cu2   1.980889 S    
O8    C4    1.309558 A    
O6    C3    1.307053 A    
S3    O21   1.675579 S    
C10   C12   1.598504 S    
C20   N4    1.457534 S    
C11   N6    1.479893 S    
C15   H8    1.083228 S    
C8    H4    1.113861 S    
O2    C1    1.304796 A    
S1    O11   1.502349 D    
S3    O19   1.495954 D    
C19   H10   1.098508 S    
C13   C14   1.396146 A    
C7    C11   1.600732 S    
C13   C20   1.513327 S    
C16   C17   1.405599 A    
C4    C10   1.517092 S    
O18   H18   0.988632 S    
N4    O14   1.300974 A    
Cu2   O6    1.978071 S    
C25   C26   1.509094 S    
C8    H5    1.112433 S    
C12   H6    1.107785 S    
C15   C16   1.399902 A    
