data_mof_unit_30602.cif
_audit_creation_date              2012-12-10T18:57:43-0500
_audit_creation_method            fapswitch 2.2
_symmetry_space_group_name_H-M    P1
_symmetry_Int_Tables_number       1
_space_group_crystal_system       triclinic
_cell_length_a                    10.934355
_cell_length_b                    10.823562
_cell_length_c                    9.54033
_cell_angle_alpha                 89.837705
_cell_angle_beta                  90.066938
_cell_angle_gamma                 89.9561
_cell_volume                      1129.07972547

loop_
_atom_site_label
_atom_site_type_symbol
_atom_type_description
_atom_site_fract_x
_atom_site_fract_y
_atom_site_fract_z
_atom_type_partial_charge
C1    C     C_R   0.496893 0.262360 0.500227 0.814338
C2    C     C_R   0.434652 0.415288 0.074620 -0.060762
C3    C     C_R   0.434753 0.415188 0.925702 -0.040557
C4    C     C_R   0.265531 0.504639 0.499903 0.842518
C5    C     C_R   0.556386 0.592813 0.926031 0.257652
C6    C     C_3   0.688773 0.625445 0.920812 -0.476281
C7    C     C_3   0.688623 0.625188 0.079586 -0.492466
C8    C     C_R   0.491635 0.737528 0.499321 0.783406
C9    C     C_R   0.734798 0.494327 0.500190 0.789915
C10   C     C_2   0.933435 0.512147 0.391785 -0.227638
C11   C     C_2   0.865925 0.470285 0.500160 -0.172634
C12   C     C_R   0.480659 0.129712 0.500627 -0.161138
C13   C     C_2   0.066793 0.502404 0.385984 -0.110295
C14   C     C_2   0.134220 0.518492 0.501429 -0.281876
C15   C     C_R   0.487356 0.062362 0.625000 0.038263
C16   C     C_2   0.698159 0.116463 0.711911 0.427147
C17   C     C_2   0.915976 0.386694 0.610450 0.873863
C18   C     C_2   0.394044 0.878003 0.244573 0.372986
C19   C     C_R   0.446532 0.067729 0.377462 -0.164289
C20   C     C_R   0.438178 0.938080 0.375037 -0.019705
C21   C     C_R   0.470845 0.870580 0.498170 -0.186112
C22   C     C_R   0.483180 0.935796 0.623369 0.119654
C23   C     C_3   0.571014 0.923575 0.742652 -0.503749
C24   C     C_3   0.574457 0.064354 0.746387 -0.181759
C25   C     C_R   0.556406 0.592736 0.073515 0.269994
Cu1   Cu    Cu3+1 0.499990 0.499980 0.640670 0.982644
Cu2   Cu    Cu3+1 0.500010 0.500020 0.359330 0.949936
H1    H     H_    0.890200 0.560633 0.305286 0.160774
H2    H     H_    0.427675 0.120076 0.282849 0.193575
H3    H     H_    0.527261 0.882398 0.836948 0.228621
H4    H     H_    0.658226 0.879096 0.710139 0.177983
H5    H     H_    0.532339 0.103578 0.842673 0.197640
H6    H     H_    0.743320 0.092808 0.614275 0.067964
H7    H     H_    0.022245 0.239746 0.657305 0.339091
H8    H     H_    0.349630 0.788564 0.248279 0.094070
H9    H     H_    0.383572 0.345320 0.130606 0.144052
H10   H     H_    0.383864 0.345073 0.870028 0.142762
H11   H     H_    0.746083 0.550731 0.876094 0.268329
H12   H     H_    0.704997 0.718416 0.875404 0.190083
H13   H     H_    0.745402 0.549626 0.124141 0.224892
H14   H     H_    0.704136 0.718034 0.125801 0.203873
H15   H     H_    0.109326 0.487172 0.284646 0.173058
H16   H     H_    0.092089 0.542632 0.600670 0.152540
N1    N     N_R   0.500780 0.500930 0.147930 -0.194197
N2    N     N_R   0.500780 0.500890 0.852020 -0.184705
O1    O     O_R   0.500000 0.319640 0.618810 -0.572437
O2    O     O_2   0.888034 0.401900 0.733174 -0.569106
O3    O     O_R   0.994391 0.290042 0.573315 -0.748980
O4    O     O_2   0.404052 0.929459 0.131052 -0.572258
O5    O     O_R   0.500010 0.319680 0.381230 -0.584985
O6    O     O_R   0.321940 0.499980 0.618760 -0.583004
O7    O     O_R   0.321950 0.500020 0.381180 -0.594281
O8    O     O_R   0.499990 0.680320 0.618770 -0.571523
O9    O     O_R   0.500000 0.680360 0.381190 -0.602393
O10   O     O_R   0.678050 0.499980 0.618820 -0.548554
O11   O     O_R   0.678060 0.500020 0.381240 -0.578849
O12   O     O_2   0.748898 0.185230 0.794586 -0.497093

loop_
_geom_bond_atom_site_label_1
_geom_bond_atom_site_label_2
_ccdc_geom_bond_type
C8    O8    A    
C23   C24   S    
C17   O3    S    
C23   H3    S    
C6    C7    S    
C9    O10   A    
C16   H6    S    
C18   H8    S    
Cu2   O11   S    
C19   C20   A    
C7    C25   S    
C12   C15   A    
C7    H13   S    
Cu1   O10   S    
C2    H9    S    
C24   H5    S    
C2    C3    A    
Cu2   O9    S    
C16   C24   S    
C9    O11   A    
C13   C14   D    
Cu2   O7    S    
C9    C11   S    
Cu1   Cu2   S    
C1    C12   S    
C4    O7    A    
C5    C25   A    
C12   C19   A    
C21   C22   A    
C15   C24   S    
C15   C22   A    
C8    C21   S    
C18   C20   S    
C16   O12   D    
C7    H14   S    
C4    C14   S    
C5    C6    S    
C1    O1    A    
H7    O3    S    
C10   C11   D    
Cu1   O1    S    
C4    O6    A    
C8    O9    A    
C19   H2    S    
Cu1   O8    S    
C25   N1    A    
C20   C21   A    
C3    H10   S    
Cu2   O5    S    
C1    O5    A    
C10   H1    S    
C6    H12   S    
C13   H15   S    
Cu1   N2    S    
C6    H11   S    
Cu1   O6    S    
C5    N2    A    
Cu2   N1    S    
C3    N2    A    
C22   C23   S    
C11   C17   S    
C17   O2    D    
C18   O4    D    
C2    N1    A    
C14   H16   S    
C10   C13   S    
C23   H4    S    
