data_mof_unit_8934.cif
_audit_creation_date              2012-12-10T16:54:06-0500
_audit_creation_method            fapswitch 2.2
_symmetry_space_group_name_H-M    P1
_symmetry_Int_Tables_number       1
_space_group_crystal_system       triclinic
_cell_length_a                    9.735548
_cell_length_b                    10.936962
_cell_length_c                    13.433476
_cell_angle_alpha                 89.524729
_cell_angle_beta                  72.215179
_cell_angle_gamma                 89.299027
_cell_volume                      1361.88653248

loop_
_atom_site_label
_atom_site_type_symbol
_atom_type_description
_atom_site_fract_x
_atom_site_fract_y
_atom_site_fract_z
_atom_type_partial_charge
C1    C     C_R   0.499848 0.734550 0.498769 0.846714
C2    C     C_R   0.434804 0.509548 0.980994 0.086866
C3    C     C_R   0.466466 0.539405 0.873457 0.047554
C4    C     C_R   0.541875 0.527241 0.031521 0.089195
C5    C     C_R   0.672833 0.585900 0.977573 0.167045
C6    C     C_R   0.694448 0.628739 0.876155 -0.260388
C7    C     C_R   0.591791 0.608329 0.825746 -0.196263
C8    C     C_R   0.522499 0.488200 0.134529 -0.253793
C9    C     C_R   0.752763 0.571268 0.131623 -0.200153
C10   C     C_R   0.370760 0.502031 0.817448 -0.143215
C11   C     C_2   0.614443 0.065565 0.495059 -0.163063
C12   C     C_R   0.421206 0.502252 0.700847 0.783907
C13   C     C_2   0.495241 0.133556 0.507772 -0.320791
C14   C     C_2   0.611737 0.931724 0.500181 -0.158989
C15   C     C_2   0.498840 0.866694 0.493818 -0.318460
C16   C     C_2   0.110214 0.527150 0.421074 -0.081172
C17   C     C_2   0.954229 0.550861 0.430509 -0.001586
C18   C     C_R   0.499798 0.265506 0.501503 0.845675
C19   C     C_R   0.577797 0.501548 0.300030 0.801117
C20   C     C_R   0.778599 0.604837 0.027178 -0.214454
C21   C     C_R   0.622278 0.516061 0.186273 -0.048722
C22   C     C_R   0.231523 0.456019 0.875061 0.159768
C23   C     C_R   0.196179 0.443485 0.983418 -0.182542
C24   C     C_R   0.295850 0.466677 0.035091 -0.231991
Cu1   Cu    Cu3+1 0.361370 0.499980 0.499980 0.923455
Cu2   Cu    Cu3+1 0.638630 0.500020 0.500020 0.919754
H1    H     H_    0.831685 0.593012 0.170593 0.147375
H2    H     H_    0.389342 0.093632 0.524911 0.148575
H3    H     H_    0.707960 0.885902 0.507301 0.164913
H4    H     H_    0.403824 0.908974 0.482172 0.148107
H5    H     H_    0.188440 0.532686 0.344059 0.150886
H6    H     H_    0.086098 0.533396 0.571101 0.202700
H7    H     H_    0.931142 0.608301 0.371257 0.115197
H8    H     H_    0.790754 0.679211 0.835733 0.139604
H9    H     H_    0.879021 0.649453 0.986278 0.135378
H10   H     H_    0.429181 0.437050 0.177617 0.142069
H11   H     H_    0.258211 0.453609 0.118579 0.131779
H12   H     H_    0.090845 0.410935 0.029050 0.143182
H13   H     H_    0.610668 0.651276 0.750180 0.175046
H14   H     H_    0.718220 0.108626 0.481624 0.165718
N1    N     N_2   0.152660 0.501340 0.501130 -0.282864
N2    N     N_2   0.846520 0.501370 0.501160 -0.161091
O1    O     O_R   0.382960 0.678040 0.499980 -0.577719
O2    O     O_R   0.617100 0.678080 0.500020 -0.582729
O3    O     O_R   0.325800 0.499940 0.650950 -0.576187
O4    O     O_R   0.559930 0.499980 0.650990 -0.601755
O5    O     O_R   0.382900 0.321920 0.499980 -0.571383
O6    O     O_R   0.617040 0.321960 0.500020 -0.583827
O7    O     O_R   0.440070 0.500020 0.349010 -0.583549
O8    O     O_R   0.674200 0.500060 0.349050 -0.584107
C25   C     C_3   0.868428 0.393254 0.560779 -0.049626
C26   C     C_3   0.937131 0.284380 0.491027 -0.843364
H15   H     H_    0.893636 0.277382 0.423962 0.257887
H16   H     H_    0.055960 0.292159 0.460543 0.254427
H17   H     H_    0.913633 0.198557 0.537616 0.205271
H18   H     H_    0.922715 0.412380 0.619730 0.107899
H19   H     H_    0.762348 0.362403 0.611305 0.210681
C27   C     C_3   0.116269 0.417038 0.826996 -0.387575
C28   C     C_3   0.148927 0.290601 0.777065 -0.777453
H20   H     H_    0.257621 0.286029 0.718830 0.256683
H21   H     H_    0.143491 0.220433 0.838371 0.236237
H22   H     H_    0.067590 0.268680 0.737384 0.230537
H23   H     H_    0.009279 0.411471 0.887894 0.189177
H24   H     H_    0.098678 0.486676 0.771671 0.208430

loop_
_geom_bond_atom_site_label_1
_geom_bond_atom_site_label_2
_ccdc_geom_bond_type
C22   C27   S    
C2    C4    A    
H6    N1    S    
C13   H2    S    
C6    C7    A    
C25   H19   S    
C23   H12   S    
Cu1   O5    S    
C9    C20   A    
C26   H17   S    
Cu2   O6    S    
N2    C25   S    
C4    C8    A    
C1    O2    A    
C18   O5    A    
Cu1   O1    S    
C24   H11   S    
Cu1   Cu2   S    
Cu2   O2    S    
C28   H20   S    
C3    C10   A    
C10   C22   A    
C16   H5    S    
C27   H24   S    
C11   C13   D    
C19   O8    A    
C9    C21   A    
C5    C6    A    
C17   H7    S    
C13   C18   S    
C1    C15   S    
C10   C12   S    
C19   C21   S    
C26   H16   S    
C2    C3    A    
C3    C7    A    
Cu2   O8    S    
Cu2   N2    S    
C2    C24   A    
C11   H14   S    
C11   C14   S    
Cu1   O7    S    
C28   H21   S    
C16   C17   S    
Cu2   O4    S    
C23   C24   A    
C25   C26   S    
Cu1   O3    S    
C8    C21   A    
C26   H15   S    
C9    H1    S    
C15   H4    S    
C12   O4    A    
C25   H18   S    
C8    H10   S    
Cu1   N1    S    
C27   H23   S    
C5    C20   A    
C19   O7    A    
C17   N2    D    
C4    C5    A    
C28   H22   S    
C7    H13   S    
C14   H3    S    
C27   C28   S    
C14   C15   D    
C20   H9    S    
C16   N1    D    
C1    O1    A    
C22   C23   A    
C6    H8    S    
C12   O3    A    
C18   O6    A    
