data_mof_unit_36710.cif
_audit_creation_date              2012-12-10T18:16:25-0500
_audit_creation_method            fapswitch 2.2
_symmetry_space_group_name_H-M    P1
_symmetry_Int_Tables_number       1
_space_group_crystal_system       triclinic
_cell_length_a                    12.60356
_cell_length_b                    13.191353
_cell_length_c                    27.738736
_cell_angle_alpha                 90.690883
_cell_angle_beta                  103.111326
_cell_angle_gamma                 82.580992
_cell_volume                      4453.25221484

loop_
_atom_site_label
_atom_site_type_symbol
_atom_type_description
_atom_site_fract_x
_atom_site_fract_y
_atom_site_fract_z
_atom_type_partial_charge
C1    C     C_R   0.439098 0.691258 0.492941 0.883084
C2    C     C_R   0.411612 0.481307 0.713233 -0.087246
C3    C     C_R   0.504195 0.505753 0.747418 0.287039
C4    C     C_R   0.494846 0.503872 0.897626 -0.095858
C5    C     C_R   0.425130 0.579686 0.865150 -0.177109
C6    C     C_R   0.348130 0.648647 0.883773 0.477629
C7    C     C_R   0.566763 0.430292 0.879260 0.005418
C8    C     C_R   0.502927 0.501730 0.646777 -0.061671
C9    C     C_R   0.496833 0.497495 0.353212 -0.036970
C10   C     C_R   0.430707 0.579971 0.019178 0.073409
C11   C     C_R   0.552944 0.416187 0.030174 0.044256
C12   C     C_R   0.501116 0.500366 0.593883 0.893593
C13   C     C_R   0.491486 0.497378 0.049888 0.078418
C14   C     C_R   0.378440 0.663311 0.041367 -0.201665
C15   C     C_R   0.380122 0.662225 0.091520 -0.127922
C16   C     C_R   0.434723 0.578587 0.121454 -0.025295
C17   C     C_R   0.490937 0.496062 0.100863 -0.055450
C18   C     C_R   0.546879 0.412365 0.131363 -0.022526
C19   C     C_R   0.545512 0.412762 0.181649 0.508533
C20   C     C_R   0.436122 0.576162 0.171992 0.511792
C21   C     C_R   0.397850 0.482560 0.268342 -0.095825
C22   C     C_R   0.399574 0.484082 0.318612 -0.205779
C23   C     C_R   0.561015 0.309002 0.505385 0.899304
C24   C     C_R   0.592348 0.508779 0.336836 -0.214811
C25   C     C_R   0.590344 0.507097 0.286571 -0.095494
C26   C     C_R   0.493140 0.494191 0.252352 0.312489
C27   C     C_R   0.425221 0.577369 0.967591 -0.034281
C28   C     C_R   0.493116 0.500997 0.948525 0.083123
C29   C     C_R   0.559714 0.421765 0.980015 0.063307
C30   C     C_R   0.351068 0.647197 0.934310 -0.273001
C31   C     C_R   0.635190 0.355418 0.910901 -0.117752
C32   C     C_R   0.605275 0.331768 0.061449 -0.208777
C33   C     C_R   0.602297 0.330166 0.111109 -0.126581
C34   C     C_R   0.498935 0.499404 0.406124 0.843740
C35   C     C_R   0.632085 0.351207 0.960332 -0.208385
C36   C     C_R   0.726366 0.057836 0.490704 0.380438
C37   C     C_R   0.598359 0.200369 0.506542 -0.139818
C38   C     C_R   0.310498 0.834464 0.511454 -0.218484
C39   C     C_R   0.302571 0.928230 0.534344 -0.152373
C40   C     C_R   0.387343 0.989160 0.539645 0.398087
C41   C     C_R   0.470885 0.964845 0.512140 -0.035741
C42   C     C_R   0.477789 0.869396 0.488791 0.048693
C43   C     C_R   0.548313 0.030298 0.506905 0.083898
C44   C     C_R   0.644486 0.993228 0.490054 0.006158
C45   C     C_R   0.435886 0.581742 0.815520 0.561252
C46   C     C_R   0.649344 0.897815 0.467892 -0.156830
C47   C     C_R   0.562577 0.841315 0.463563 -0.172570
C48   C     C_R   0.523368 0.134651 0.510401 -0.145383
C49   C     C_R   0.702536 0.161811 0.499763 -0.252374
C50   C     C_R   0.403535 0.800893 0.493334 -0.133740
C51   C     C_R   0.088616 0.341221 0.435663 -0.248542
C52   C     C_R   0.798834 0.630276 0.558370 0.031250
C53   C     C_R   0.903780 0.657685 0.571913 -0.243407
C54   C     C_R   0.986206 0.607951 0.551020 -0.092930
C55   C     C_R   0.963693 0.531011 0.515383 0.034520
C56   C     C_R   0.568734 0.432684 0.829277 0.520637
C57   C     C_R   0.855272 0.504327 0.503958 0.229204
C58   C     C_R   0.043106 0.478141 0.491311 -0.130600
C59   C     C_R   0.012634 0.396870 0.458817 0.116935
C60   C     C_R   0.906325 0.371657 0.449283 -0.197416
C61   C     C_R   0.828760 0.425453 0.471049 -0.213172
C62   C     C_R   0.151565 0.501443 0.497151 0.702989
C63   C     C_R   0.194364 0.366150 0.444350 -0.085739
C64   C     C_R   0.596398 0.528052 0.731506 -0.070794
C65   C     C_R   0.595905 0.526027 0.681310 -0.195112
C66   C     C_R   0.410789 0.479318 0.663138 -0.164222
H1    H     H_    0.338065 0.460227 0.637347 0.191943
H2    H     H_    0.668011 0.547153 0.758036 0.155426
H3    H     H_    0.692151 0.299391 0.897601 0.197160
H4    H     H_    0.647243 0.264252 0.048444 0.150227
H5    H     H_    0.668516 0.518861 0.362738 0.170434
H6    H     H_    0.644051 0.264008 0.133623 0.194656
H7    H     H_    0.664013 0.516321 0.274088 0.145881
H8    H     H_    0.689917 0.293094 0.982478 0.149063
H9    H     H_    0.761646 0.213437 0.497788 0.197852
H10   H     H_    0.715268 0.869498 0.450276 0.223774
H11   H     H_    0.340418 0.463727 0.725637 0.160123
H12   H     H_    0.441231 0.165862 0.512339 0.208370
H13   H     H_    0.251171 0.783257 0.513839 0.233339
H14   H     H_    0.236127 0.947647 0.553018 0.218197
H15   H     H_    0.564169 0.773323 0.441337 0.166837
H16   H     H_    0.254802 0.323179 0.427308 0.159951
H17   H     H_    0.882529 0.310250 0.424440 0.179789
H18   H     H_    0.066454 0.278784 0.411248 0.179376
H19   H     H_    0.734383 0.668355 0.574601 0.153314
H20   H     H_    0.065982 0.630637 0.564877 0.228719
H21   H     H_    0.921569 0.716728 0.598906 0.174338
H22   H     H_    0.748425 0.402917 0.461696 0.207661
H23   H     H_    0.324886 0.475115 0.330283 0.167602
H24   H     H_    0.322662 0.472459 0.241757 0.145998
H25   H     H_    0.338592 0.727714 0.106768 0.196254
H26   H     H_    0.338214 0.732290 0.021221 0.159107
H27   H     H_    0.290353 0.699200 0.946801 0.207845
H28   H     H_    0.667853 0.543795 0.669607 0.171961
N1    N     N_R   0.503986 0.507416 0.798827 -0.365355
N2    N     N_R   0.491036 0.494087 0.200774 -0.357861
N3    N     N_R   0.222180 0.444690 0.474320 -0.137457
N4    N     N_R   0.776980 0.554780 0.525420 -0.135685
O1    O     O_R   0.366730 0.627160 0.487740 -0.554651
O2    O     O_2   0.383950 0.655401 0.192403 -0.549621
O3    O     O_2   0.634319 0.360497 0.810953 -0.539545
O4    O     O_2   0.597889 0.332637 0.211266 -0.549560
O5    O     O_R   0.544830 0.662520 0.504140 -0.626463
O6    O     O_R   0.410970 0.482310 0.563040 -0.564067
O7    O     O_R   0.589070 0.517670 0.579450 -0.626625
O8    O     O_R   0.455170 0.337480 0.495860 -0.616499
O9    O     O_R   0.633270 0.372840 0.512260 -0.634699
O10   O     O_R   0.410930 0.482330 0.420550 -0.624876
O11   O     O_R   0.589030 0.517690 0.436960 -0.648220
O12   O     O_2   0.381932 0.657979 0.784047 -0.442692
Zn1   Zn    Zn3+2 0.381080 0.476390 0.489050 1.025965
Zn2   Zn    Zn3+2 0.618920 0.523610 0.510950 0.946376
S1    S     S_3+6 0.855898 0.013124 0.478069 0.021833
O13   O     O_2   0.841855 0.999743 0.423210 -0.263368
O14   O     O_2   0.936083 0.088357 0.495126 -0.281729
O15   O     O_3   0.906125 0.899756 0.506860 -0.535165
H29   H     H_    0.906141 0.911948 0.542167 0.353749
S2    S     S_3+6 0.396104 0.076480 0.589476 0.022301
O16   O     O_2   0.324053 0.175072 0.571997 -0.320642
O17   O     O_2   0.355831 0.031820 0.630579 -0.239076
O18   O     O_3   0.526417 0.099068 0.611886 -0.545345
H30   H     H_    0.520598 0.159785 0.632949 0.389736
F1    F     F_    0.189663 0.580628 0.523939 -0.690021
S3    S     S_3+6 0.240842 0.734114 0.846338 0.076261
O19   O     O_2   0.289172 0.820081 0.827683 -0.218110
O20   O     O_2   0.181134 0.677892 0.803221 -0.246826
O21   O     O_3   0.149876 0.783935 0.879044 -0.570763
H31   H     H_    0.094752 0.830658 0.855539 0.395957

loop_
_geom_bond_atom_site_label_1
_geom_bond_atom_site_label_2
_ccdc_geom_bond_type
C10   C27   A    
C58   C62   A    
C56   N1    A    
C40   S2    S    
C21   C26   A    
C35   H8    S    
C8    C66   A    
O9    Zn2   S    
C6    S3    S    
C1    O1    A    
C46   H10   S    
C53   C54   A    
C64   H2    S    
C28   C29   A    
C56   O3    S    
C12   O6    A    
C30   H27   S    
C5    C6    A    
N3    Zn1   S    
C60   H17   S    
C9    C22   A    
C38   H13   S    
C15   C16   A    
O15   H29   S    
C18   C19   A    
C41   C42   A    
C48   H12   S    
S2    O16   D    
C33   H6    S    
C46   C47   A    
C16   C17   A    
C49   H9    S    
C43   C48   A    
C1    O5    A    
C16   C20   A    
C21   H24   S    
S1    O15   S    
C66   H1    S    
C20   N2    A    
C23   O9    A    
C59   C60   A    
C21   C22   A    
C27   C30   A    
C41   C43   A    
C7    C56   A    
C4    C7    A    
C36   S1    S    
C62   F1    S    
C4    C28   A    
C44   C46   A    
O8    Zn1   S    
C26   N2    S    
C38   C39   A    
C7    C31   A    
C63   H16   S    
C39   H14   S    
C51   C63   A    
C24   C25   A    
C10   C14   A    
O11   Zn2   S    
C39   C40   A    
C54   H20   S    
C45   O12   S    
C32   H4    S    
C58   C59   A    
C23   C37   S    
C23   O8    A    
C5    C45   A    
O5    Zn2   S    
S2    O18   S    
C43   C44   A    
C61   H22   S    
C62   N3    A    
C37   C49   A    
C8    C65   A    
C20   O2    S    
C8    C12   S    
O1    Zn1   S    
C17   C18   A    
C53   H21   S    
C37   C48   A    
C14   H26   S    
O18   H30   S    
C42   C50   A    
S3    O21   S    
C65   H28   S    
C6    C30   A    
O7    Zn2   S    
C11   C32   A    
C55   C57   A    
C9    C34   S    
C31   C35   A    
C36   C44   A    
C51   C59   A    
O21   H31   S    
C45   N1    A    
C52   C53   A    
S3    O20   D    
S1    O13   D    
C1    C50   S    
C54   C55   A    
C52   H19   S    
C4    C5    A    
C2    C66   A    
C10   C13   A    
O6    Zn1   S    
C3    N1    S    
C9    C24   A    
C57   C61   A    
C38   C50   A    
C29   C35   A    
O10   Zn1   S    
C13   C17   A    
C34   O10   A    
C32   C33   A    
N4    Zn2   S    
C2    C3    A    
C25   C26   A    
C63   N3    A    
C2    H11   S    
C64   C65   A    
C11   C13   A    
C12   O7    A    
C57   N4    A    
C52   N4    A    
C19   O4    S    
C22   H23   S    
C25   H7    S    
C42   C47   A    
C47   H15   S    
C3    C64   A    
C18   C33   A    
S2    O17   D    
C36   C49   A    
C15   H25   S    
C31   H3    S    
C11   C29   A    
C55   C58   A    
C27   C28   A    
C34   O11   A    
C14   C15   A    
C60   C61   A    
C40   C41   A    
C51   H18   S    
C19   N2    A    
C24   H5    S    
S3    O19   D    
S1    O14   D    
