data_mof_unit_26302.cif
_audit_creation_date              2012-12-11T14:24:53-0500
_audit_creation_method            fapswitch 2.2
_symmetry_space_group_name_H-M    P1
_symmetry_Int_Tables_number       1
_space_group_crystal_system       triclinic
_cell_length_a                    18.854052
_cell_length_b                    11.103906
_cell_length_c                    18.688286
_cell_angle_alpha                 90.152065
_cell_angle_beta                  91.503445
_cell_angle_gamma                 90.291721
_cell_volume                      3911.047578

loop_
_atom_site_label
_atom_site_type_symbol
_atom_type_description
_atom_site_fract_x
_atom_site_fract_y
_atom_site_fract_z
_atom_type_partial_charge
C1    C     C_R   0.730722 0.375399 0.146153 0.535349
C2    C     C_R   0.249146 0.908124 0.072792 -0.007781
C3    C     C_R   0.647583 0.589375 0.407781 -0.081682
C4    C     C_R   0.847249 0.210504 0.593100 -0.100941
C5    C     C_R   0.080113 0.079744 0.434569 -0.115498
C6    C     C_R   0.347234 0.710510 0.593104 -0.100940
C7    C     C_R   0.580128 0.579783 0.434553 -0.115484
C8    C     C_R   0.862152 0.220344 0.521354 -0.143126
C9    C     C_R   0.071376 0.040798 0.504467 -0.148054
C10   C     C_R   0.362138 0.720356 0.521358 -0.143120
C11   C     C_R   0.571384 0.540836 0.504449 -0.148061
C12   C     C_R   0.822517 0.158437 0.469359 -0.107372
C13   C     C_R   0.257402 0.397944 0.931060 -0.002487
C14   C     C_R   0.130534 0.011055 0.547071 -0.094556
C15   C     C_R   0.322507 0.658445 0.469362 -0.107375
C16   C     C_R   0.630537 0.511091 0.547060 -0.094573
C17   C     C_R   0.734578 0.995540 0.439749 0.007616
C18   C     C_R   0.264430 0.998085 0.557938 0.001364
C19   C     C_R   0.234580 0.495533 0.439747 0.007624
C20   C     C_R   0.764432 0.498091 0.557936 0.001361
C21   C     C_R   0.734434 0.391273 0.348313 0.536749
C22   C     C_R   0.266857 0.382310 0.648401 0.532128
C23   C     C_R   0.234433 0.891273 0.348314 0.536748
C24   C     C_R   0.749145 0.408124 0.072791 -0.007785
C25   C     C_R   0.766856 0.882312 0.648401 0.532127
C26   C     C_R   0.534294 0.155911 0.354712 0.534835
C27   C     C_R   0.469736 0.158709 0.648677 0.525626
C28   C     C_R   0.034293 0.655911 0.354712 0.534836
C29   C     C_R   0.969735 0.658710 0.648677 0.525627
C30   C     C_R   0.728797 0.022919 0.363879 0.567064
C31   C     C_R   0.270184 0.019495 0.635563 0.563239
C32   C     C_R   0.228797 0.522918 0.363879 0.567062
C33   C     C_R   0.770184 0.519496 0.635563 0.563242
C34   C     C_3   0.543066 0.242975 0.969678 -0.134344
C35   C     C_R   0.696880 0.853680 0.966696 0.020822
C36   C     C_3   0.487380 0.273854 0.026435 -0.120779
C37   C     C_3   0.043083 0.742945 0.969675 -0.134348
C38   C     C_3   0.987402 0.773863 0.026431 -0.120770
C39   C     C_3   0.566770 0.132277 0.014106 -0.101446
C40   C     C_3   0.431961 0.192954 0.986692 -0.115319
C41   C     C_3   0.066764 0.632237 0.014107 -0.101445
C42   C     C_3   0.931967 0.692990 0.986692 -0.115330
C43   C     C_3   0.510496 0.162846 0.069554 0.056068
C44   C     C_3   0.488177 0.162251 0.931377 0.046804
C45   C     C_3   0.010496 0.662846 0.069554 0.056070
C46   C     C_R   0.301482 0.845716 0.033266 0.019530
C47   C     C_3   0.988177 0.662248 0.931377 0.046804
C48   C     C_R   0.196881 0.353683 0.966697 0.020816
C49   C     C_R   0.801482 0.345719 0.033266 0.019528
C50   C     C_R   0.698867 0.848790 0.042583 0.023626
C51   C     C_R   0.296235 0.845929 0.957352 0.024915
C52   C     C_R   0.198867 0.348791 0.042583 0.023619
C53   C     C_R   0.270705 0.373405 0.855179 0.531426
C54   C     C_R   0.796236 0.345930 0.957352 0.024917
C55   C     C_R   0.815115 0.942027 0.045512 -0.154759
C56   C     C_R   0.196959 0.983712 0.963196 -0.158384
C57   C     C_R   0.315117 0.442019 0.045514 -0.154758
C58   C     C_R   0.696956 0.483706 0.963194 -0.158382
C59   C     C_R   0.816529 0.937219 0.972194 -0.154318
C60   C     C_R   0.198824 0.978065 0.036252 -0.154130
C61   C     C_R   0.316533 0.437208 0.972196 -0.154309
C62   C     C_R   0.698821 0.478060 0.036251 -0.154128
C63   C     C_R   0.635301 0.811038 0.929881 -0.105012
C64   C     C_R   0.230722 0.875398 0.146153 0.535352
C65   C     C_R   0.358091 0.781453 0.066092 -0.085317
C66   C     C_R   0.135300 0.311048 0.929880 -0.105007
C67   C     C_R   0.858092 0.281460 0.066093 -0.085312
C68   C     C_R   0.083084 0.248659 0.966120 -0.149214
C69   C     C_R   0.900993 0.207190 0.025922 -0.127690
C70   C     C_R   0.583084 0.748651 0.966121 -0.149214
C71   C     C_R   0.400990 0.707183 0.025920 -0.127690
C72   C     C_R   0.589596 0.732269 0.039668 -0.134285
C73   C     C_R   0.391559 0.699998 0.952171 -0.129551
C74   C     C_R   0.089596 0.232273 0.039667 -0.134287
C75   C     C_R   0.770705 0.873406 0.855179 0.531425
C76   C     C_R   0.891562 0.200003 0.952173 -0.129560
C77   C     C_R   0.646241 0.783098 0.077878 -0.084735
C78   C     C_R   0.339721 0.768469 0.917924 -0.081542
C79   C     C_R   0.146240 0.283099 0.077877 -0.084739
C80   C     C_R   0.839724 0.268473 0.917925 -0.081544
C81   C     C_R   0.531958 0.155271 0.144760 0.545816
C82   C     C_R   0.467143 0.155402 0.855860 0.543700
C83   C     C_R   0.031959 0.655271 0.144760 0.545818
C84   C     C_R   0.967142 0.655401 0.855860 0.543704
C85   C     C_R   0.754410 0.907810 0.081016 -0.009305
C86   C     C_3   0.455721 0.082533 0.030995 -0.118261
C87   C     C_R   0.246987 0.922820 0.922936 -0.009373
C88   C     C_R   0.254411 0.407808 0.081017 -0.009305
C89   C     C_R   0.746987 0.422818 0.922935 -0.009369
C90   C     C_R   0.505689 0.171784 0.580213 -0.010887
C91   C     C_R   0.512092 0.158323 0.430146 0.000075
C92   C     C_R   0.005684 0.671787 0.580211 -0.010885
C93   C     C_R   0.012089 0.658320 0.430145 0.000078
C94   C     C_R   0.531919 0.067977 0.548086 0.024920
C95   C     C_R   0.520658 0.053767 0.473878 0.035988
C96   C     C_R   0.031922 0.567984 0.548087 0.024917
C97   C     C_3   0.511352 0.051916 0.974871 -0.101308
C98   C     C_R   0.020663 0.553768 0.473879 0.035991
C99   C     C_R   0.498615 0.268559 0.463559 -0.144944
C100  C     C_R   0.491027 0.273424 0.537625 -0.151246
C101  C     C_R   0.998601 0.768554 0.463556 -0.144945
C102  C     C_R   0.991010 0.773419 0.537621 -0.151249
C103  C     C_R   0.556471 0.970074 0.589706 -0.075205
C104  C     C_R   0.513573 0.934794 0.448006 -0.103433
C105  C     C_R   0.056480 0.470088 0.589709 -0.075208
C106  C     C_R   0.013584 0.434793 0.448010 -0.103428
C107  C     C_R   0.050315 0.354213 0.562858 -0.118449
C108  C     C_3   0.955705 0.582559 0.030999 -0.118275
C109  C     C_R   0.026861 0.337790 0.492750 -0.156580
C110  C     C_R   0.550298 0.854201 0.562852 -0.118456
C111  C     C_R   0.526843 0.837785 0.492744 -0.156579
C112  C     C_R   0.739682 0.936114 0.583680 -0.001783
C113  C     C_R   0.257766 0.969122 0.409696 0.001492
C114  C     C_R   0.239683 0.436105 0.583678 -0.001773
C115  C     C_R   0.757773 0.469124 0.409694 0.001486
C116  C     C_R   0.766570 0.047626 0.562818 0.027987
C117  C     C_R   0.204477 0.034187 0.445088 0.039577
C118  C     C_R   0.266564 0.547623 0.562817 0.027984
C119  C     C_3   0.011329 0.551903 0.974876 -0.101297
C120  C     C_R   0.704488 0.534205 0.445082 0.039579
C121  C     C_R   0.773159 0.069851 0.489262 0.017794
C122  C     C_R   0.199688 0.015844 0.518691 0.024284
C123  C     C_R   0.273154 0.569851 0.489262 0.017789
C124  C     C_R   0.699694 0.515867 0.518685 0.024286
C125  C     C_R   0.699551 0.892621 0.463882 -0.131282
C126  C     C_R   0.327086 0.981728 0.519360 -0.153051
C127  C     C_R   0.199562 0.392604 0.463877 -0.131277
C128  C     C_R   0.827089 0.481715 0.519361 -0.153040
C129  C     C_R   0.742823 0.965409 0.150346 0.549718
C130  C     C_R   0.757399 0.897948 0.931059 -0.002491
C131  C     C_R   0.257406 0.968371 0.850684 0.544400
C132  C     C_R   0.242823 0.465409 0.150347 0.549718
C133  C     C_R   0.757406 0.468371 0.850684 0.544404
C134  C     C_R   0.705921 0.859605 0.534295 -0.147035
C135  C     C_R   0.322526 0.955416 0.445780 -0.161934
C136  C     C_R   0.205931 0.359588 0.534291 -0.147031
C137  C     C_R   0.822530 0.455403 0.445781 -0.161924
C138  C     C_R   0.796697 0.128262 0.613793 -0.079703
C139  C     C_R   0.147565 0.089349 0.407792 -0.081680
C140  C     C_R   0.296685 0.628262 0.613795 -0.079711
Cr1   Cr    Cr6+3 0.772820 0.169820 0.252640 0.984797
Cr2   Cr    Cr6+3 0.383280 0.011130 0.749340 0.988691
Cr3   Cr    Cr6+3 0.116720 0.511130 0.250660 0.995378
Cr4   Cr    Cr6+3 0.883280 0.511130 0.749340 0.988692
Cr5   Cr    Cr6+3 0.227180 0.169820 0.747360 0.988598
Cr6   Cr    Cr6+3 0.272820 0.669820 0.252640 0.984798
Cr7   Cr    Cr6+3 0.727180 0.669820 0.747360 0.988597
Cr8   Cr    Cr6+3 0.615040 0.323610 0.249150 1.003919
Cr9   Cr    Cr6+3 0.384960 0.323610 0.750850 0.998010
Cr10  Cr    Cr6+3 0.115040 0.823610 0.249150 1.003918
Cr11  Cr    Cr6+3 0.884960 0.823610 0.750850 0.998009
Cr12  Cr    Cr6+3 0.616720 0.011130 0.250660 0.995378
H1    H     H_    0.622542 0.106680 0.026981 0.129885
H2    H     H_    0.153172 0.119641 0.353112 0.121714
H3    H     H_    0.286405 0.619858 0.670339 0.118868
H4    H     H_    0.653195 0.619659 0.353099 0.121712
H5    H     H_    0.687021 0.771280 0.549428 0.148589
H6    H     H_    0.367292 0.919223 0.418215 0.105401
H7    H     H_    0.187038 0.271259 0.549423 0.148580
H8    H     H_    0.867294 0.419200 0.418218 0.105400
H9    H     H_    0.876374 0.263809 0.632579 0.139083
H10   H     H_    0.034564 0.101605 0.400661 0.095515
H11   H     H_    0.376358 0.763814 0.632584 0.139094
H12   H     H_    0.375869 0.214715 0.973307 0.129967
H13   H     H_    0.534584 0.601645 0.400639 0.095517
H14   H     H_    0.901888 0.281894 0.505465 0.115029
H15   H     H_    0.018741 0.035872 0.525892 0.104770
H16   H     H_    0.401872 0.781911 0.505472 0.115040
H17   H     H_    0.518746 0.535910 0.525869 0.104761
H18   H     H_    0.835550 0.177062 0.415037 0.164584
H19   H     H_    0.119628 0.975789 0.599328 0.155245
H20   H     H_    0.335543 0.677071 0.415040 0.164585
H21   H     H_    0.619625 0.475832 0.599316 0.155244
H22   H     H_    0.419899 0.018374 0.057761 0.121737
H23   H     H_    0.122531 0.606608 0.026982 0.129891
H24   H     H_    0.520049 0.961849 0.951553 0.144897
H25   H     H_    0.919869 0.518425 0.057768 0.121728
H26   H     H_    0.020008 0.461825 0.951563 0.144904
H27   H     H_    0.860945 0.978199 0.074437 0.135999
H28   H     H_    0.156938 0.040461 0.938420 0.158500
H29   H     H_    0.360947 0.478191 0.074439 0.135992
H30   H     H_    0.656934 0.540450 0.938418 0.158494
H31   H     H_    0.866222 0.960175 0.948098 0.147063
H32   H     H_    0.157672 0.024755 0.064120 0.149862
H33   H     H_    0.366227 0.460159 0.948100 0.147063
H34   H     H_    0.875878 0.714776 0.973305 0.129970
H35   H     H_    0.657667 0.524747 0.064118 0.149864
H36   H     H_    0.052030 0.177978 0.067725 0.097942
H37   H     H_    0.923841 0.139939 0.921269 0.097448
H38   H     H_    0.552030 0.677976 0.067728 0.097941
H39   H     H_    0.423837 0.639933 0.921267 0.097450
H40   H     H_    0.650401 0.764693 0.134634 0.125754
H41   H     H_    0.332371 0.756539 0.860761 0.125054
H42   H     H_    0.150400 0.264692 0.134633 0.125755
H43   H     H_    0.832375 0.256541 0.860761 0.125055
H44   H     H_    0.573222 0.981995 0.645193 0.122616
H45   H     H_    0.490744 0.349329 0.432078 0.140943
H46   H     H_    0.490730 0.913569 0.395932 0.133776
H47   H     H_    0.073229 0.482016 0.645196 0.122612
H48   H     H_    0.990742 0.413561 0.395937 0.133776
H49   H     H_    0.061216 0.277472 0.596942 0.116100
H50   H     H_    0.012592 0.250456 0.474268 0.110526
H51   H     H_    0.561194 0.777456 0.596935 0.116093
H52   H     H_    0.512565 0.750454 0.474262 0.110518
H53   H     H_    0.671312 0.832237 0.427578 0.151176
H54   H     H_    0.378080 0.977252 0.547148 0.150581
H55   H     H_    0.171331 0.332213 0.427572 0.151162
H56   H     H_    0.470200 0.354547 0.561169 0.141419
H57   H     H_    0.878081 0.477226 0.547151 0.150583
H58   H     H_    0.578824 0.307433 0.942947 0.116514
H59   H     H_    0.477172 0.364353 0.049191 0.104806
H60   H     H_    0.078853 0.807379 0.942941 0.116516
H61   H     H_    0.977210 0.864372 0.049183 0.104812
H62   H     H_    0.625967 0.825718 0.873379 0.134463
H63   H     H_    0.371591 0.788964 0.122333 0.137461
H64   H     H_    0.125966 0.325731 0.873379 0.134463
H65   H     H_    0.871592 0.288971 0.122334 0.137461
H66   H     H_    0.038363 0.211129 0.936514 0.109297
H67   H     H_    0.990722 0.849319 0.432073 0.140937
H68   H     H_    0.939859 0.151386 0.052646 0.090697
H69   H     H_    0.538363 0.711119 0.936517 0.109298
H70   H     H_    0.439857 0.651379 0.052644 0.090697
H71   H     H_    0.970171 0.854535 0.561162 0.141427
H72   H     H_    0.786416 0.119863 0.670337 0.118871
O1    O     O_R   0.788190 0.043000 0.172520 -0.517494
O2    O     O_R   0.454170 0.051610 0.669840 -0.537506
O3    O     O_R   0.045830 0.551610 0.330160 -0.541858
O4    O     O_R   0.954170 0.551610 0.669840 -0.537505
O5    O     O_R   0.681920 0.959720 0.327070 -0.512039
O6    O     O_R   0.318080 0.959720 0.672930 -0.512282
O7    O     O_R   0.181920 0.459720 0.327070 -0.512037
O8    O     O_R   0.818080 0.459720 0.672930 -0.512278
O9    O     O_3   0.668190 0.168190 0.250820 -0.258430
O10   O     O_3   0.331810 0.168190 0.749180 -0.256390
O11   O     O_3   0.168190 0.668190 0.250820 -0.258430
O12   O     O_R   0.211810 0.043000 0.827480 -0.522500
O13   O     O_3   0.831810 0.668190 0.749180 -0.256390
O14   O     O_R   0.766240 0.292300 0.176860 -0.515362
O15   O     O_R   0.233760 0.292300 0.823140 -0.511390
O16   O     O_R   0.266240 0.792300 0.176860 -0.515362
O17   O     O_R   0.733760 0.792300 0.823140 -0.511390
O18   O     O_R   0.670310 0.409160 0.168720 -0.529245
O19   O     O_R   0.329690 0.409160 0.831280 -0.531706
O20   O     O_R   0.170310 0.909160 0.168720 -0.529244
O21   O     O_R   0.829690 0.909160 0.831280 -0.531707
O22   O     O_R   0.556160 0.251900 0.173380 -0.501402
O23   O     O_R   0.288190 0.543000 0.172520 -0.517493
O24   O     O_R   0.443840 0.251900 0.826620 -0.504139
O25   O     O_R   0.056160 0.751900 0.173380 -0.501404
O26   O     O_R   0.943840 0.751900 0.826620 -0.504137
O27   O     O_R   0.545410 0.050140 0.168240 -0.518206
O28   O     O_R   0.454590 0.050140 0.831760 -0.524133
O29   O     O_R   0.045410 0.550140 0.168240 -0.518207
O30   O     O_R   0.954590 0.550140 0.831760 -0.524137
O31   O     O_R   0.681530 0.958350 0.176970 -0.505139
O32   O     O_R   0.318470 0.958350 0.823030 -0.501617
O33   O     O_R   0.181530 0.458350 0.176970 -0.505141
O34   O     O_R   0.711810 0.543000 0.827480 -0.522500
O35   O     O_R   0.818470 0.458350 0.823030 -0.501618
O36   O     O_R   0.788610 0.044480 0.334450 -0.536784
O37   O     O_R   0.211390 0.044480 0.665550 -0.539890
O38   O     O_R   0.288610 0.544480 0.334450 -0.536783
O39   O     O_R   0.711390 0.544480 0.665550 -0.539888
O40   O     O_R   0.766630 0.293670 0.326970 -0.533438
O41   O     O_R   0.233370 0.293670 0.673030 -0.527497
O42   O     O_R   0.266630 0.793670 0.326970 -0.533439
O43   O     O_R   0.733370 0.793670 0.673030 -0.527495
O44   O     O_R   0.670730 0.410640 0.330640 -0.515698
O45   O     O_R   0.556550 0.253260 0.323480 -0.493249
O46   O     O_R   0.329270 0.410640 0.669360 -0.518947
O47   O     O_R   0.170730 0.910640 0.330640 -0.515703
O48   O     O_R   0.829270 0.910640 0.669360 -0.518951
O49   O     O_R   0.443450 0.253260 0.676520 -0.503142
O50   O     O_R   0.056550 0.753260 0.323480 -0.493247
O51   O     O_R   0.943450 0.753260 0.676520 -0.503147
O52   O     O_R   0.545830 0.051610 0.330160 -0.541857

loop_
_geom_bond_atom_site_label_1
_geom_bond_atom_site_label_2
_ccdc_geom_bond_type
C125  C134  A    
C58   C62   A    
C66   C68   A    
C96   C105  A    
C59   C130  A    
C29   O51   A    
Cr1   O14   S    
C14   C122  A    
Cr7   O39   S    
C55   C59   A    
C69   H68   S    
C107  C109  A    
C72   C77   A    
C68   C74   A    
Cr3   O33   S    
C117  C122  A    
C4    C8    A    
C6    H11   S    
C53   O15   A    
C57   H29   S    
C100  H56   S    
Cr5   O41   S    
C45   C83   S    
C2    C46   A    
C7    C11   A    
C105  C107  A    
C19   C123  A    
C101  C102  A    
C79   H42   S    
C15   C123  A    
C39   H1    S    
C103  C110  A    
C30   O36   A    
C30   O5    A    
C82   O28   A    
C109  H50   S    
C51   C78   A    
Cr9   O46   S    
C20   C128  A    
C3    C7    A    
C10   C15   A    
C9    H15   S    
C2    C60   A    
Cr11  O48   S    
Cr2   O6    S    
Cr7   O17   S    
C87   C131  S    
Cr10  O11   S    
C31   O6    A    
Cr5   O15   S    
C92   C96   A    
C70   H69   S    
Cr2   O32   S    
C3    C120  A    
C27   C90   S    
Cr6   O42   S    
Cr8   O9    S    
C44   C97   S    
C40   C86   S    
Cr4   O35   S    
C86   C97   S    
C127  H55   S    
C110  C111  A    
C59   H31   S    
C38   C45   S    
C76   H37   S    
C34   H58   S    
C50   C85   A    
C85   C129  S    
Cr3   O11   S    
C58   C89   A    
C136  H7    S    
C12   C121  A    
C115  C137  A    
C96   C98   A    
C15   H20   S    
C73   C78   A    
C5    C139  A    
C119  H26   S    
C90   C100  A    
C33   O8    A    
C49   C54   A    
C40   C44   S    
C13   C53   S    
Cr12  O31   S    
C21   O44   A    
C45   C108  S    
C21   C115  S    
C27   O49   A    
C42   H34   S    
C23   O42   A    
C47   C119  S    
C7    H13   S    
C32   O7    A    
C63   H62   S    
C71   H70   S    
C114  C136  A    
Cr5   O10   S    
C83   O25   A    
Cr8   O18   S    
C17   C30   S    
C25   C112  S    
C108  C119  S    
C135  H6    S    
C117  C139  A    
Cr2   O10   S    
C55   H27   S    
C81   O27   A    
Cr1   O9    S    
C118  C140  A    
C19   C32   S    
C81   O22   A    
C28   O3    A    
C72   H38   S    
C42   C47   S    
C25   O43   A    
C125  H53   S    
C2    C64   S    
C102  H71   S    
C90   C94   A    
Cr11  O26   S    
C116  C138  A    
Cr7   O13   S    
Cr1   O1    S    
Cr11  O13   S    
C115  C120  A    
C89   C133  S    
C116  C121  A    
C84   O26   A    
C34   C39   S    
C129  O31   A    
C67   H65   S    
C61   H33   S    
Cr2   O28   S    
C127  C136  A    
C111  H52   S    
C46   C65   A    
Cr7   O43   S    
Cr12  O52   S    
C93   C101  A    
C71   C73   A    
C131  O32   A    
C14   H19   S    
C56   C87   A    
C12   H18   S    
Cr12  O9    S    
C36   H59   S    
C139  H2    S    
C26   C91   S    
C65   C71   A    
Cr4   O30   S    
C46   C51   A    
C56   C60   A    
C110  H51   S    
C86   H22   S    
C104  C111  A    
Cr9   O49   S    
C55   C85   A    
C68   H66   S    
C9    C14   A    
C18   C122  A    
C37   H60   S    
C5    C9    A    
C37   C38   S    
C75   O17   A    
Cr2   O2    S    
C128  H57   S    
C23   C113  S    
C26   O45   A    
C11   C16   A    
C101  H67   S    
C21   O40   A    
C28   O50   A    
C99   C100  A    
C63   C70   A    
C138  H72   S    
C8    C12   A    
C23   O47   A    
C99   H45   S    
C35   C50   A    
Cr8   O22   S    
C34   C44   S    
C132  O23   A    
C73   H39   S    
C47   C84   S    
C41   C119  S    
C32   O38   A    
C35   C130  A    
C114  C118  A    
C8    H14   S    
C54   C89   A    
C128  C137  A    
C113  C117  A    
C20   C33   S    
C17   C121  A    
C133  O34   A    
C83   O29   A    
C126  C135  A    
C11   H17   S    
C105  H47   S    
C74   C79   A    
C74   H36   S    
Cr5   O37   S    
C41   H23   S    
Cr1   O40   S    
C113  C135  A    
C37   C47   S    
C103  H44   S    
C88   C132  S    
C38   H61   S    
C51   C87   A    
C52   C79   A    
C50   C77   A    
C112  C116  A    
C36   C40   S    
C95   C104  A    
Cr10  O25   S    
C106  H48   S    
Cr12  O5    S    
C56   H28   S    
C133  O35   A    
C67   C69   A    
C24   C49   A    
C80   H43   S    
Cr6   O11   S    
C24   C62   A    
C49   C67   A    
C137  H8    S    
C94   C103  A    
C43   C86   S    
C104  H46   S    
Cr8   O45   S    
Cr4   O8    S    
C40   H12   S    
Cr4   O4    S    
C53   O19   A    
Cr3   O3    S    
Cr9   O19   S    
C26   O52   A    
C6    C140  A    
C75   O21   A    
Cr10  O47   S    
C6    C10   A    
C13   C48   A    
C35   C63   A    
C76   C80   A    
C75   C130  S    
C27   O2    A    
C57   C61   A    
C132  O33   A    
C64   O20   A    
C92   C102  A    
C131  O12   A    
Cr9   O24   S    
Cr6   O16   S    
C33   O39   A    
C22   C114  S    
C44   C82   S    
Cr9   O10   S    
C98   C106  A    
C57   C88   A    
C31   O37   A    
C58   H30   S    
C16   H21   S    
C91   C99   A    
C5    H10   S    
Cr8   O44   S    
Cr7   O34   S    
C38   C42   S    
C16   C124  A    
C54   C80   A    
C60   H32   S    
C82   O24   A    
C1    O14   A    
C1    C24   S    
C18   C126  A    
C84   O30   A    
C22   O41   A    
C17   C125  A    
C42   C108  S    
C126  H54   S    
C65   H63   S    
C43   C81   S    
Cr6   O23   S    
Cr10  O20   S    
C3    H4    S    
Cr1   O36   S    
Cr10  O50   S    
Cr4   O13   S    
Cr6   O38   S    
C34   C36   S    
C118  C123  A    
Cr12  O27   S    
C107  H49   S    
C37   C41   S    
C94   C95   A    
C52   C88   A    
C20   C124  A    
C25   O48   A    
C39   C97   S    
C1    O18   A    
C66   H64   S    
C140  H3    S    
C4    C138  A    
C64   O16   A    
Cr11  O21   S    
C48   C52   A    
C134  H5    S    
C13   C61   A    
C69   C76   A    
C39   C43   S    
C91   C95   A    
C10   H16   S    
C22   O46   A    
Cr3   O29   S    
Cr5   O12   S    
C129  O1    A    
C97   H24   S    
C48   C66   A    
C41   C45   S    
C4    H9    S    
C28   C93   S    
C36   C43   S    
C70   C72   A    
C18   C31   S    
C19   C127  A    
C29   O4    A    
Cr3   O7    S    
C112  C134  A    
Cr11  O51   S    
C93   C98   A    
C78   H41   S    
C29   C92   S    
C108  H25   S    
C120  C124  A    
C62   H35   S    
C77   H40   S    
C106  C109  A    
