data_mof_unit_56152.cif
_audit_creation_date              2012-12-10T17:33:45-0500
_audit_creation_method            fapswitch 2.2
_symmetry_space_group_name_H-M    P1
_symmetry_Int_Tables_number       1
_space_group_crystal_system       triclinic
_cell_length_a                    11.679476
_cell_length_b                    12.329663
_cell_length_c                    13.15749
_cell_angle_alpha                 116.667499
_cell_angle_beta                  77.946428
_cell_angle_gamma                 101.036698
_cell_volume                      1645.46841542

loop_
_atom_site_label
_atom_site_type_symbol
_atom_type_description
_atom_site_fract_x
_atom_site_fract_y
_atom_site_fract_z
_atom_type_partial_charge
C1    C     C_R   0.512150 0.854772 0.286327 0.784668
C2    C     C_R   0.455167 0.228475 0.834173 -0.069447
C3    C     C_R   0.600828 0.814585 0.087907 -0.270446
C4    C     C_R   0.622862 0.738424 0.972261 -0.222761
C5    C     C_R   0.576414 0.614901 0.928335 0.452993
C6    C     C_R   0.501737 0.568471 0.004711 -0.013292
C7    C     C_R   0.466107 0.652562 0.119553 0.025378
C8    C     C_R   0.459042 0.442349 0.971993 0.094213
C9    C     C_R   0.368552 0.406823 0.045598 0.162499
C10   C     C_R   0.323423 0.494403 0.150791 -0.240143
C11   C     C_R   0.371526 0.615208 0.187491 -0.168986
C12   C     C_R   0.715693 0.999576 0.499897 0.812173
C13   C     C_R   0.506325 0.349318 0.870572 -0.192617
C14   C     C_R   0.365077 0.194935 0.906492 -0.192620
C15   C     C_R   0.523554 0.773181 0.162768 -0.096927
C16   C     C_R   0.681373 0.342468 0.323753 -0.308275
C17   C     C_R   0.340225 0.760178 0.643310 -0.007227
C18   C     C_R   0.294186 0.658766 0.664608 -0.311344
C19   C     C_R   0.345186 0.549543 0.602832 0.476123
C20   C     C_R   0.451531 0.545268 0.525584 -0.135345
C21   C     C_R   0.491309 0.650415 0.502551 0.221060
C22   C     C_R   0.518717 0.441915 0.468406 -0.039411
C23   C     C_R   0.482732 0.145165 0.713438 0.795714
C24   C     C_R   0.614924 0.441739 0.382175 0.179909
C25   C     C_R   0.646963 0.542079 0.356810 -0.279314
C26   C     C_R   0.588371 0.644956 0.417454 -0.146384
C27   C     C_R   0.500199 0.341336 0.496905 0.056399
C28   C     C_R   0.654935 0.244515 0.352661 0.062013
C29   C     C_R   0.284288 0.000458 0.500196 0.820411
C30   C     C_1   0.837280 0.999004 0.500093 -0.194138
C31   C     C_1   0.939886 0.999248 0.500168 -0.006313
C32   C     C_1   0.059931 0.000204 0.500120 -0.011915
C33   C     C_1   0.162632 0.000816 0.500085 -0.189888
C34   C     C_R   0.323411 0.283608 0.012880 -0.195108
Cu1   Cu    Cu3+1 0.526510 0.098270 0.475420 0.936975
Cu2   Cu    Cu3+1 0.473490 0.901730 0.524580 0.923889
H1    H     H_    0.324106 0.101538 0.879099 0.145932
H2    H     H_    0.720857 0.542744 0.291542 0.147343
H3    H     H_    0.754097 0.341277 0.256990 0.136436
H4    H     H_    0.436488 0.337557 0.567372 0.202979
H5    H     H_    0.296899 0.842523 0.688565 0.148821
H6    H     H_    0.214578 0.662818 0.725058 0.157719
H7    H     H_    0.622384 0.718437 0.394203 0.203438
H8    H     H_    0.251863 0.469117 0.206126 0.136353
H9    H     H_    0.253496 0.256462 0.068225 0.131060
H10   H     H_    0.583877 0.367387 0.817914 0.168820
H11   H     H_    0.643956 0.907329 0.118648 0.169992
H12   H     H_    0.676298 0.777206 0.916654 0.145091
H13   H     H_    0.330765 0.679399 0.268666 0.169196
H14   H     H_    0.705248 0.167049 0.307527 0.125914
N1    N     N_R   0.566700 0.246290 0.438210 -0.196893
N2    N     N_R   0.434010 0.754320 0.561170 -0.197478
O1    O     O_R   0.533340 0.972510 0.318140 -0.578955
O2    O     O_R   0.488570 0.806530 0.359650 -0.601742
O3    O     O_R   0.685190 0.083000 0.479260 -0.581078
O4    O     O_R   0.640410 0.917020 0.520770 -0.587677
O5    O     O_R   0.511430 0.193470 0.640350 -0.575547
O6    O     O_R   0.466660 0.027490 0.681860 -0.583461
O7    O     O_R   0.359590 0.082980 0.479230 -0.574653
O8    O     O_R   0.314810 0.917000 0.520740 -0.584307
O9    O     O_3   0.282901 0.446940 0.612971 -0.625931
C35   C     C_3   0.210562 0.384794 0.524711 0.036427
H15   H     H_    0.248200 0.299223 0.461463 0.163189
H16   H     H_    0.203132 0.437931 0.476635 0.128444
C36   C     C_3   0.086702 0.352316 0.577052 -0.314155
H17   H     H_    0.090995 0.292292 0.618506 0.231001
H18   H     H_    0.050618 0.437299 0.643868 0.211495
C37   C     C_3   0.004126 0.287187 0.486084 -0.927861
H19   H     H_    0.036846 0.200342 0.419684 0.262833
H20   H     H_    0.997775 0.346128 0.444245 0.250496
H21   H     H_    0.914740 0.266380 0.527085 0.265086
O10   O     O_3   0.584162 0.547981 0.809876 -0.614200
C38   C     C_3   0.702944 0.542134 0.755158 0.013467
H22   H     H_    0.713934 0.444222 0.699853 0.175244
H23   H     H_    0.769872 0.576178 0.815237 0.110820
C39   C     C_3   0.728514 0.609887 0.678085 -0.308915
H24   H     H_    0.651766 0.591910 0.633538 0.245525
H25   H     H_    0.743424 0.709810 0.730246 0.194729
C40   C     C_3   0.836867 0.569799 0.588472 -0.913227
H26   H     H_    0.915388 0.586793 0.631028 0.250677
H27   H     H_    0.853900 0.622254 0.535817 0.260391
H28   H     H_    0.821909 0.471117 0.530608 0.264648

loop_
_geom_bond_atom_site_label_1
_geom_bond_atom_site_label_2
_ccdc_geom_bond_type
C16   C28   A    
C23   O6    A    
C21   C26   A    
C8    C13   A    
Cu1   O1    S    
C38   H22   S    
Cu1   Cu2   S    
C39   C40   S    
C7    C11   A    
C11   H13   S    
C39   H25   S    
C5    O10   S    
Cu2   O6    S    
C18   H6    S    
C5    C6    A    
C28   N1    A    
C29   C33   S    
Cu1   O7    S    
C18   C19   A    
C2    C13   A    
C1    O1    A    
C35   H16   S    
C37   H19   S    
C28   H14   S    
C29   O7    A    
C8    C9    A    
C36   H18   S    
C1    C15   S    
C9    C10   A    
Cu2   N2    S    
C7    C15   A    
C16   C24   A    
C38   H23   S    
C17   N2    A    
C27   N1    A    
C26   H7    S    
C10   H8    S    
C39   H24   S    
C40   H27   S    
C4    C5    A    
C6    C8    A    
C25   C26   A    
Cu1   O3    S    
C1    O2    A    
C35   H15   S    
Cu2   O4    S    
C25   H2    S    
C31   C32   S    
C29   O8    A    
C27   H4    S    
C36   C37   S    
C17   C18   A    
C34   H9    S    
C24   C25   A    
C12   O4    A    
C20   C22   A    
C22   C27   A    
Cu1   N1    S    
C9    C34   A    
C38   C39   S    
C22   C24   A    
C3    C4    A    
C3    C15   A    
C4    H12   S    
C23   O5    A    
C35   C36   S    
C12   C30   S    
O10   C38   S    
Cu2   O8    S    
C14   C34   A    
C40   H28   S    
C6    C7    A    
Cu1   O5    S    
C32   C33   T    
C19   C20   A    
C14   H1    S    
C30   C31   T    
C19   O9    S    
C37   H21   S    
C3    H11   S    
O9    C35   S    
C2    C14   A    
C17   H5    S    
C12   O3    A    
Cu2   O2    S    
C10   C11   A    
C16   H3    S    
C40   H26   S    
C20   C21   A    
C37   H20   S    
C36   H17   S    
C2    C23   S    
C13   H10   S    
C21   N2    A    
