data_mof_unit_48394.cif
_audit_creation_date              2012-12-11T17:08:32-0500
_audit_creation_method            fapswitch 2.2
_symmetry_space_group_name_H-M    P1
_symmetry_Int_Tables_number       1
_space_group_crystal_system       triclinic
_cell_length_a                    6.964086
_cell_length_b                    14.507609
_cell_length_c                    16.105448
_cell_angle_alpha                 89.967339
_cell_angle_beta                  89.410571
_cell_angle_gamma                 89.710261
_cell_volume                      1627.06230993

loop_
_atom_site_label
_atom_site_type_symbol
_atom_type_description
_atom_site_fract_x
_atom_site_fract_y
_atom_site_fract_z
_atom_type_partial_charge
O1    O     O_R   0.505700 0.583890 0.413310 -0.538963
O2    O     O_R   0.175960 0.594920 0.586080 -0.544530
O3    O     O_R   0.005660 0.416110 0.586690 -0.538177
C1    C     C_R   0.344016 0.616574 0.615170 0.697517
O4    O     O_R   0.175980 0.594920 0.413930 -0.536577
O5    O     O_R   0.005680 0.416110 0.413310 -0.528832
C2    C     C_R   0.345013 0.616804 0.385085 0.696196
O6    O     O_R   0.505680 0.583890 0.586690 -0.535748
O7    O     O_3   0.339200 0.441330 0.500000 -0.374056
V1    V     V_3+5 0.064350 0.510880 0.500000 1.412499
O8    O     O_R   0.675960 0.405080 0.413920 -0.550018
C3    C     C_R   0.846697 0.382982 0.385789 0.747507
O9    O     O_R   0.675940 0.405080 0.586070 -0.543517
C4    C     C_R   0.844266 0.383048 0.614711 0.698331
V2    V     V_3+5 0.564340 0.489120 0.500000 1.393282
O10   O     O_3   0.839360 0.558670 0.500000 -0.373408
C5    C     C_R   0.992948 0.324330 0.746044 0.041179
C6    C     C_R   0.850706 0.318263 0.685740 -0.097898
C7    C     C_R   0.705534 0.252522 0.699342 -0.172107
H1    H     H_    0.587989 0.246676 0.656274 0.116038
C8    C     C_R   0.718244 0.188987 0.765497 -0.163160
C9    C     C_R   0.874711 0.190318 0.820914 -0.159391
C10   C     C_R   0.002152 0.264946 0.813527 0.071367
C11   C     C_3   0.216872 0.273148 0.816650 0.319491
C12   C     C_3   0.204796 0.333997 0.739427 -0.393887
H2    H     H_    0.296323 0.207307 0.805645 0.045780
H3    H     H_    0.263661 0.300415 0.682577 0.123702
C13   C     C_R   0.777844 0.168952 0.257313 0.008957
C14   C     C_R   0.870228 0.188984 0.181417 -0.151653
C15   C     C_R   0.959514 0.275602 0.174778 -0.225225
H4    H     H_    0.021616 0.296447 0.115835 0.110783
C16   C     C_R   0.961157 0.338133 0.242616 0.460662
C17   C     C_R   0.865734 0.315168 0.317930 -0.149786
C18   C     C_R   0.792997 0.225939 0.326504 -0.029189
C19   C     C_3   0.605750 0.197078 0.362584 -0.405952
C20   C     C_3   0.569632 0.149932 0.280377 0.327935
H5    H     H_    0.506305 0.255297 0.376899 0.200303
C21   C     C_R   0.502891 0.679960 0.742915 0.029089
C22   C     C_R   0.351185 0.681616 0.686204 -0.091763
C23   C     C_R   0.202145 0.745671 0.701229 -0.165660
H6    H     H_    0.080737 0.749100 0.660047 0.112503
C24   C     C_R   0.214889 0.810579 0.766095 -0.093734
H7    H     H_    0.101998 0.861582 0.773033 0.118838
C25   C     C_R   0.376736 0.813296 0.818122 -0.147968
C26   C     C_R   0.514706 0.743855 0.807361 0.004268
C27   C     C_3   0.729044 0.750565 0.796994 0.347673
C28   C     C_3   0.714779 0.679289 0.727801 -0.434400
H8    H     H_    0.772386 0.819508 0.773518 0.056154
H9    H     H_    0.753194 0.706965 0.665499 0.134861
C29   C     C_R   0.506322 0.681409 0.257200 0.091392
C30   C     C_R   0.353031 0.682084 0.314270 -0.110009
C31   C     C_R   0.201173 0.744239 0.299197 -0.168643
H10   H     H_    0.078702 0.746780 0.340887 0.127473
C32   C     C_R   0.212042 0.808387 0.233598 -0.176473
C33   C     C_R   0.375238 0.812422 0.181188 -0.106962
C34   C     C_R   0.517398 0.745048 0.192493 0.102475
C35   C     C_3   0.728743 0.755571 0.201982 -0.406167
C36   C     C_3   0.716752 0.685810 0.272288 -0.393810
H11   H     H_    0.767486 0.825905 0.223086 0.163938
H12   H     H_    0.810162 0.729783 0.146916 0.180870
H13   H     H_    0.749236 0.715426 0.334166 0.166341
O11   O     O_R   0.229000 0.916070 0.913330 -0.523931
O12   O     O_R   0.558770 0.905070 0.086080 -0.540065
O13   O     O_R   0.729000 0.083900 0.086690 -0.553850
C37   C     C_R   0.389435 0.882952 0.114766 0.687221
O14   O     O_R   0.558720 0.905070 0.913930 -0.535276
O15   O     O_R   0.728960 0.083900 0.913310 -0.541780
C38   C     C_R   0.390339 0.883240 0.884985 0.707651
O16   O     O_R   0.229050 0.916070 0.086710 -0.535165
O17   O     O_3   0.395460 0.058650 0.000020 -0.402977
V3    V     V_3+5 0.670340 0.989120 0.000000 1.384570
O18   O     O_R   0.058670 0.094960 0.913900 -0.552931
C39   C     C_R   0.889675 0.118769 0.886584 0.686151
O19   O     O_R   0.058720 0.094960 0.086050 -0.553787
C40   C     C_R   0.887471 0.118704 0.113800 0.680968
V4    V     V_3+5 0.170330 0.010930 0.999970 1.361694
O20   O     O_3   0.895340 0.941350 0.999980 -0.346799
H14   H     H_    0.625066 0.147885 0.414844 0.113567
O21   O     O_3   0.433820 0.205825 0.238742 -0.564821
C41   C     C_3   0.415628 0.179182 0.155980 -0.146781
H15   H     H_    0.405946 0.103093 0.149554 0.161943
H16   H     H_    0.528797 0.211725 0.117518 0.130235
H17   H     H_    0.283948 0.209409 0.131687 0.134592
H18   H     H_    0.530188 0.075959 0.286656 0.037550
O22   O     O_3   0.848222 0.721157 0.863713 -0.535059
C42   C     C_3   0.754076 0.665098 0.923083 -0.153344
H19   H     H_    0.688676 0.603521 0.893858 0.133182
H20   H     H_    0.644693 0.705550 0.958457 0.125410
H21   H     H_    0.861840 0.640140 0.968195 0.150563
H22   H     H_    0.780881 0.611483 0.742872 0.185480
H23   H     H_    0.609998 0.135926 0.770726 0.114935
H24   H     H_    0.097315 0.858231 0.226721 0.125653
H25   H     H_    0.790602 0.619555 0.257728 0.197091
O23   O     O_3   0.276289 0.327447 0.884616 -0.541095
C43   C     C_3   0.338766 0.270943 0.949966 -0.191408
H26   H     H_    0.457128 0.224144 0.929707 0.147897
H27   H     H_    0.216771 0.232083 0.977177 0.142698
H28   H     H_    0.396143 0.315705 0.999599 0.130733
H29   H     H_    0.251714 0.406359 0.749025 0.192047
O24   O     O_3   0.034178 0.425955 0.232111 -0.570821
C44   C     C_3   0.236261 0.420603 0.227446 -0.179139
H30   H     H_    0.297067 0.385424 0.282854 0.160649
H31   H     H_    0.294199 0.491658 0.226162 0.139418
H32   H     H_    0.285221 0.385850 0.169433 0.137389

loop_
_geom_bond_atom_site_label_1
_geom_bond_atom_site_label_2
_ccdc_geom_bond_type
O14   C38   A    
C33   C34   A    
O12   C37   A    
C44   H30   S    
C4    C6    S    
C43   H26   S    
O18   V4    S    
C43   H28   S    
C28   H9    S    
C26   C27   S    
C31   H10   S    
C5    C10   A    
O19   V4    S    
C13   C14   A    
C19   H5    S    
C36   H25   S    
C11   H2    S    
C18   C19   S    
O5    C3    A    
C15   H4    S    
C42   H20   S    
C35   H11   S    
V2    O10   S    
C34   C35   S    
O16   V4    S    
C6    C7    A    
O13   V3    S    
C21   C26   A    
C32   C33   A    
O8    V2    S    
C12   H29   S    
C19   C20   S    
C10   C11   S    
O17   V3    S    
O15   C39   A    
O7    V1    S    
C1    O6    A    
C27   O22   S    
C36   H13   S    
C23   C24   A    
C13   C18   A    
C44   H31   S    
C8    C9    A    
O11   V4    S    
C24   C25   A    
C41   H17   S    
C33   C37   S    
C31   C32   A    
C17   C18   A    
C27   H8    S    
O19   C40   A    
C30   C31   A    
C29   C36   S    
C11   C12   S    
C41   H16   S    
C22   C23   A    
O4    C2    A    
C42   H19   S    
O18   C39   A    
C35   H12   S    
C29   C30   A    
O22   C42   S    
C42   H21   S    
C29   C34   A    
C16   O24   S    
O2    C1    A    
C32   H24   S    
C14   C15   A    
C11   O23   S    
O14   V3    S    
C1    C22   S    
C5    C6    A    
V4    O20   S    
C21   C28   S    
O3    C4    A    
O1    V2    S    
C23   H6    S    
O12   V3    S    
O6    V2    S    
O9    V2    S    
O17   V4    S    
C28   H22   S    
C25   C38   S    
C24   H7    S    
O2    V1    S    
V3    O20   S    
C25   C26   A    
C8    H23   S    
C27   C28   S    
C7    C8    A    
O1    C2    A    
C41   H15   S    
C20   O21   S    
O5    V1    S    
O8    C3    A    
C43   H27   S    
C14   C40   S    
C12   H3    S    
C19   H14   S    
O11   C38   A    
C5    C12   S    
C16   C17   A    
C7    H1    S    
O7    V2    S    
C2    C30   S    
O4    V1    S    
O3    V1    S    
V1    O10   S    
C15   C16   A    
C35   C36   S    
C21   C22   A    
C20   H18   S    
C37   O16   A    
O24   C44   S    
O13   C40   A    
O15   V3    S    
O23   C43   S    
O21   C41   S    
C13   C20   S    
C9    C10   A    
C44   H32   S    
C9    C39   S    
C3    C17   S    
O9    C4    A    
