data_mof_unit_26245.cif
_audit_creation_date              2012-10-26T19:59:31-0400
_audit_creation_method            fapswitch 2.2
_symmetry_space_group_name_H-M    P1
_symmetry_Int_Tables_number       1
_space_group_crystal_system       triclinic
_cell_length_a                    10.736523
_cell_length_b                    8.721401
_cell_length_c                    7.474282
_cell_angle_alpha                 103.148896
_cell_angle_beta                  94.649651
_cell_angle_gamma                 92.923856
_cell_volume                      677.540009224

loop_
_atom_site_label
_atom_site_type_symbol
_atom_type_description
_atom_site_fract_x
_atom_site_fract_y
_atom_site_fract_z
_atom_type_partial_charge
C1    C     C_R   0.497712 0.199992 0.453859 0.563603
C2    C     C_R   0.507114 0.799913 0.547097 0.530580
C3    C     C_R   0.737428 0.506961 0.499513 0.536674
C4    C     C_R   0.154195 0.771576 0.737741 -0.086034
C5    C     C_R   0.100507 0.897286 0.850700 0.116717
C6    C     C_R   0.970388 0.897750 0.845961 -0.085617
C7    C     C_R   0.894153 0.774399 0.730847 -0.141967
C8    C     C_R   0.946762 0.645143 0.619196 0.017868
C9    C     C_R   0.078367 0.643574 0.622831 0.003121
C10   C     C_R   0.129802 0.516006 0.506001 0.008186
C11   C     C_R   0.053125 0.397742 0.382823 -0.143065
C12   C     C_R   0.924844 0.399469 0.379187 -0.146513
C13   C     C_R   0.871572 0.519372 0.498968 0.010429
C14   C     C_2   0.495250 0.032375 0.431595 -0.104646
C15   C     C_2   0.519402 0.967940 0.576199 0.049140
C16   C     C_R   0.263002 0.505125 0.502370 0.532249
Cu1   Cu    Cu3+1 0.513920 0.517380 0.684380 0.963444
Cu2   Cu    Cu3+1 0.486080 0.482620 0.315620 0.990193
H1    H     H_    0.093021 0.301750 0.291339 0.135489
H2    H     H_    0.469252 0.959982 0.293338 0.092419
H3    H     H_    0.646314 0.024291 0.801990 0.219330
H4    H     H_    0.494907 0.038090 0.848866 0.229140
H5    H     H_    0.401239 0.377887 0.948548 0.226083
H6    H     H_    0.254980 0.776831 0.738922 0.135348
H7    H     H_    0.794019 0.783442 0.728063 0.124532
H8    H     H_    0.866786 0.304214 0.286213 0.126469
H9    H     H_    0.710323 0.623407 0.033048 0.229916
H10   H     H_    0.605810 0.761551 0.056713 0.210023
H11   H     H_    0.271669 0.012455 0.952675 0.221326
H12   H     H_    0.164000 0.024870 0.104580 0.224281
H13   H     H_    0.927868 0.995421 0.930316 0.120007
N1    N     N_2   0.465100 0.456430 0.038520 -0.182283
N2    N     N_2   0.534900 0.543570 0.961480 -0.074435
N3    N     N_3   0.622666 0.649892 0.078171 -0.428948
N4    N     N_3   0.176794 0.027239 0.968022 -0.631026
N5    N     N_3   0.559763 0.060600 0.759267 -0.587468
O1    O     O_R   0.509050 0.286130 0.619770 -0.456509
O2    O     O_R   0.485540 0.256780 0.308360 -0.518970
O3    O     O_R   0.331410 0.514680 0.655740 -0.521035
O4    O     O_R   0.307900 0.485330 0.344330 -0.499437
O5    O     O_R   0.514460 0.743220 0.691640 -0.535700
O6    O     O_R   0.490950 0.713870 0.380230 -0.486046
O7    O     O_R   0.692100 0.514670 0.655670 -0.512637
O8    O     O_R   0.668590 0.485320 0.344260 -0.474229

loop_
_geom_bond_atom_site_label_1
_geom_bond_atom_site_label_2
_ccdc_geom_bond_type
C11   C12   A    
Cu1   O7    S    
C6    C7    A    
Cu2   O8    S    
H4    N5    S    
C9    C10   A    
H11   N4    S    
C3    C13   S    
C1    O1    A    
C11   H1    S    
H5    N1    S    
Cu1   Cu2   S    
Cu2   O2    S    
H10   N3    S    
C7    C8    A    
H3    N5    S    
Cu1   O1    S    
N1    N2    D    
C2    C15   S    
C3    O7    A    
C8    C13   A    
Cu1   N2    S    
C1    O2    A    
C2    O6    A    
H12   N4    S    
C16   O4    A    
N2    N3    S    
Cu2   O6    S    
H9    N3    S    
C5    C6    A    
C4    H6    S    
Cu1   O5    S    
C3    O8    A    
Cu2   N1    S    
C10   C11   A    
C2    O5    A    
C5    N4    S    
C15   N5    S    
C12   C13   A    
C14   H2    S    
Cu1   O3    S    
C10   C16   S    
Cu2   O4    S    
C14   C15   D    
C8    C9    A    
C6    H13   S    
C1    C14   S    
C16   O3    A    
C4    C9    A    
C12   H8    S    
C4    C5    A    
C7    H7    S    
