data_mof_unit_47026.cif
_audit_creation_date              2012-12-10T18:34:33-0500
_audit_creation_method            fapswitch 2.2
_symmetry_space_group_name_H-M    P1
_symmetry_Int_Tables_number       1
_space_group_crystal_system       triclinic
_cell_length_a                    14.990423
_cell_length_b                    15.495991
_cell_length_c                    15.728806
_cell_angle_alpha                 90.543809
_cell_angle_beta                  104.900695
_cell_angle_gamma                 81.919678
_cell_volume                      3494.39474506

loop_
_atom_site_label
_atom_site_type_symbol
_atom_type_description
_atom_site_fract_x
_atom_site_fract_y
_atom_site_fract_z
_atom_type_partial_charge
C1    C     C_R   0.441150 0.662140 0.486084 0.852164
C2    C     C_R   0.546426 0.104121 0.550112 0.096825
C3    C     C_R   0.344868 0.935083 0.469023 0.161725
C4    C     C_R   0.634381 0.074191 0.607822 0.159935
C5    C     C_R   0.500937 0.959752 0.553853 0.074314
C6    C     C_R   0.476497 0.049177 0.529374 0.073141
C7    C     C_R   0.382651 0.081121 0.486201 -0.234100
C8    C     C_R   0.589076 0.931445 0.612666 -0.232867
C9    C     C_R   0.317623 0.024728 0.457813 -0.237361
C10   C     C_R   0.653996 0.988414 0.640180 -0.236047
C11   C     C_R   0.835646 0.651295 0.614378 -0.328507
C12   C     C_R   0.558709 0.338015 0.516104 0.853291
C13   C     C_R   0.164938 0.347576 0.387466 -0.331510
C14   C     C_R   0.749608 0.622711 0.599720 0.016754
C15   C     C_R   0.250689 0.376575 0.401308 0.012272
C16   C     C_R   0.501384 0.500440 0.662076 0.890296
C17   C     C_R   0.498624 0.499615 0.337906 0.893190
C18   C     C_R   0.795879 0.506448 0.513869 -0.020970
C19   C     C_R   0.204137 0.493727 0.486027 -0.020792
C20   C     C_R   0.885718 0.530431 0.528485 -0.010150
C21   C     C_R   0.114704 0.469049 0.472621 -0.008867
C22   C     C_R   0.903509 0.606259 0.577543 0.177831
C23   C     C_R   0.282136 0.878407 0.429663 -0.256280
C24   C     C_R   0.097109 0.392770 0.424240 0.180040
C25   C     C_R   0.956951 0.483358 0.494779 0.078814
C26   C     C_R   0.043690 0.515846 0.506857 0.079161
C27   C     C_R   0.056291 0.594264 0.552085 -0.260284
C28   C     C_R   0.944619 0.404506 0.450338 -0.259576
C29   C     C_R   0.987909 0.637645 0.587895 -0.242844
C30   C     C_R   0.013006 0.361000 0.414624 -0.241842
C31   C     C_3   0.443791 0.569371 0.014411 0.017692
C32   C     C_3   0.558100 0.429940 0.985859 0.017480
C33   C     C_3   0.532720 0.573704 0.982462 -0.298921
C34   C     C_R   0.701162 0.130843 0.633190 -0.252701
C35   C     C_3   0.469174 0.425575 0.017830 -0.298662
C36   C     C_1   0.504433 0.501412 0.751663 -0.190313
C37   C     C_1   0.495971 0.498339 0.248367 -0.187720
C38   C     C_3   0.415273 0.497652 0.948642 0.018432
C39   C     C_3   0.586636 0.501635 0.051698 0.017949
C40   C     C_3   0.503823 0.501188 0.917723 0.109229
C41   C     C_3   0.498002 0.498139 0.082606 0.108879
C42   C     C_1   0.505354 0.501789 0.827141 -0.058656
C43   C     C_1   0.495775 0.497725 0.173036 -0.058621
C44   C     C_R   0.403531 0.755123 0.478744 -0.106332
C45   C     C_R   0.310806 0.788348 0.432268 -0.003037
C46   C     C_R   0.594143 0.246435 0.541949 -0.106420
C47   C     C_R   0.377815 0.645233 0.033390 0.123183
C48   C     C_R   0.396494 0.731141 0.028890 -0.157313
C49   C     C_R   0.334146 0.800960 0.045966 -0.139611
C50   C     C_R   0.252619 0.785594 0.067051 -0.108678
C51   C     C_R   0.233438 0.700346 0.071349 -0.148434
C52   C     C_R   0.296118 0.630277 0.055367 -0.151281
C53   C     C_R   0.623751 0.354403 0.965786 0.122543
C54   C     C_R   0.604314 0.268547 0.968179 -0.156962
C55   C     C_R   0.665603 0.199163 0.948625 -0.136723
C56   C     C_R   0.680698 0.218034 0.603258 -0.007424
C57   C     C_R   0.746836 0.214915 0.927187 -0.109685
C58   C     C_R   0.766867 0.300106 0.925179 -0.146785
C59   C     C_R   0.705230 0.369753 0.943624 -0.153363
C60   C     C_R   0.682123 0.500647 0.113147 0.122526
C61   C     C_R   0.722236 0.428049 0.169592 -0.139070
C62   C     C_R   0.811217 0.425688 0.226321 -0.131143
C63   C     C_R   0.860525 0.496053 0.227683 -0.101775
C64   C     C_R   0.820899 0.568741 0.171995 -0.149285
C65   C     C_R   0.732039 0.571126 0.114719 -0.154705
C66   C     C_R   0.319764 0.498667 0.887260 0.122114
C67   C     C_R   0.463914 0.811889 0.521369 -0.282309
C68   C     C_R   0.279594 0.571358 0.830968 -0.137700
C69   C     C_R   0.190491 0.573879 0.774484 -0.131142
C70   C     C_R   0.141161 0.503538 0.773132 -0.102241
C71   C     C_R   0.180866 0.430724 0.828610 -0.148251
C72   C     C_R   0.269833 0.428207 0.885703 -0.154349
C73   C     C_R   0.748807 0.277594 0.640759 0.131025
C74   C     C_R   0.833754 0.270955 0.617363 -0.174434
C75   C     C_R   0.897976 0.327527 0.652738 -0.155819
C76   C     C_R   0.877663 0.391037 0.711356 -0.128645
C77   C     C_R   0.793427 0.397653 0.735248 -0.126921
C78   C     C_R   0.531517 0.187614 0.512631 -0.274747
C79   C     C_R   0.729576 0.340495 0.700943 -0.073192
C80   C     C_R   0.243648 0.732381 0.382499 0.133565
C81   C     C_R   0.264800 0.680164 0.314647 -0.080090
C82   C     C_R   0.202705 0.625111 0.270518 -0.122581
C83   C     C_R   0.117669 0.624124 0.291302 -0.130436
C84   C     C_R   0.094787 0.677834 0.356654 -0.150802
C85   C     C_R   0.157584 0.731518 0.402432 -0.181040
C86   C     C_R   0.436709 0.901877 0.517221 0.093592
H1    H     H_    0.558302 0.632827 0.964115 0.132162
H2    H     H_    0.882856 0.373981 0.442247 0.141956
H3    H     H_    0.246790 0.051310 0.423437 0.141871
H4    H     H_    0.720449 0.964734 0.685711 0.139470
H5    H     H_    0.469863 0.208907 0.460487 0.152854
H6    H     H_    0.534260 0.784480 0.554328 0.159643
H7    H     H_    0.211978 0.904663 0.392894 0.137115
H8    H     H_    0.767703 0.108237 0.679230 0.136481
H9    H     H_    0.357137 0.149844 0.475120 0.151052
H10   H     H_    0.608791 0.866245 0.640926 0.137705
H11   H     H_    0.000967 0.696842 0.623368 0.141687
H12   H     H_    0.443732 0.366344 0.036120 0.132489
H13   H     H_    0.000183 0.301421 0.379787 0.140820
H14   H     H_    0.459091 0.744476 0.012514 0.119208
H15   H     H_    0.348925 0.867046 0.042600 0.126354
H16   H     H_    0.204244 0.839725 0.079893 0.122793
H17   H     H_    0.169895 0.688631 0.086978 0.131002
H18   H     H_    0.280625 0.564462 0.059300 0.128125
H19   H     H_    0.541760 0.254985 0.984499 0.119245
H20   H     H_    0.650142 0.133128 0.950166 0.126599
H21   H     H_    0.794265 0.161137 0.912200 0.120919
H22   H     H_    0.830036 0.312171 0.909014 0.135784
H23   H     H_    0.226248 0.547588 0.525629 0.131394
H24   H     H_    0.721162 0.435568 0.941050 0.127793
H25   H     H_    0.684756 0.373106 0.169221 0.127755
H26   H     H_    0.841837 0.369098 0.268940 0.127655
H27   H     H_    0.929412 0.494314 0.271672 0.137951
H28   H     H_    0.859155 0.623192 0.173102 0.125536
H29   H     H_    0.702637 0.627931 0.072059 0.118020
H30   H     H_    0.317093 0.626284 0.831323 0.128713
H31   H     H_    0.159805 0.630596 0.732079 0.127490
H32   H     H_    0.072200 0.505392 0.729307 0.137090
H33   H     H_    0.142579 0.376297 0.827505 0.126642
H34   H     H_    0.773577 0.453213 0.473337 0.130104
H35   H     H_    0.299291 0.371333 0.928249 0.118481
H36   H     H_    0.849845 0.222483 0.571420 0.128290
H37   H     H_    0.963219 0.322566 0.634261 0.144748
H38   H     H_    0.927042 0.435255 0.738043 0.123564
H39   H     H_    0.777730 0.446842 0.780629 0.124727
H40   H     H_    0.664857 0.345677 0.720495 0.120878
H41   H     H_    0.330126 0.680772 0.297294 0.114443
H42   H     H_    0.220543 0.583148 0.220201 0.125321
H43   H     H_    0.069582 0.581659 0.256894 0.121841
H44   H     H_    0.028790 0.677103 0.372525 0.146676
H45   H     H_    0.304558 0.341337 0.374748 0.128547
H46   H     H_    0.139638 0.771613 0.454042 0.128003
H47   H     H_    0.695801 0.657666 0.626556 0.125927
H48   H     H_    0.848494 0.708760 0.652879 0.140841
H49   H     H_    0.152333 0.289607 0.349731 0.140061
H50   H     H_    0.118370 0.624418 0.561049 0.142734
N1    N     N_R   0.731710 0.552730 0.549140 -0.096530
N2    N     N_R   0.268290 0.447270 0.450860 -0.097438
O1    O     O_R   0.383110 0.605620 0.475230 -0.608652
O2    O     O_R   0.616890 0.394380 0.524770 -0.609177
O3    O     O_R   0.531900 0.639510 0.506760 -0.619641
O4    O     O_R   0.468100 0.360490 0.493240 -0.619616
O5    O     O_R   0.425620 0.483070 0.607460 -0.602640
O6    O     O_R   0.574380 0.516930 0.392540 -0.603625
O7    O     O_R   0.574400 0.516960 0.638990 -0.622723
O8    O     O_R   0.425600 0.483040 0.361010 -0.619641
Zn1   Zn    Zn3+2 0.400660 0.477370 0.478940 0.948178
Zn2   Zn    Zn3+2 0.599340 0.522630 0.521060 0.947302

loop_
_geom_bond_atom_site_label_1
_geom_bond_atom_site_label_2
_ccdc_geom_bond_type
C66   C68   A    
C21   C26   A    
C34   C56   A    
C23   C45   A    
C22   C29   A    
C72   H35   S    
C27   C29   A    
C13   H49   S    
C73   C74   A    
N1    Zn2   S    
C36   C42   T    
C8    H10   S    
O6    Zn2   S    
O2    Zn2   S    
C80   C85   A    
C81   C82   A    
C53   C59   A    
C39   C41   S    
C53   C54   A    
C25   C28   A    
O5    Zn1   S    
O1    Zn1   S    
C26   C27   A    
C33   C39   S    
C17   O6    A    
C75   H37   S    
C27   H50   S    
C19   C21   A    
C83   H43   S    
C69   C70   A    
C85   H46   S    
C49   H15   S    
C5    C6    A    
C11   C14   A    
C20   C25   A    
C51   H17   S    
C59   H24   S    
C32   C39   S    
C69   H31   S    
O3    Zn2   S    
C3    C23   A    
C66   C72   A    
C38   C66   S    
C68   C69   A    
C28   H2    S    
C31   C33   S    
C70   C71   A    
C35   H12   S    
C41   C43   S    
C58   H22   S    
C1    O1    A    
C15   N2    A    
C40   C42   S    
C31   C47   S    
C81   H41   S    
C3    C86   A    
C65   H29   S    
C2    C6    A    
C19   H23   S    
C48   H14   S    
C4    C34   A    
C33   C40   S    
C64   H28   S    
C74   C75   A    
C55   H20   S    
C51   C52   A    
C76   H38   S    
C32   C35   S    
C16   O5    A    
C76   C77   A    
C12   C46   S    
C11   H48   S    
C9    H3    S    
C46   C78   A    
C25   C26   A    
C30   H13   S    
C82   C83   A    
C23   H7    S    
C13   C24   A    
C16   O7    A    
C37   C43   T    
C18   N1    A    
C2    C4    A    
C75   C76   A    
C62   C63   A    
C3    C9    A    
C1    C44   S    
C47   C48   A    
C14   N1    A    
N2    Zn1   S    
C35   C38   S    
C12   O2    A    
C50   C51   A    
C73   C79   A    
C77   C79   A    
C15   H45   S    
C17   C37   S    
C84   C85   A    
C82   H42   S    
C6    C7    A    
C68   H30   S    
C5    C86   A    
C48   C49   A    
C57   H21   S    
C79   H40   S    
C20   C22   A    
C60   C65   A    
C50   H16   S    
C55   C57   A    
C83   C84   A    
C2    C78   A    
C4    C10   A    
C61   H25   S    
C18   H34   S    
C32   C53   S    
O7    Zn2   S    
C77   H39   S    
C44   C45   A    
O8    Zn1   S    
C7    C9    A    
C54   C55   A    
C52   H18   S    
C67   C86   A    
C56   C73   S    
C31   C41   S    
C54   H19   S    
C74   H36   S    
O4    Zn1   S    
C34   H8    S    
C80   C81   A    
C5    C8    A    
C28   C30   A    
C47   C52   A    
C14   H47   S    
C71   H33   S    
C78   H5    S    
C7    H9    S    
C11   C22   A    
C31   C38   S    
C29   H11   S    
C64   C65   A    
C13   C15   A    
C17   O8    A    
C58   C59   A    
C71   C72   A    
C16   C36   S    
C38   C40   S    
C57   C58   A    
C70   H32   S    
C19   N2    A    
C39   C60   S    
C84   H44   S    
C67   H6    S    
C12   O4    A    
C45   C80   S    
C18   C20   A    
C32   C40   S    
C33   H1    S    
C61   C62   A    
C35   C41   S    
C24   C30   A    
C1    O3    A    
C63   C64   A    
C63   H27   S    
C62   H26   S    
C10   H4    S    
C8    C10   A    
C49   C50   A    
C21   C24   A    
C46   C56   A    
C60   C61   A    
C44   C67   A    
