data_mof_unit_48151.cif
_audit_creation_date              2012-12-11T15:26:03-0500
_audit_creation_method            fapswitch 2.2
_symmetry_space_group_name_H-M    P1
_symmetry_Int_Tables_number       1
_space_group_crystal_system       triclinic
_cell_length_a                    24.386495
_cell_length_b                    17.000328
_cell_length_c                    15.563018
_cell_angle_alpha                 89.453421
_cell_angle_beta                  51.065152
_cell_angle_gamma                 89.852758
_cell_volume                      5018.55363212

loop_
_atom_site_label
_atom_site_type_symbol
_atom_type_description
_atom_site_fract_x
_atom_site_fract_y
_atom_site_fract_z
_atom_type_partial_charge
C1    C     C_R   0.333359 0.108403 0.798960 -0.096140
C2    C     C_2   0.304346 0.854012 0.983412 -0.211000
C3    C     C_3   0.702003 0.923562 0.717665 -1.029986
C4    C     C_3   0.073533 0.729468 0.656007 0.196642
C5    C     C_3   0.136297 0.786171 0.603297 -0.291582
C6    C     C_3   0.117716 0.868602 0.589403 -1.053943
C7    C     C_3   0.876546 0.404747 0.305235 0.180716
C8    C     C_3   0.808431 0.364078 0.343211 -0.274545
C9    C     C_3   0.763395 0.418754 0.332335 -1.052035
C10   C     C_3   0.924738 0.725955 0.330377 0.183640
C11   C     C_3   0.861983 0.781399 0.378493 -0.280704
C12   C     C_3   0.881716 0.866086 0.380018 -1.067392
C13   C     C_2   0.307946 0.152856 0.974836 -0.222010
C14   C     C_3   0.099140 0.401797 0.723412 0.147213
C15   C     C_3   0.170373 0.369672 0.684260 -0.280181
C16   C     C_3   0.207449 0.427331 0.707169 -1.026674
C17   C     C_3   0.145045 0.034062 0.719959 0.158165
C18   C     C_3   0.122191 0.001413 0.829975 -0.278733
C19   C     C_3   0.113196 0.912192 0.837363 -0.994150
C20   C     C_3   0.686461 0.678800 0.293927 0.165179
C21   C     C_3   0.700113 0.592017 0.260650 -0.308926
C22   C     C_3   0.652600 0.562914 0.235157 -0.988214
C23   C     C_3   0.889132 0.056171 0.268877 0.156905
C24   C     C_2   0.694476 0.852615 0.019231 -0.213747
C25   C     C_3   0.962010 0.081304 0.164160 -0.253902
C26   C     C_3   0.017904 0.020183 0.131899 -1.060914
C27   C     C_3   0.298439 0.683781 0.725297 0.162833
C28   C     C_3   0.278544 0.598534 0.767240 -0.309464
C29   C     C_3   0.320627 0.568076 0.802665 -0.986835
C30   C     C_3   0.633916 0.550741 0.743166 0.149595
C31   C     C_3   0.555167 0.550579 0.798193 -0.283220
C32   C     C_3   0.518483 0.476147 0.867455 -1.017614
C33   C     C_3   0.155802 0.150798 0.346288 0.169004
C34   C     C_3   0.180177 0.071512 0.287530 -0.281515
C35   C     C_2   0.149154 0.750602 0.129948 -0.218909
C36   C     C_3   0.123453 0.032845 0.288305 -0.999991
C37   C     C_3   0.403032 0.573317 0.243904 0.158876
C38   C     C_3   0.460379 0.614637 0.134120 -0.269742
C39   C     C_3   0.533101 0.580347 0.081188 -1.024095
C40   C     C_3   0.764560 0.153725 0.754451 0.173844
C41   C     C_3   0.694882 0.129671 0.865679 -0.277465
C42   C     C_3   0.706000 0.067055 0.924374 -0.999388
C43   C     C_2   0.804321 0.354325 0.983632 -0.208088
C44   C     C_2   0.849036 0.746508 0.873113 -0.224237
C45   C     C_2   0.161552 0.271796 0.099942 -0.217380
C46   C     C_2   0.692764 0.297718 0.130582 -0.117493
C47   C     C_2   0.234548 0.854466 0.040984 -0.111063
C48   C     C_2   0.239567 0.161732 0.026697 -0.103026
C49   C     C_R   0.667435 0.894124 0.198465 -0.142863
C50   C     C_2   0.764101 0.849962 0.962565 -0.109545
C51   C     C_2   0.192551 0.797963 0.130593 -0.124512
C52   C     C_2   0.734532 0.354388 0.041151 -0.115027
C53   C     C_2   0.804544 0.793459 0.874310 -0.118083
C54   C     C_2   0.205208 0.226092 0.101752 -0.134453
C55   C     C_R   0.615830 0.104860 0.589946 0.493868
C56   C     C_R   0.408541 0.855785 0.410387 0.540482
C57   C     C_R   0.380998 0.104065 0.413276 0.504937
C58   C     C_R   0.590620 0.855954 0.592043 0.537752
C59   C     C_R   0.116976 0.605404 0.588588 0.481401
C60   C     C_R   0.652757 0.139289 0.235767 -0.110596
C61   C     C_R   0.905090 0.357993 0.411361 0.512513
C62   C     C_R   0.881459 0.604542 0.412892 0.496328
C63   C     C_R   0.089860 0.357283 0.594784 0.538237
C64   C     C_R   0.690530 0.096619 0.408275 -0.222596
C65   C     C_R   0.336902 0.855209 0.593714 -0.250777
C66   C     C_R   0.309457 0.097664 0.594696 -0.224113
C67   C     C_R   0.661500 0.854210 0.408826 -0.238780
C68   C     C_R   0.191016 0.595026 0.407489 -0.218978
C69   C     C_R   0.836342 0.355833 0.594578 -0.224187
C70   C     C_R   0.809019 0.595323 0.594058 -0.226674
C71   C     C_R   0.332317 0.893977 0.802212 -0.149233
C72   C     C_R   0.161615 0.353603 0.412088 -0.227280
C73   C     C_R   0.565833 0.133970 0.224935 -0.186367
C74   C     C_R   0.421939 0.895483 0.804768 -0.070255
C75   C     C_R   0.423060 0.105153 0.802644 -0.187497
C76   C     C_R   0.577762 0.895889 0.195930 -0.073387
C77   C     C_R   0.065759 0.634111 0.225066 -0.172607
C78   C     C_R   0.921831 0.395857 0.804994 -0.076289
C79   C     C_R   0.933699 0.632504 0.775881 -0.179794
C80   C     C_R   0.069755 0.375217 0.214083 -0.140823
C81   C     C_R   0.353207 0.124821 0.862617 0.138656
C82   C     C_R   0.846457 0.637725 0.765604 -0.110116
C83   C     C_R   0.648067 0.877288 0.134376 0.112007
C84   C     C_R   0.623694 0.177601 0.194085 0.138204
C85   C     C_R   0.351397 0.877232 0.866941 0.109565
C86   C     C_R   0.875130 0.675061 0.807926 0.130927
C87   C     C_R   0.133988 0.341431 0.167570 0.120901
C88   C     C_R   0.123687 0.677670 0.194095 0.126193
C89   C     C_R   0.851318 0.377613 0.867189 0.107809
C90   C     C_R   0.686879 0.111232 0.498943 -0.010629
C91   C     C_R   0.359845 0.808903 0.503301 -0.022266
C92   C     C_R   0.310309 0.110016 0.506558 -0.020247
C93   C     C_R   0.161187 0.376438 0.213169 -0.119463
C94   C     C_R   0.637840 0.808110 0.501167 -0.023918
C95   C     C_R   0.188168 0.609294 0.497303 -0.004508
C96   C     C_R   0.857170 0.311131 0.504603 -0.006650
C97   C     C_R   0.810415 0.609153 0.505657 -0.013920
C98   C     C_R   0.136765 0.308805 0.506474 -0.024671
C99   C     C_R   0.181830 0.144254 0.612817 0.537062
C100  C     C_R   0.718096 0.689843 0.404431 0.562269
C101  C     C_R   0.814338 0.145960 0.402202 0.553263
C102  C     C_R   0.274565 0.694426 0.604798 0.563216
C103  C     C_R   0.682168 0.645463 0.608033 0.558852
C104  C     C_R   0.152716 0.639375 0.235862 -0.110982
C105  C     C_R   0.211028 0.187471 0.415358 0.561871
C106  C     C_R   0.316408 0.642842 0.400759 0.552987
C107  C     C_R   0.772811 0.196419 0.605928 0.556960
C108  C     C_R   0.638821 0.695020 0.603178 -0.374952
C109  C     C_R   0.257657 0.138775 0.414085 -0.379589
C110  C     C_R   0.359100 0.693896 0.406095 -0.409740
C111  C     C_R   0.730415 0.145319 0.601071 -0.403788
C112  C     C_R   0.139479 0.198450 0.612081 -0.362285
C113  C     C_R   0.761505 0.639517 0.408858 -0.379487
C114  C     C_R   0.856320 0.197765 0.407047 -0.388154
C115  C     C_R   0.832271 0.394242 0.802418 -0.118317
C116  C     C_R   0.231656 0.644547 0.599756 -0.384536
C117  C     C_R   0.662991 0.728742 0.502256 -0.083369
C118  C     C_R   0.248906 0.127832 0.511624 -0.094294
C119  C     C_R   0.332766 0.730269 0.505742 -0.070407
C120  C     C_R   0.745298 0.131112 0.499763 -0.062686
C121  C     C_R   0.161165 0.230341 0.511566 -0.087734
C122  C     C_R   0.749814 0.627966 0.508705 -0.092777
C123  C     C_R   0.829728 0.233365 0.507103 -0.058275
C124  C     C_R   0.246864 0.629628 0.498166 -0.058546
C125  C     C_3   0.557065 0.216405 0.686121 0.194637
C126  C     C_2   0.648885 0.250792 0.130579 -0.216852
C127  C     C_3   0.613005 0.281883 0.635908 -0.304091
C128  C     C_3   0.587579 0.356942 0.616324 -1.036552
C129  C     C_3   0.402898 0.893962 0.274888 0.141440
C130  C     C_3   0.332149 0.860696 0.313349 -0.286053
C131  C     C_3   0.299038 0.913764 0.277741 -1.032190
C132  C     C_3   0.424310 0.222897 0.321819 0.177090
C133  C     C_3   0.362392 0.278301 0.363903 -0.283301
C134  C     C_3   0.383397 0.364247 0.355572 -1.052137
C135  C     C_3   0.596976 0.897676 0.725007 0.143813
C136  C     C_3   0.669330 0.868276 0.684093 -0.279988
H1    H     H_    0.281081 0.108125 0.823005 0.081613
H2    H     H_    0.297031 0.841848 0.679773 0.186124
H3    H     H_    0.161851 0.313153 0.727666 0.222887
H4    H     H_    0.205270 0.358678 0.594013 0.199039
H5    H     H_    0.219707 0.482612 0.659676 0.266656
H6    H     H_    0.257663 0.401350 0.680894 0.277715
H7    H     H_    0.173769 0.440600 0.796712 0.269941
H8    H     H_    0.192774 0.001488 0.651793 0.112525
H9    H     H_    0.101638 0.024215 0.715700 0.109303
H10   H     H_    0.162401 0.016587 0.839544 0.191591
H11   H     H_    0.071390 0.028782 0.898425 0.213865
H12   H     H_    0.071618 0.895385 0.831671 0.269757
H13   H     H_    0.264772 0.092564 0.680792 0.181818
H14   H     H_    0.097410 0.890661 0.917711 0.268676
H15   H     H_    0.163638 0.883656 0.769922 0.277490
H16   H     H_    0.691510 0.713493 0.228364 0.144705
H17   H     H_    0.631225 0.687025 0.371037 0.093326
H18   H     H_    0.756120 0.584337 0.186428 0.218292
H19   H     H_    0.689881 0.555869 0.329226 0.199755
H20   H     H_    0.596271 0.569408 0.308634 0.263412
H21   H     H_    0.663281 0.499777 0.212674 0.277222
H22   H     H_    0.663075 0.596738 0.164716 0.268273
H23   H     H_    0.872240 0.002848 0.250132 0.132020
H24   H     H_    0.700821 0.839654 0.323345 0.184929
H25   H     H_    0.893146 0.038436 0.334165 0.102495
H26   H     H_    0.960085 0.089407 0.095145 0.201048
H27   H     H_    0.977643 0.138169 0.177638 0.199219
H28   H     H_    0.019644 0.009971 0.200774 0.278595
H29   H     H_    0.070538 0.041740 0.059120 0.270818
H30   H     H_    0.006307 0.963808 0.110614 0.273769
H31   H     H_    0.292699 0.719911 0.789656 0.143559
H32   H     H_    0.355049 0.687950 0.650485 0.093691
H33   H     H_    0.221356 0.594907 0.838776 0.219121
H34   H     H_    0.289342 0.560549 0.700520 0.198735
H35   H     H_    0.237152 0.586682 0.322931 0.191437
H36   H     H_    0.378012 0.570602 0.732078 0.264271
H37   H     H_    0.305596 0.506036 0.831313 0.272361
H38   H     H_    0.309306 0.603813 0.871565 0.269533
H39   H     H_    0.640247 0.529723 0.804317 0.140079
H40   H     H_    0.663123 0.508218 0.673505 0.083043
H41   H     H_    0.529226 0.602521 0.852675 0.216968
H42   H     H_    0.548994 0.554445 0.733343 0.185842
H43   H     H_    0.548034 0.422980 0.819246 0.276857
H44   H     H_    0.464243 0.472868 0.894284 0.271165
H45   H     H_    0.515010 0.477012 0.941977 0.272482
H46   H     H_    0.797585 0.341946 0.680734 0.193939
H47   H     H_    0.133198 0.186931 0.315829 0.139862
H48   H     H_    0.111007 0.140555 0.435917 0.083206
H49   H     H_    0.228700 0.079717 0.200716 0.227244
H50   H     H_    0.192760 0.031933 0.330073 0.196102
H51   H     H_    0.074699 0.023049 0.374547 0.262849
H52   H     H_    0.142666 0.975141 0.246371 0.277956
H53   H     H_    0.111139 0.070506 0.243703 0.273247
H54   H     H_    0.394433 0.513747 0.225499 0.127189
H55   H     H_    0.421438 0.563838 0.293300 0.103838
H56   H     H_    0.448176 0.608018 0.076711 0.201587
H57   H     H_    0.763927 0.586521 0.679242 0.175405
H58   H     H_    0.461456 0.678500 0.147440 0.212018
H59   H     H_    0.548641 0.592614 0.133290 0.273429
H60   H     H_    0.572618 0.607752 0.998532 0.282002
H61   H     H_    0.532954 0.515757 0.071429 0.259752
H62   H     H_    0.801358 0.174916 0.768609 0.131710
H63   H     H_    0.789406 0.100710 0.700847 0.084318
H64   H     H_    0.670099 0.182112 0.919291 0.204146
H65   H     H_    0.658288 0.106072 0.852478 0.197777
H66   H     H_    0.731041 0.014033 0.872097 0.274159
H67   H     H_    0.654347 0.049633 0.003271 0.270494
H68   H     H_    0.203210 0.336963 0.328349 0.173909
H69   H     H_    0.739920 0.090481 0.943077 0.271972
H70   H     H_    0.537684 0.140201 0.193232 0.148738
H71   H     H_    0.449425 0.902377 0.837876 0.124552
H72   H     H_    0.451696 0.100153 0.834283 0.143480
H73   H     H_    0.720237 0.897410 0.172094 0.095938
H74   H     H_    0.550208 0.902734 0.162826 0.125854
H75   H     H_    0.037132 0.641026 0.194181 0.152623
H76   H     H_    0.949159 0.403104 0.838318 0.132200
H77   H     H_    0.962630 0.639346 0.806261 0.157751
H78   H     H_    0.039487 0.368008 0.186143 0.165342
H79   H     H_    0.589488 0.711729 0.680314 0.223488
H80   H     H_    0.302075 0.114143 0.336587 0.207488
H81   H     H_    0.410199 0.709124 0.330603 0.218815
H82   H     H_    0.683098 0.123045 0.677722 0.211537
H83   H     H_    0.091674 0.216390 0.690532 0.228154
H84   H     H_    0.700251 0.153967 0.223772 0.098755
H85   H     H_    0.807844 0.616263 0.332196 0.217261
H86   H     H_    0.906839 0.214415 0.331122 0.210362
H87   H     H_    0.183568 0.623460 0.676758 0.217945
H88   H     H_    0.210730 0.881733 0.008291 0.134970
H89   H     H_    0.707471 0.284837 0.182201 0.136479
H90   H     H_    0.788624 0.875418 0.994685 0.132142
H91   H     H_    0.213731 0.135424 0.997218 0.130666
H92   H     H_    0.710631 0.381494 0.008511 0.132200
H93   H     H_    0.206695 0.785584 0.183068 0.137686
H94   H     H_    0.223249 0.242165 0.147630 0.167406
H95   H     H_    0.279505 0.897637 0.828651 0.097919
H96   H     H_    0.789299 0.781595 0.823399 0.137165
H97   H     H_    0.327414 0.825776 0.016981 0.138202
H98   H     H_    0.634739 0.263967 0.078249 0.128326
H99   H     H_    0.670632 0.826102 0.986345 0.142048
H100  H     H_    0.332695 0.179718 0.006105 0.142138
H101  H     H_    0.827484 0.326239 0.017137 0.139394
H102  H     H_    0.135830 0.763015 0.076343 0.139710
H103  H     H_    0.144364 0.256243 0.052547 0.141961
H104  H     H_    0.863504 0.758529 0.925090 0.139698
H105  H     H_    0.512812 0.232981 0.772525 0.120293
H106  H     H_    0.798555 0.651815 0.778482 0.101803
H107  H     H_    0.534326 0.213749 0.642438 0.108229
H108  H     H_    0.625114 0.294262 0.692427 0.210573
H109  H     H_    0.662357 0.263744 0.555234 0.209567
H110  H     H_    0.584070 0.347673 0.549345 0.273683
H111  H     H_    0.625480 0.405560 0.591120 0.277744
H112  H     H_    0.534813 0.374026 0.692398 0.276637
H113  H     H_    0.438757 0.899350 0.183376 0.129893
H114  H     H_    0.396301 0.954703 0.306562 0.098624
H115  H     H_    0.340428 0.801393 0.277611 0.223391
H116  H     H_    0.295059 0.855098 0.404833 0.197204
H117  H     H_    0.214364 0.372090 0.185004 0.093834
H118  H     H_    0.289644 0.973035 0.313785 0.266139
H119  H     H_    0.247780 0.888398 0.307561 0.277235
H120  H     H_    0.334116 0.919009 0.186256 0.269674
H121  H     H_    0.468740 0.243263 0.236928 0.125013
H122  H     H_    0.442124 0.229867 0.372186 0.098182
H123  H     H_    0.344668 0.270551 0.313941 0.220731
H124  H     H_    0.318023 0.265361 0.451876 0.201672
H125  H     H_    0.400601 0.374117 0.405914 0.275895
H126  H     H_    0.337409 0.402610 0.387146 0.274226
H127  H     H_    0.426910 0.380798 0.268242 0.264059
H128  H     H_    0.200210 0.654099 0.223866 0.099812
H129  H     H_    0.562089 0.902235 0.816411 0.129894
H130  H     H_    0.601189 0.958247 0.693287 0.097173
H131  H     H_    0.663380 0.808901 0.719616 0.231295
H132  H     H_    0.705601 0.863789 0.592615 0.196217
H133  H     H_    0.710697 0.982621 0.679994 0.270433
H134  H     H_    0.753657 0.899947 0.688215 0.274410
H135  H     H_    0.667088 0.928887 0.808987 0.270684
H136  H     H_    0.028775 0.755186 0.736090 0.124851
H137  H     H_    0.056378 0.726920 0.604371 0.098667
H138  H     H_    0.152312 0.789233 0.656037 0.227912
H139  H     H_    0.779437 0.398067 0.829007 0.088981
H140  H     H_    0.181600 0.765560 0.520216 0.201584
H141  H     H_    0.104378 0.867266 0.533060 0.277146
H142  H     H_    0.163608 0.908476 0.553100 0.272011
H143  H     H_    0.072191 0.892183 0.670490 0.266500
H144  H     H_    0.906807 0.423149 0.217478 0.131020
H145  H     H_    0.863931 0.459765 0.352721 0.084483
H146  H     H_    0.821705 0.310880 0.292554 0.222001
H147  H     H_    0.777123 0.345577 0.431077 0.197943
H148  H     H_    0.746552 0.470224 0.387074 0.269180
H149  H     H_    0.715640 0.386800 0.357291 0.282427
H150  H     H_    0.737070 0.089122 0.323801 0.188387
H151  H     H_    0.793405 0.439381 0.245499 0.271378
H152  H     H_    0.968720 0.749249 0.247007 0.127110
H153  H     H_    0.943147 0.728776 0.380307 0.098075
H154  H     H_    0.844428 0.778810 0.327783 0.229386
H155  H     H_    0.817666 0.764288 0.464788 0.203241
H156  H     H_    0.898420 0.870684 0.431756 0.277722
H157  H     H_    0.835228 0.904511 0.415467 0.271132
H158  H     H_    0.925256 0.886700 0.294837 0.274884
H159  H     H_    0.064777 0.409860 0.814256 0.130816
H160  H     H_    0.105673 0.461263 0.687278 0.091703
N1    N     N_R   0.388930 0.078160 0.705470 -0.041342
N2    N     N_R   0.419500 0.922160 0.443350 -0.111494
N3    N     N_R   0.419500 0.077840 0.443350 -0.099889
N4    N     N_R   0.580500 0.922160 0.556650 -0.110867
N5    N     N_R   0.080500 0.577840 0.556650 -0.100406
N6    N     N_R   0.919500 0.422160 0.443350 -0.107431
N7    N     N_R   0.919500 0.577840 0.443350 -0.098939
N8    N     N_R   0.080500 0.422160 0.556650 -0.111463
N9    N     N_R   0.626210 0.077590 0.443410 -0.073553
N10   N     N_R   0.373790 0.922410 0.556590 -0.071192
N11   N     N_R   0.373790 0.077590 0.556590 -0.072214
N12   N     N_R   0.611070 0.921840 0.294530 -0.043362
N13   N     N_R   0.626210 0.922410 0.443410 -0.070710
N14   N     N_R   0.126210 0.577590 0.443410 -0.075547
N15   N     N_R   0.873790 0.422410 0.556590 -0.077419
N16   N     N_R   0.873790 0.577590 0.556590 -0.073845
N17   N     N_R   0.126210 0.422410 0.443410 -0.070301
N18   N     N_R   0.554800 0.077270 0.294580 -0.040638
N19   N     N_R   0.445200 0.922730 0.705420 -0.048556
N20   N     N_R   0.445200 0.077270 0.705420 -0.045225
N21   N     N_R   0.554800 0.922730 0.294580 -0.049328
N22   N     N_R   0.054800 0.577270 0.294580 -0.039889
N23   N     N_R   0.611070 0.078160 0.294530 -0.038869
N24   N     N_R   0.945200 0.422730 0.705420 -0.050573
N25   N     N_R   0.945200 0.577270 0.705420 -0.042266
N26   N     N_R   0.054800 0.422730 0.294580 -0.046845
N27   N     N_R   0.388930 0.921840 0.705470 -0.041093
N28   N     N_R   0.888930 0.578160 0.705470 -0.040664
N29   N     N_R   0.111070 0.421840 0.294530 -0.040012
N30   N     N_R   0.111070 0.578160 0.294530 -0.040787
N31   N     N_R   0.888930 0.421840 0.705470 -0.045181
N32   N     N_R   0.580500 0.077840 0.556650 -0.101859
Ni1   Ni    Ni4+2 0.382710 0.000000 0.629850 0.184425
Ni2   Ni    Ni4+2 0.617290 0.000000 0.370150 0.190640
Ni3   Ni    Ni4+2 0.882710 0.500000 0.629850 0.183713
Ni4   Ni    Ni4+2 0.117290 0.500000 0.370150 0.195472
Ni5   Ni    Ni4+2 0.513020 0.000000 0.629850 0.208731
Ni6   Ni    Ni4+2 0.486980 0.000000 0.370150 0.211174
Ni7   Ni    Ni4+2 0.013020 0.500000 0.629850 0.210687
Ni8   Ni    Ni4+2 0.986980 0.500000 0.370150 0.219396
O1    O     O_3   0.583523 0.142755 0.689349 -0.697890
O2    O     O_3   0.737499 0.707971 0.301779 -0.679806
O3    O     O_3   0.839148 0.116210 0.301223 -0.683633
O4    O     O_3   0.252115 0.715060 0.708098 -0.679497
O5    O     O_3   0.662118 0.627868 0.711062 -0.683173
O6    O     O_3   0.214246 0.192157 0.323755 -0.689324
O7    O     O_3   0.338825 0.615319 0.299729 -0.687389
O8    O     O_3   0.752768 0.216954 0.707792 -0.686003
O9    O     O_3   0.434760 0.841978 0.303426 -0.701276
O10   O     O_3   0.409533 0.143064 0.314745 -0.694490
O11   O     O_3   0.565419 0.843411 0.699080 -0.700453
O12   O     O_3   0.087333 0.653802 0.678922 -0.693708
O13   O     O_3   0.919095 0.351662 0.310824 -0.709797
O14   O     O_3   0.910364 0.647651 0.317170 -0.693026
O15   O     O_3   0.065194 0.347513 0.701913 -0.701227
O16   O     O_3   0.159306 0.115415 0.713619 -0.676444

loop_
_geom_bond_atom_site_label_1
_geom_bond_atom_site_label_2
_ccdc_geom_bond_type
C95   C124  S    
C4    H136  S    
C98   C121  S    
C73   H70   S    
C78   H76   S    
C103  O5    S    
C82   N28   A    
N13   Ni2   S    
C30   O5    S    
C43   C89   S    
C3    H134  S    
C136  H131  S    
C62   N7    A    
C56   O9    S    
C45   C87   S    
C63   C98   A    
C5    C6    S    
C94   C117  S    
C131  H119  S    
C72   N17   A    
N26   N29   A    
C76   H74   S    
C19   H14   S    
C82   H106  S    
C34   H50   S    
N3    Ni6   S    
C44   C53   D    
C113  C122  A    
C77   C88   A    
N9    N32   A    
C67   C94   A    
N27   Ni1   S    
C111  H82   S    
C107  C123  A    
C21   C22   S    
C101  O3    S    
C41   H64   S    
C76   C83   A    
C30   H40   S    
C109  C118  A    
C15   H3    S    
C59   O12   S    
C78   C89   A    
C84   C126  S    
C129  H113  S    
C50   C53   S    
C135  C136  S    
C66   H13   S    
C8    H147  S    
C132  H122  S    
C67   N13   A    
C39   H59   S    
C36   H52   S    
N32   Ni5   S    
C2    H97   S    
N5    Ni7   S    
C113  H85   S    
C23   O3    S    
C13   H100  S    
N14   Ni4   S    
C28   H34   S    
C22   H21   S    
C35   C51   D    
C50   H90   S    
C6    H142  S    
C63   O15   S    
N22   Ni8   S    
C12   H157  S    
C65   C91   A    
N4    Ni5   S    
C14   H159  S    
C4    C5    S    
C58   N4    A    
C40   H63   S    
C2    C47   D    
C71   N27   A    
C19   H12   S    
C9    H149  S    
C116  H87   S    
C130  C131  S    
C128  H110  S    
N31   Ni3   S    
N3    N11   A    
C70   H57   S    
C77   N22   A    
C108  H79   S    
N18   Ni6   S    
C20   C21   S    
C106  C124  A    
C125  C127  S    
C71   H95   S    
C32   H44   S    
C105  O6    S    
C104  H128  S    
C107  O8    S    
C33   O6    S    
C89   C115  A    
C134  H127  S    
C57   C92   A    
C79   N25   A    
C49   N12   A    
N19   Ni5   S    
C61   C96   A    
C7    C8    S    
C130  H115  S    
C17   H8    S    
C4    H137  S    
N17   Ni4   S    
C100  O2    S    
C55   C90   A    
C62   O14   S    
C38   C39   S    
C68   H35   S    
C43   C52   D    
C3    H135  S    
N22   N30   A    
C42   H69   S    
C3    C136  S    
C92   C118  S    
C43   H101  S    
C133  H124  S    
C23   H23   S    
N6    N15   A    
C19   H15   S    
C7    H145  S    
C37   H54   S    
C63   N8    A    
C44   H104  S    
C88   C104  A    
C37   O7    S    
C74   H71   S    
C24   C50   D    
N20   Ni5   S    
C20   H17   S    
C9    H151  S    
C31   H42   S    
C10   H152  S    
C32   H45   S    
C18   H11   S    
N10   Ni1   S    
C99   O16   S    
C66   C92   A    
C76   N21   A    
C25   C26   S    
C4    O12   S    
C90   C120  S    
C45   H103  S    
C62   C97   A    
C8    H146  S    
C31   C32   S    
N21   Ni6   S    
N25   N28   A    
C33   H48   S    
C17   C18   S    
C21   H19   S    
C114  C123  A    
N5    N14   A    
N2    Ni6   S    
C134  H125  S    
C132  O10   S    
N30   Ni4   S    
N24   Ni7   S    
C91   C119  S    
C42   H66   S    
C10   O14   S    
C1    H1    S    
C129  C130  S    
N18   N23   A    
C105  C109  A    
C96   C123  S    
C128  H111  S    
C107  C111  A    
C108  C117  A    
N11   Ni1   S    
C57   N3    A    
C110  C119  A    
C100  C117  A    
N23   Ni2   S    
C12   H156  S    
C58   O11   S    
C55   N32   A    
C3    H133  S    
C136  H132  S    
C73   N18   A    
C112  C121  A    
C103  C122  A    
C40   H62   S    
C25   H27   S    
C87   C93   A    
C26   H28   S    
C46   H89   S    
C34   C36   S    
C74   C85   A    
C126  H98   S    
C10   C11   S    
C102  C119  A    
C53   H96   S    
C14   C15   S    
C54   H94   S    
C59   N5    A    
C26   H29   S    
N25   Ni7   S    
C51   H93   S    
C41   C42   S    
C64   C90   A    
C29   H38   S    
C109  H80   S    
N8    N17   A    
C17   O16   S    
N28   Ni3   S    
C1    N1    A    
C28   C29   S    
C24   C83   S    
N12   N21   A    
C60   H84   S    
C30   C31   S    
C93   H117  S    
C1    C81   A    
C13   C81   S    
C2    C85   S    
C18   C19   S    
C110  H81   S    
N4    N13   A    
C52   H92   S    
C56   C91   A    
C135  H130  S    
C70   C97   A    
C27   H32   S    
C72   H68   S    
N15   Ni3   S    
C11   H155  S    
C39   H61   S    
N16   Ni3   S    
C106  O7    S    
C101  C120  A    
C68   N14   A    
N7    Ni8   S    
C69   N15   A    
C6    H143  S    
C70   N16   A    
C12   H158  S    
C127  H108  S    
C14   H160  S    
C68   C95   A    
C16   H7    S    
C74   N19   A    
C131  H120  S    
C47   C51   S    
C22   H22   S    
C82   C86   A    
C61   N6    A    
C38   H58   S    
C9    H148  S    
C34   H49   S    
C17   H9    S    
C75   H72   S    
C114  H86   S    
C64   N9    A    
C65   H2    S    
C27   O4    S    
C133  C134  S    
C41   H65   S    
C7    H144  S    
C30   H39   S    
C15   H4    S    
C129  H114  S    
C116  C124  A    
N1    N20   A    
C132  H121  S    
C130  H116  S    
N26   Ni8   S    
C39   H60   S    
C36   H51   S    
C135  O11   S    
C49   C83   A    
N6    Ni8   S    
C16   H5    S    
C7    O13   S    
C57   O10   S    
N1    Ni1   S    
C20   H16   S    
C28   H33   S    
C133  H123  S    
C49   H73   S    
C5    H138  S    
C6    H141  S    
C79   C86   A    
N7    N16   A    
C8    C9    S    
C47   H88   S    
C80   N26   A    
C69   C96   A    
C131  H118  S    
C72   C98   A    
C48   C54   S    
C37   C38   S    
C31   H41   S    
N8    Ni7   S    
C80   C87   A    
N12   Ni2   S    
C15   C16   S    
C46   C52   S    
C14   O15   S    
C78   N24   A    
N29   Ni4   S    
C66   N11   A    
N24   N31   A    
N19   N27   A    
C71   C85   A    
C115  N31   A    
C132  C133  S    
C33   H47   S    
C21   H18   S    
C32   H43   S    
C125  H105  S    
C67   H24   S    
C127  H109  S    
C73   C84   A    
C75   N20   A    
C69   H46   S    
C40   O8    S    
C101  C114  A    
C134  H126  S    
C42   H67   S    
C35   H102  S    
C59   C95   A    
C44   C86   S    
C10   H153  S    
C11   H154  S    
C36   H53   S    
C128  H112  S    
C65   N10   A    
C48   H91   S    
C75   C81   A    
C80   H78   S    
C56   N2    A    
C111  C120  A    
C16   H6    S    
C97   C122  S    
C20   O2    S    
C35   C88   S    
C25   H26   S    
C33   C34   S    
C105  C121  A    
C5    H140  S    
C102  O4    S    
C103  C108  A    
N2    N10   A    
C40   C41   S    
C37   H55   S    
C45   C54   D    
C38   H56   S    
C60   N23   A    
C22   H20   S    
C61   O13   S    
C106  C110  A    
C64   H150  S    
C125  O1    S    
C26   H30   S    
C46   C126  D    
C100  C113  A    
C29   H37   S    
C18   H10   S    
C13   C48   D    
C93   N29   A    
C11   C12   S    
C55   O1    S    
C58   C94   A    
C24   H99   S    
C99   C118  A    
C60   C84   A    
C99   C112  A    
C112  H83   S    
C125  H107  S    
C23   C25   S    
C29   H36   S    
C102  C116  A    
C77   H75   S    
C115  H139  S    
C79   H77   S    
C27   C28   S    
C135  H129  S    
N9    Ni2   S    
C129  O9    S    
C104  N30   A    
C127  C128  S    
C27   H31   S    
C23   H25   S    
