data_mof_unit_32988.cif
_audit_creation_date              2012-10-26T20:40:19-0400
_audit_creation_method            fapswitch 2.2
_symmetry_space_group_name_H-M    P1
_symmetry_Int_Tables_number       1
_space_group_crystal_system       triclinic
_cell_length_a                    15.089814
_cell_length_b                    10.97283
_cell_length_c                    9.716952
_cell_angle_alpha                 90.471935
_cell_angle_beta                  88.603156
_cell_angle_gamma                 94.398944
_cell_volume                      1603.6641115

loop_
_atom_site_label
_atom_site_type_symbol
_atom_type_description
_atom_site_fract_x
_atom_site_fract_y
_atom_site_fract_z
_atom_type_partial_charge
Br1   Br    Br    0.766896 0.769762 0.518237 -0.456394
Br2   Br    Br    0.315314 0.245936 0.697789 -0.606898
Br3   Br    Br    0.329835 0.715277 0.747950 -0.535311
Br4   Br    Br    0.662806 0.731534 0.233951 -0.506716
Br5   Br    Br    0.845146 0.647847 0.830994 -0.568117
Br6   Br    Br    0.730535 0.243804 0.479824 -0.487168
Br7   Br    Br    0.270105 0.749230 0.391100 -0.490341
C1    C     C_R   0.492213 0.262320 0.500406 0.585904
C2    C     C_R   0.180197 0.396412 0.501718 -0.132327
C3    C     C_R   0.233093 0.505651 0.496726 0.028382
C4    C     C_R   0.329377 0.500972 0.500048 0.606682
C5    C     C_R   0.194720 0.615002 0.468701 0.172778
C6    C     C_R   0.392695 0.121985 0.727077 0.161273
C7    C     C_R   0.372749 0.064110 0.850920 -0.133542
C8    C     C_R   0.369560 0.939188 0.855287 -0.141058
C9    C     C_R   0.389678 0.872588 0.737513 0.149619
C10   C     C_R   0.434348 0.930845 0.620502 0.018771
C11   C     C_R   0.435610 0.061679 0.616930 0.015274
C12   C     C_R   0.913438 0.616076 0.485553 0.012886
C13   C     C_R   0.475979 0.127142 0.502229 0.022659
C14   C     C_R   0.505213 0.062294 0.388077 -0.128872
C15   C     C_R   0.503445 0.936170 0.389517 -0.104706
C16   C     C_R   0.490533 0.735957 0.501977 0.631863
C17   C     C_R   0.474169 0.868392 0.506006 0.039692
C18   C     C_R   0.656350 0.581442 0.134442 0.159469
C19   C     C_R   0.735533 0.575259 0.060330 -0.140054
C20   C     C_R   0.734201 0.598909 0.920891 0.121364
C21   C     C_R   0.651010 0.607088 0.859697 0.332344
C22   C     C_R   0.574664 0.546571 0.924175 0.092415
C23   C     C_R   0.943282 0.283970 0.528521 0.296069
C24   C     C_R   0.575807 0.541246 0.071744 0.096349
C25   C     C_R   0.427281 0.460736 0.075919 0.004163
C26   C     C_R   0.427411 0.460713 0.929201 0.025058
C27   C     C_R   0.670885 0.504400 0.498642 0.651378
C28   C     C_R   0.820488 0.616463 0.493560 0.177720
C29   C     C_R   0.767778 0.504963 0.495582 0.035892
C30   C     C_R   0.807110 0.393027 0.498842 0.113293
C31   C     C_R   0.900641 0.392492 0.506489 -0.012255
C32   C     C_R   0.953741 0.504621 0.493154 -0.052753
C33   C     C_3   0.654555 0.813353 0.810839 0.028017
C34   C     C_R   0.035542 0.283771 0.510711 0.274327
C35   C     C_3   0.580250 0.845672 0.911489 -0.300030
C36   C     C_3   0.582515 0.982814 0.940124 -0.465857
C37   C     C_3   0.892274 0.187181 0.722627 0.036905
C38   C     C_3   0.840210 0.073701 0.781607 -0.252275
C39   C     C_3   0.834356 0.080464 0.938683 -0.484536
C40   C     C_3   0.095610 0.132078 0.385609 0.008055
C41   C     C_3   0.013821 0.067325 0.318319 -0.226041
C42   C     C_3   0.040464 0.993620 0.192495 -0.470796
C43   C     C_3   0.132047 0.869615 0.619270 0.038810
C44   C     C_3   0.055960 0.919161 0.704533 -0.279771
C45   C     C_R   0.087876 0.394829 0.499218 -0.030065
C46   C     C_3   0.090704 0.988215 0.831094 -0.459544
C47   C     C_R   0.047544 0.505923 0.491337 -0.056589
C48   C     C_R   0.101173 0.617853 0.478781 0.046934
C49   C     C_R   0.059141 0.728423 0.478910 0.273490
C50   C     C_R   0.967064 0.725958 0.476984 -0.066846
Cu1   Cu    Cu3+1 0.499990 0.499990 0.640660 1.098770
Cu2   Cu    Cu3+1 0.500010 0.500010 0.359340 1.046717
H1    H     H_    0.343808 0.112654 0.936372 0.143245
H2    H     H_    0.654235 0.876306 0.722025 0.197024
H3    H     H_    0.720322 0.830900 0.858920 0.173721
H4    H     H_    0.516037 0.810932 0.870552 0.210857
H5    H     H_    0.585737 0.798604 0.009459 0.190560
H6    H     H_    0.574747 0.033731 0.843380 0.166574
H7    H     H_    0.646149 0.015214 0.987610 0.167750
H8    H     H_    0.527665 0.002035 0.013417 0.161232
H9    H     H_    0.857622 0.269044 0.756080 0.159801
H10   H     H_    0.960307 0.193582 0.765711 0.144172
H11   H     H_    0.771934 0.066088 0.740386 0.206249
H12   H     H_    0.340716 0.893972 0.946435 0.168120
H13   H     H_    0.873275 0.990605 0.750032 0.196097
H14   H     H_    0.901318 0.098893 0.982461 0.148944
H15   H     H_    0.804859 0.992305 0.980461 0.174315
H16   H     H_    0.792179 0.154488 0.971893 0.165658
H17   H     H_    0.147477 0.066475 0.395732 0.211077
H18   H     H_    0.125404 0.206152 0.317049 0.104808
H19   H     H_    0.977304 0.005633 0.393474 0.223015
H20   H     H_    0.968424 0.136292 0.285928 0.171970
H21   H     H_    0.081215 0.918617 0.222795 0.214454
H22   H     H_    0.079676 0.054310 0.118976 0.136827
H23   H     H_    0.529231 0.892030 0.298909 0.185006
H24   H     H_    0.979989 0.952972 0.141534 0.166615
H25   H     H_    0.188525 0.940749 0.612543 0.212140
H26   H     H_    0.157052 0.790316 0.672901 0.183512
H27   H     H_    0.019573 0.981258 0.641130 0.233276
H28   H     H_    0.008440 0.842159 0.738028 0.189940
H29   H     H_    0.126320 0.927028 0.897424 0.168537
H30   H     H_    0.033799 0.021812 0.890208 0.140805
H31   H     H_    0.136351 0.068122 0.800350 0.206504
H32   H     H_    0.367317 0.427582 0.131140 0.128919
H33   H     H_    0.798086 0.590278 0.112654 0.185951
H34   H     H_    0.366888 0.430739 0.878639 0.184642
H35   H     H_    0.211560 0.311644 0.501740 0.187743
H36   H     H_    0.938614 0.812865 0.472792 0.170135
H37   H     H_    0.533602 0.109736 0.298068 0.153859
N1    N     N_R   0.500860 0.501210 0.147910 -0.236907
N2    N     N_R   0.500890 0.501290 0.852040 -0.231781
O1    O     O_R   0.499990 0.319640 0.618810 -0.474414
O2    O     O_3   0.897094 0.178699 0.577238 -0.511971
O3    O     O_3   0.074510 0.174219 0.519711 -0.571400
O4    O     O_3   0.106017 0.841525 0.482895 -0.570527
O5    O     O_R   0.500000 0.319660 0.381240 -0.514155
O6    O     O_R   0.370250 0.499960 0.618800 -0.436836
O7    O     O_R   0.370260 0.499980 0.381230 -0.512560
O8    O     O_R   0.500000 0.680340 0.618760 -0.433976
O9    O     O_R   0.500010 0.680360 0.381190 -0.454162
O10   O     O_R   0.629740 0.500020 0.618770 -0.449222
O11   O     O_R   0.629750 0.500040 0.381200 -0.469644
O12   O     O_3   0.641078 0.692178 0.758216 -0.480959

loop_
_geom_bond_atom_site_label_1
_geom_bond_atom_site_label_2
_ccdc_geom_bond_type
C18   C24   A    
C48   C49   A    
C40   O3    S    
C28   C29   A    
Cu1   N2    S    
Br4   C18   S    
C43   H25   S    
C38   C39   S    
C12   C50   A    
C19   C20   A    
C1    C13   S    
C6    C11   A    
C15   H23   S    
C41   H20   S    
C21   C22   A    
C1    O1    A    
C40   H17   S    
C31   C32   A    
C32   C47   A    
C42   H22   S    
C8    C9    A    
C23   O2    S    
C33   H3    S    
C25   N1    A    
C23   C31   A    
C26   N2    A    
C41   H19   S    
Br2   C6    S    
C43   H26   S    
Br5   C20   S    
C9    C10   A    
C4    O7    A    
C16   C17   S    
C23   C34   A    
C4    O6    A    
C2    C3    A    
C34   C45   A    
C11   C13   A    
C33   C35   S    
C6    C7    A    
C38   H13   S    
C46   H31   S    
C2    C45   A    
C44   H27   S    
C39   H16   S    
C45   C47   A    
C10   C11   A    
Br7   C5    S    
C10   C17   A    
C44   H28   S    
C33   O12   S    
C21   O12   S    
Cu1   Cu2   S    
C16   O8    A    
Cu2   O9    S    
C33   H2    S    
C44   C46   S    
C30   C31   A    
C40   C41   S    
C36   H6    S    
C16   O9    A    
C43   C44   S    
Br6   C30   S    
C37   H10   S    
Cu2   O7    S    
C3    C5    A    
C22   N2    A    
C36   H8    S    
C41   C42   S    
C43   O4    S    
C46   H30   S    
Cu2   N1    S    
C15   C17   A    
C37   H9    S    
Cu1   O6    S    
C35   C36   S    
C40   H18   S    
C35   H5    S    
C39   H15   S    
C7    H1    S    
C37   C38   S    
Br1   C28   S    
C49   C50   A    
Cu1   O10   S    
C47   C48   A    
C29   C30   A    
C38   H11   S    
Cu1   O1    S    
C26   H34   S    
C14   H37   S    
C8    H12   S    
C42   H21   S    
C27   O10   A    
C25   C26   A    
C42   H24   S    
C18   C19   A    
Cu2   O5    S    
C22   C24   A    
C12   C28   A    
C37   O2    S    
C36   H7    S    
C35   H4    S    
Cu2   O11   S    
C34   O3    S    
C46   H29   S    
C27   C29   S    
C24   N1    A    
C1    O5    A    
C5    C48   A    
C3    C4    S    
C49   O4    S    
C25   H32   S    
C13   C14   A    
C12   C32   A    
C50   H36   S    
C20   C21   A    
C27   O11   A    
C7    C8    A    
Cu1   O8    S    
C14   C15   A    
C19   H33   S    
C2    H35   S    
C39   H14   S    
Br3   C9    S    
