data_mof_unit_8344.cif
_audit_creation_date              2012-12-10T18:54:27-0500
_audit_creation_method            fapswitch 2.2
_symmetry_space_group_name_H-M    P1
_symmetry_Int_Tables_number       1
_space_group_crystal_system       triclinic
_cell_length_a                    10.715445
_cell_length_b                    9.817739
_cell_length_c                    23.432129
_cell_angle_alpha                 89.992681
_cell_angle_beta                  90.111657
_cell_angle_gamma                 89.988265
_cell_volume                      2465.08901362

loop_
_atom_site_label
_atom_site_type_symbol
_atom_type_description
_atom_site_fract_x
_atom_site_fract_y
_atom_site_fract_z
_atom_type_partial_charge
C1    C     C_R   0.259804 0.500011 0.499963 0.875539
C2    C     C_R   0.500723 0.623424 0.702947 -0.217658
C3    C     C_R   0.500588 0.623272 0.237936 -0.133539
C4    C     C_R   0.500029 0.623197 0.762061 -0.133430
C5    C     C_R   0.501548 0.500058 0.208186 0.296196
C6    C     C_R   0.498494 0.499978 0.791815 0.296202
C7    C     C_R   0.063889 0.378568 0.488923 -0.186021
C8    C     C_R   0.936112 0.621425 0.511075 -0.185136
C9    C     C_R   0.936064 0.378537 0.488986 -0.187426
C10   C     C_R   0.063935 0.621456 0.511012 -0.186504
C11   C     C_R   0.872596 0.499972 0.500047 -0.014585
C12   C     C_R   0.740196 0.499988 0.500036 0.875558
C13   C     C_R   0.127404 0.500022 0.499951 -0.014618
C14   C     C_R   0.575952 0.072004 0.536280 -0.075393
C15   C     C_R   0.424039 0.927999 0.463725 -0.074890
C16   C     C_R   0.424044 0.072064 0.463721 -0.075536
C17   C     C_R   0.575964 0.927939 0.536275 -0.075069
C18   C     C_R   0.499945 0.499993 0.389231 0.889698
C19   C     C_R   0.500047 0.499980 0.610769 0.889657
C20   C     C_R   0.610826 0.505023 0.880493 0.506734
C21   C     C_R   0.389256 0.506049 0.119506 0.506730
C22   C     C_R   0.387478 0.506464 0.880638 0.486010
C23   C     C_R   0.501431 0.374683 0.237513 0.215449
C24   C     C_R   0.612607 0.505635 0.119360 0.486012
C25   C     C_R   0.385472 0.507966 0.940204 -0.013672
C26   C     C_R   0.614623 0.507077 0.059795 -0.013670
C27   C     C_R   0.499823 0.507591 0.970028 -0.022923
C28   C     C_R   0.500271 0.507617 0.029970 -0.022903
C29   C     C_R   0.613725 0.506709 0.940051 -0.016547
C30   C     C_R   0.386366 0.507704 0.059947 -0.016525
C31   C     C_R   0.272539 0.508976 0.970449 -0.158797
C32   C     C_R   0.727559 0.507132 0.029549 -0.158805
C33   C     C_R   0.272982 0.508772 0.029854 -0.162369
C34   C     C_R   0.497963 0.374615 0.762492 0.215125
C35   C     C_R   0.727113 0.506874 0.970144 -0.162330
C36   C     C_3   0.502747 0.239337 0.206627 -0.422670
C37   C     C_3   0.376816 0.167675 0.211409 -0.824781
C38   C     C_3   0.495858 0.239265 0.793382 -0.422420
C39   C     C_3   0.621254 0.166489 0.788482 -0.824860
C40   C     C_R   0.501070 0.376055 0.297087 -0.233838
C41   C     C_R   0.498321 0.376011 0.702917 -0.232097
C42   C     C_R   0.500192 0.499897 0.326973 -0.077804
C43   C     C_R   0.499796 0.499857 0.673027 -0.077783
C44   C     C_R   0.499849 0.623479 0.297050 -0.215934
H1    H     H_    0.183631 0.509366 0.948369 0.192435
H2    H     H_    0.500855 0.718946 0.785021 0.143355
H3    H     H_    0.112571 0.284237 0.479934 0.154694
H4    H     H_    0.887430 0.715757 0.520063 0.154795
H5    H     H_    0.887345 0.284182 0.480049 0.158565
H6    H     H_    0.112653 0.715812 0.519949 0.158702
H7    H     H_    0.636592 0.126745 0.565250 0.127783
H8    H     H_    0.363383 0.873261 0.434762 0.128485
H9    H     H_    0.363391 0.126852 0.434756 0.124526
H10   H     H_    0.636633 0.873154 0.565232 0.125204
H11   H     H_    0.354216 0.146058 0.256752 0.249806
H12   H     H_    0.816464 0.506815 0.051630 0.192429
H13   H     H_    0.302079 0.232061 0.192594 0.293832
H14   H     H_    0.380126 0.069593 0.187864 0.250499
H15   H     H_    0.525200 0.251563 0.160709 0.215674
H16   H     H_    0.576693 0.173365 0.225220 0.211479
H17   H     H_    0.643516 0.144729 0.743120 0.249910
H18   H     H_    0.696527 0.230176 0.807242 0.293891
H19   H     H_    0.617342 0.068407 0.812018 0.250266
H20   H     H_    0.473712 0.251653 0.839323 0.215655
H21   H     H_    0.421364 0.173958 0.774861 0.211680
H22   H     H_    0.184407 0.509010 0.052054 0.192198
H23   H     H_    0.815690 0.506364 0.947945 0.192187
H24   H     H_    0.501849 0.280115 0.319973 0.164208
H25   H     H_    0.497030 0.280090 0.680032 0.164484
H26   H     H_    0.499061 0.720272 0.319224 0.166242
H27   H     H_    0.501952 0.720225 0.680774 0.165949
H28   H     H_    0.500235 0.719035 0.214975 0.143439
N1    N     N_R   0.498941 0.503892 0.852458 -0.361291
N2    N     N_R   0.501130 0.503995 0.147541 -0.361237
N3    N     N_R   0.500000 0.857200 0.500000 -0.079963
N4    N     N_R   0.500000 0.142800 0.500000 -0.079746
O1    O     O_R   0.316770 0.614620 0.500000 -0.626891
O2    O     O_2   0.281622 0.506084 0.149337 -0.555953
O3    O     O_2   0.279421 0.506634 0.850936 -0.550927
O4    O     O_2   0.720663 0.504939 0.149063 -0.550934
O5    O     O_R   0.683230 0.385380 0.500000 -0.627018
O6    O     O_R   0.683230 0.614620 0.500000 -0.625741
O7    O     O_R   0.316770 0.385380 0.500000 -0.625886
O8    O     O_R   0.499970 0.614690 0.416160 -0.620768
O9    O     O_R   0.500030 0.385310 0.583840 -0.622908
O10   O     O_R   0.500030 0.614690 0.583840 -0.622920
O11   O     O_R   0.499970 0.385310 0.416160 -0.625044
O12   O     O_2   0.718456 0.504120 0.850661 -0.555911
Zn1   Zn    Zn3+2 0.500000 0.653120 0.500000 0.952048
Zn2   Zn    Zn3+2 0.500000 0.346880 0.500000 0.950338

loop_
_geom_bond_atom_site_label_1
_geom_bond_atom_site_label_2
_ccdc_geom_bond_type
C25   C31   A    
C15   N3    A    
C26   C32   A    
C27   C29   A    
C1    O1    A    
C36   H15   S    
C4    H2    S    
O1    Zn1   S    
O6    Zn1   S    
C1    O7    A    
C36   C37   S    
C24   C26   A    
C22   O3    S    
C18   C42   S    
C38   C39   S    
C23   C40   A    
C5    N2    S    
O7    Zn2   S    
C16   H9    S    
C24   O4    S    
C22   C25   A    
C21   O2    S    
C20   N1    A    
C18   O8    A    
C31   C33   A    
C44   H26   S    
C37   H14   S    
C19   O10   A    
C40   C42   A    
C16   N4    A    
C41   C43   A    
C14   C17   A    
C34   C41   A    
C42   C44   A    
C19   O9    A    
C19   C43   S    
C33   H22   S    
C38   H20   S    
C20   C29   A    
C39   H17   S    
C3    C44   A    
C32   C35   A    
C9    H5    S    
C4    C6    A    
C3    C5    A    
C21   N2    A    
O10   Zn1   S    
C6    C34   A    
C7    H3    S    
C2    C4    A    
C8    H4    S    
C14   H7    S    
C5    C23   A    
C38   H21   S    
C35   H23   S    
C2    C43   A    
C11   C12   S    
C12   O6    A    
C15   H8    S    
C9    C11   A    
O5    Zn2   S    
C31   H1    S    
C1    C13   S    
O8    Zn1   S    
C2    H27   S    
C10   H6    S    
C6    N1    S    
C41   H25   S    
C7    C9    A    
C39   H18   S    
C30   C33   A    
C34   C38   S    
C36   H16   S    
C10   C13   A    
O9    Zn2   S    
C25   C27   A    
C39   H19   S    
C21   C30   A    
C29   C35   A    
C26   C28   A    
C18   O11   A    
C28   C30   A    
C3    H28   S    
C24   N2    A    
C8    C11   A    
C20   O12   S    
C12   O5    A    
N3    Zn1   S    
C37   H11   S    
C7    C13   A    
C8    C10   A    
C23   C36   S    
C40   H24   S    
O11   Zn2   S    
N4    Zn2   S    
C27   C28   A    
C17   N3    A    
C22   N1    A    
C17   H10   S    
C32   H12   S    
C37   H13   S    
C15   C16   A    
C14   N4    A    
