data_mof_unit_36058.cif
_audit_creation_date              2013-03-05T16:02:40-0500
_audit_creation_method            fapswitch 2.2
_symmetry_space_group_name_H-M    P1
_symmetry_Int_Tables_number       1
_space_group_crystal_system       triclinic
_cell_length_a                    6.952879
_cell_length_b                    17.289185
_cell_length_c                    18.823121
_cell_angle_alpha                 106.207944
_cell_angle_beta                  89.762445
_cell_angle_gamma                 90.512315
_cell_volume                      2172.69817048

loop_
_atom_site_label
_atom_site_type_symbol
_atom_site_description
_atom_site_fract_x
_atom_site_fract_y
_atom_site_fract_z
_atom_type_partial_charge
O1    O     O_R   0.494360 0.415680 0.413760 -0.591460
O2    O     O_R   0.818810 0.432910 0.557230 -0.581738
O3    O     O_R   0.994290 0.584320 0.586240 -0.585215
C1    C     C_R   0.649897 0.415825 0.580511 0.957183
O4    O     O_R   0.823740 0.406440 0.412520 -0.591364
O5    O     O_R   0.999250 0.557660 0.440500 -0.565323
C2    C     C_R   0.654532 0.383602 0.384918 0.928597
O6    O     O_R   0.489400 0.442340 0.559500 -0.565951
O7    O     O_3   0.662500 0.549650 0.509350 -0.260891
V1    V     V_3+5 0.935340 0.490790 0.498270 1.155587
O8    O     O_R   0.329270 0.567090 0.442770 -0.580512
C3    C     C_R   0.161187 0.584023 0.419362 0.948247
O9    O     O_R   0.324340 0.593560 0.587480 -0.587673
C4    C     C_R   0.155462 0.616293 0.615197 0.937439
V2    V     V_3+5 0.435970 0.509210 0.501730 1.155675
O10   O     O_3   0.158940 0.450350 0.490650 -0.264077
H1    H     H_    0.344128 0.867729 0.562383 0.176051
C5    C     C_R   0.031141 0.592397 0.754712 -0.167981
C6    C     C_R   0.970056 0.578649 0.820749 -0.115554
C7    C     C_R   0.958902 0.642176 0.884884 -0.108199
C8    C     C_R   0.008348 0.720003 0.883483 -0.158918
C9    C     C_R   0.068811 0.736113 0.817101 0.112496
C10   C     C_R   0.080894 0.670865 0.751293 0.115327
C11   C     C_R   0.119726 0.815369 0.815837 -0.274755
C12   C     C_R   0.181552 0.829255 0.748387 0.078536
C13   C     C_R   0.195365 0.763928 0.682839 0.134132
C14   C     C_R   0.145123 0.684588 0.684113 -0.301340
C15   C     C_R   0.225761 0.908087 0.744552 -0.309309
C16   C     C_R   0.284330 0.922879 0.678110 0.412637
C17   C     C_R   0.299936 0.858032 0.614467 -0.220616
C18   C     C_R   0.255311 0.780017 0.616532 -0.218134
H2    H     H_    0.039982 0.540674 0.706684 0.114735
H3    H     H_    0.932323 0.518230 0.822234 0.117709
H4    H     H_    0.912575 0.631057 0.936155 0.115718
H5    H     H_    0.999441 0.767088 0.935109 0.095354
H6    H     H_    0.213409 0.959035 0.793063 0.163793
H7    H     H_    0.266387 0.732706 0.565135 0.130501
C19   C     C_1   0.112082 0.863673 0.132407 -0.204940
C20   C     C_1   0.119624 0.821119 0.175982 0.100394
C21   C     C_1   0.128982 0.770932 0.227896 0.006702
C22   C     C_1   0.136940 0.728658 0.271714 0.003508
C23   C     C_1   0.146197 0.678468 0.323634 0.064628
C24   C     C_1   0.153515 0.635942 0.367244 -0.325246
C25   C     C_1   0.641529 0.363506 0.632222 -0.320919
C26   C     C_1   0.637553 0.320492 0.675435 0.072500
C27   C     C_1   0.634368 0.269684 0.726842 0.019076
C28   C     C_1   0.631944 0.226893 0.770251 0.052561
C29   C     C_1   0.628483 0.176170 0.821709 0.139470
C30   C     C_1   0.623911 0.133379 0.865097 -0.269512
H8    H     H_    0.925514 0.139544 0.427229 0.158897
C31   C     C_R   0.466016 0.400849 0.253328 -0.178375
C32   C     C_R   0.383783 0.412900 0.190419 -0.176805
C33   C     C_R   0.414931 0.357863 0.122522 -0.103129
C34   C     C_R   0.527693 0.289463 0.116920 0.188204
C35   C     C_R   0.570988 0.266313 0.182634 0.037971
C36   C     C_R   0.558045 0.327446 0.251414 0.116566
C37   C     C_R   0.621958 0.186157 0.183132 -0.298094
C38   C     C_R   0.681160 0.171529 0.250986 -0.019173
C39   C     C_R   0.711563 0.238215 0.314674 0.105779
C40   C     C_R   0.642527 0.315529 0.315967 -0.274606
C41   C     C_R   0.713139 0.092218 0.258124 0.312065
C42   C     C_R   0.809851 0.082344 0.320047 -0.163334
C43   C     C_R   0.856266 0.148303 0.378672 -0.148031
C44   C     C_R   0.800464 0.224850 0.377692 -0.173750
H9    H     H_    0.452690 0.449851 0.303064 0.139076
H10   H     H_    0.306882 0.467972 0.193632 0.131174
H11   H     H_    0.364671 0.372319 0.073390 0.122151
H12   H     H_    0.838287 0.022588 0.325026 0.169078
H13   H     H_    0.826756 0.272796 0.427513 0.136031
O11   O     O_R   0.775690 0.057750 0.940570 -0.575613
O12   O     O_R   0.441200 0.093570 0.087490 -0.557626
O13   O     O_R   0.265840 0.942320 0.059480 -0.536119
C45   C     C_R   0.610262 0.117460 0.114554 1.002447
O14   O     O_R   0.446270 0.067110 0.942790 -0.582474
O15   O     O_R   0.270950 0.915660 0.913750 -0.594112
C46   C     C_R   0.614983 0.081937 0.917606 0.927541
O16   O     O_R   0.770580 0.084400 0.086300 -0.594975
O17   O     O_3   0.602640 0.950400 0.990690 -0.252141
V3    V     V_3+5 0.329740 0.009200 0.001730 1.210323
O18   O     O_R   0.940900 0.906360 0.912450 -0.594641
C47   C     C_R   0.109763 0.883580 0.884829 0.921456
O19   O     O_R   0.935830 0.932820 0.057160 -0.550397
C48   C     C_R   0.104015 0.915749 0.080434 0.986776
V4    V     V_3+5 0.829130 0.990680 0.998180 1.202798
O20   O     O_3   0.106100 0.049590 0.009310 -0.273842
C49   C     C_3   0.619896 0.252830 0.042234 -0.410191
C50   C     C_3   0.736440 0.314819 0.015186 -0.893474
H14   H     H_    0.641215 0.359362 0.000837 0.251747
H15   H     H_    0.840486 0.346775 0.058318 0.265039
H16   H     H_    0.818375 0.283726 0.964668 0.250750
H17   H     H_    0.724977 0.206213 0.043691 0.189902
H18   H     H_    0.504472 0.227293 0.001874 0.187410
N1    N     N_R   0.621886 0.022208 0.210504 0.219706
O21   O     O_R   0.435577 0.021210 0.204184 -0.416477
O22   O     O_R   0.712899 0.954086 0.191606 -0.422097
N2    N     N_R   0.325378 0.003727 0.675161 0.235887
O23   O     O_R   0.397679 0.016833 0.615643 -0.395332
O24   O     O_R   0.286446 0.065141 0.731298 -0.422900

loop_
_geom_bond_atom_site_label_1
_geom_bond_atom_site_label_2
_geom_bond_distance
_ccdc_geom_bond_type
C39   C40   1.418085 A    
C35   C36   1.427653 A    
N1    O21   1.300847 A    
H8    C43   1.082747 S    
C19   C48   1.504630 S    
C22   C23   1.478916 S    
C6    C7    1.389351 A    
O18   V4    2.007436 S    
O12   V3    2.002465 S    
C33   C34   1.403775 A    
C25   C26   1.246019 T    
C12   C15   1.415824 A    
C13   C14   1.419139 A    
C42   C43   1.384276 A    
O14   C46   1.313127 A    
C15   C16   1.402788 A    
C5    C6    1.393104 A    
C3    C24   1.504630 S    
C49   H17   1.098721 S    
O5    C3    1.312292 A    
C17   C18   1.392388 A    
C41   N1    1.434020 S    
V2    O10   2.153826 S    
C31   C36   1.417779 A    
C31   H9    1.077355 S    
C37   C45   1.492253 S    
C27   C28   1.245970 T    
O8    V2    1.850282 S    
N2    O24   1.301421 A    
O1    V2    2.008228 S    
C10   C14   1.419739 A    
C4    C14   1.492590 S    
O11   V4    1.836204 S    
O7    V1    2.142557 S    
C1    O6    1.313718 A    
C7    H4    1.082572 S    
C38   C41   1.433980 A    
C13   C18   1.412913 A    
N1    O22   1.300654 A    
O1    C2    1.296336 A    
C8    C9    1.415420 A    
H1    C17   1.082602 S    
O4    C2    1.300842 A    
C5    C10   1.415802 A    
C11   C12   1.420606 A    
C6    H3    1.082658 S    
C20   C21   1.478814 S    
O12   C45   1.300258 A    
O17   V3    2.142485 S    
O15   C47   1.298216 A    
C1    C25   1.503050 S    
O16   V4    2.012043 S    
C38   C39   1.427317 A    
C26   C27   1.477303 S    
C18   H7    1.081526 S    
O2    C1    1.311627 A    
C11   C47   1.492575 S    
C16   C17   1.398266 A    
C28   C29   1.476960 S    
N2    O23   1.301607 A    
C39   C44   1.415677 A    
C30   C46   1.503670 S    
C44   H13   1.079244 S    
V4    O20   2.153802 S    
O3    C4    1.297776 A    
C29   C30   1.245790 T    
O6    V2    1.835744 S    
O19   V4    1.850319 S    
O14   V3    1.867584 S    
C35   C37   1.436048 A    
O11   C46   1.312822 A    
C9    C11   1.418795 A    
C5    H2    1.081649 S    
C23   C24   1.246971 T    
O2    V1    1.867501 S    
C2    C40   1.490986 S    
V3    O20   1.699351 S    
C32   H10   1.082963 S    
C32   C33   1.381379 A    
C34   C49   1.513676 S    
C34   C35   1.436120 A    
C21   C22   1.247062 T    
C49   C50   1.532996 S    
O18   C47   1.301079 A    
O5    V1    1.845312 S    
C16   N2    1.440281 S    
O8    C3    1.314536 A    
C8    H5    1.081504 S    
O13   V3    1.845144 S    
C42   H12   1.083085 S    
O9    V2    2.007543 S    
C12   C13   1.424854 A    
C31   C32   1.384924 A    
O3    V1    2.005934 S    
V1    O10   1.699411 S    
C37   C38   1.432228 A    
C19   C20   1.246877 T    
O7    V2    1.707733 S    
C41   C42   1.399834 A    
C33   H11   1.083121 S    
O13   C48   1.311793 A    
C43   C44   1.387530 A    
O17   V4    1.706501 S    
O4    V1    2.002549 S    
C36   C40   1.418370 A    
C7    C8    1.393170 A    
C15   H6    1.081091 S    
C50   H14   1.109560 S    
O19   C48   1.314935 A    
C50   H16   1.110577 S    
C50   H15   1.111333 S    
C45   O16   1.299549 A    
C9    C10   1.426472 A    
C49   H18   1.107960 S    
O9    C4    1.301570 A    
O15   V3    2.005920 S    
