data_mof_unit_65200.cif
_audit_creation_date              2013-03-05T16:18:09-0500
_audit_creation_method            fapswitch 2.2
_symmetry_space_group_name_H-M    P1
_symmetry_Int_Tables_number       1
_space_group_crystal_system       triclinic
_cell_length_a                    19.344766
_cell_length_b                    18.136545
_cell_length_c                    27.77521
_cell_angle_alpha                 89.999313
_cell_angle_beta                  92.132528
_cell_angle_gamma                 89.999887
_cell_volume                      9738.10618619

loop_
_atom_site_label
_atom_site_type_symbol
_atom_site_description
_atom_site_fract_x
_atom_site_fract_y
_atom_site_fract_z
_atom_type_partial_charge
O1    O     O_R   0.400150 0.561970 0.500010 -0.560279
O2    O     O_R   0.599850 0.438030 0.499990 -0.560788
O3    O     O_R   0.599850 0.561970 0.499990 -0.560548
O4    O     O_R   0.400150 0.438030 0.500010 -0.561045
C1    C     C_R   0.367215 0.499999 0.500042 0.880022
C2    C     C_R   0.632785 0.499999 0.499958 0.880003
O5    O     O_R   0.500010 0.561950 0.430260 -0.562426
O6    O     O_R   0.499990 0.438050 0.569740 -0.561921
O7    O     O_R   0.499990 0.561950 0.569740 -0.562328
O8    O     O_R   0.500010 0.438050 0.430260 -0.561790
C3    C     C_R   0.500057 0.499974 0.407288 0.841862
C4    C     C_R   0.499949 0.499975 0.592712 0.841898
Cu1   Cu    Cu3+1 0.500000 0.573360 0.500000 1.030544
Cu2   Cu    Cu3+1 0.500000 0.426640 0.500000 1.030505
C5    C     C_R   0.439014 0.510014 0.176080 0.588925
C6    C     C_R   0.560863 0.511167 0.823930 0.588819
O9    O     O_2   0.381143 0.522223 0.200368 -0.447451
O10   O     O_2   0.618540 0.524399 0.799641 -0.447515
N1    N     N_R   0.499822 0.497990 0.201606 -0.477445
N2    N     N_R   0.500256 0.498048 0.798405 -0.477346
C7    C     C_R   0.560082 0.484032 0.179244 0.569950
C8    C     C_R   0.440226 0.483001 0.820775 0.570006
C9    C     C_R   0.504520 0.432324 0.278851 -0.079803
C10   C     C_R   0.496116 0.432318 0.721177 -0.080166
C11   C     C_R   0.504466 0.432725 0.329034 -0.168017
C12   C     C_R   0.496136 0.432706 0.670992 -0.168587
C13   C     C_R   0.496258 0.566223 0.328287 -0.167274
C14   C     C_R   0.503227 0.566277 0.671690 -0.166798
C15   C     C_R   0.495978 0.565628 0.278054 -0.084045
C16   C     C_R   0.503510 0.565701 0.721924 -0.083427
C17   C     C_R   0.500155 0.498702 0.253233 0.328002
C18   C     C_R   0.499915 0.498744 0.746774 0.327723
C19   C     C_R   0.499140 0.493001 0.101597 -0.089004
C20   C     C_R   0.501016 0.493053 0.898418 -0.089014
C21   C     C_R   0.436929 0.508258 0.125109 -0.096089
C22   C     C_R   0.562972 0.509449 0.874901 -0.096033
C23   C     C_R   0.375970 0.521821 0.096555 0.313069
C24   C     C_R   0.623702 0.524123 0.903451 0.313044
C25   C     C_R   0.560983 0.481426 0.128901 -0.057546
C26   C     C_R   0.439369 0.480361 0.871119 -0.057461
C27   C     C_R   0.500256 0.499706 0.354252 -0.052002
C28   C     C_R   0.499774 0.499716 0.645750 -0.052062
H1    H     H_    0.493237 0.618662 0.346705 0.193375
H2    H     H_    0.505794 0.618736 0.653252 0.193088
H3    H     H_    0.492715 0.617122 0.258369 0.157072
H4    H     H_    0.506320 0.617231 0.741588 0.157345
C29   C     C_R   0.436972 0.481198 0.972785 0.005377
C30   C     C_R   0.563366 0.482346 0.027234 0.005332
C31   C     C_R   0.563271 0.494438 0.976755 0.018528
C32   C     C_R   0.436871 0.493272 0.023261 0.018518
C33   C     C_R   0.500427 0.489399 0.949367 0.046408
C34   C     C_R   0.499787 0.489375 0.050650 0.046416
C35   C     C_R   0.377025 0.461566 0.944533 0.228361
C36   C     C_R   0.623620 0.463804 0.055492 0.228325
C37   C     C_R   0.378649 0.462701 0.894441 -0.135947
C38   C     C_R   0.621978 0.464887 0.105583 -0.135928
O11   O     O_2   0.381459 0.470813 0.794230 -0.511882
O12   O     O_2   0.619029 0.472884 0.205796 -0.511601
C39   C     C_R   0.376957 0.514636 0.046623 -0.168642
C40   C     C_R   0.622832 0.516906 0.953386 -0.168732
H5    H     H_    0.493177 0.380575 0.652026 0.189062
H6    H     H_    0.507866 0.380628 0.348023 0.188700
H7    H     H_    0.493384 0.380397 0.740261 0.157100
H8    H     H_    0.507720 0.380425 0.259784 0.157036
H9    H     H_    0.332173 0.447811 0.873722 0.221873
H10   H     H_    0.668687 0.450843 0.126307 0.221977
H11   H     H_    0.330826 0.530044 0.025968 0.209651
H12   H     H_    0.668706 0.533153 0.974036 0.209594
C41   C     C_R   0.254636 0.566650 0.500390 -0.127594
C42   C     C_R   0.745359 0.433325 0.499776 -0.127858
C43   C     C_R   0.745373 0.566644 0.499695 -0.125621
C44   C     C_R   0.254632 0.433331 0.500145 -0.125952
H13   H     H_    0.282070 0.618718 0.500341 0.214262
H14   H     H_    0.717920 0.381263 0.499960 0.214059
H15   H     H_    0.717911 0.618710 0.499224 0.213490
H16   H     H_    0.282098 0.381269 0.500479 0.213301
C45   C     C_R   0.182547 0.567708 0.499563 0.416915
C46   C     C_R   0.817448 0.432253 0.500595 0.417036
C47   C     C_R   0.817382 0.567689 0.498972 0.416222
C48   C     C_R   0.182623 0.432266 0.500880 0.416243
C49   C     C_R   0.145621 0.499984 0.500164 -0.161027
C50   C     C_R   0.854378 0.499966 0.499843 -0.160954
C51   C     C_R   0.291128 0.499994 0.500176 -0.227188
C52   C     C_R   0.708871 0.499991 0.499826 -0.227221
N3    N     N_R   0.032525 0.467122 0.463745 -0.179380
N4    N     N_R   0.967468 0.532814 0.536266 -0.179373
N5    N     N_R   0.963760 0.467114 0.463670 -0.187637
N6    N     N_R   0.036233 0.532819 0.536343 -0.187738
C53   C     C_R   0.930184 0.499959 0.499929 0.352088
C54   C     C_R   0.069811 0.499976 0.500082 0.352250
C55   C     C_R   0.543983 0.277115 0.530774 0.404604
C56   C     C_R   0.455798 0.722897 0.469382 0.404475
C57   C     C_R   0.456018 0.277118 0.469224 0.404448
C58   C     C_R   0.544201 0.722893 0.530621 0.404280
C59   C     C_R   0.544381 0.199349 0.531046 -0.255968
C60   C     C_R   0.455408 0.800664 0.469106 -0.255627
C61   C     C_R   0.455619 0.199351 0.468952 -0.256001
C62   C     C_R   0.544595 0.800660 0.530896 -0.255639
H17   H     H_    0.579701 0.170724 0.555759 0.203640
H18   H     H_    0.419909 0.829290 0.444518 0.203785
H19   H     H_    0.420300 0.170728 0.444239 0.203787
H20   H     H_    0.580092 0.829285 0.555485 0.203945
C63   C     C_R   0.499999 0.158955 0.500000 -0.041185
C64   C     C_R   0.500002 0.841057 0.500000 -0.041369
N7    N     N_R   0.500000 0.316380 0.500000 -0.221978
N8    N     N_R   0.500000 0.683620 0.500000 -0.221260
N9    N     N_R   0.456568 0.036886 0.469766 -0.212040
N10   N     N_R   0.543435 0.963127 0.530233 -0.212019
N11   N     N_R   0.543433 0.036886 0.530234 -0.212107
N12   N     N_R   0.456568 0.963127 0.469767 -0.212109
C65   C     C_R   0.500002 0.924267 0.500000 0.466794
C66   C     C_R   0.500000 0.075746 0.500000 0.466920
O13   O     O_3   0.150993 0.636084 0.497429 -0.674764
H21   H     H_    0.101553 0.630652 0.487823 0.348090
O14   O     O_3   0.848996 0.363880 0.502870 -0.674786
H22   H     H_    0.898471 0.369350 0.512364 0.348059
O15   O     O_3   0.848713 0.636046 0.496660 -0.675240
H23   H     H_    0.897219 0.630531 0.487277 0.346232
O16   O     O_3   0.151299 0.363893 0.503051 -0.675152
H24   H     H_    0.102834 0.369348 0.512539 0.346312
Br1   Br    Br    0.608021 0.323290 0.575598 -0.462827
Br2   Br    Br    0.391402 0.676762 0.424800 -0.465602
Br3   Br    Br    0.391989 0.323299 0.424395 -0.459677
Br4   Br    Br    0.608579 0.676750 0.575214 -0.462450
Br5   Br    Br    0.288707 0.552479 0.121134 -0.303504
Br6   Br    Br    0.710453 0.556401 0.878864 -0.303340
Br7   Br    Br    0.296093 0.416135 0.970108 -0.402932
Br8   Br    Br    0.705274 0.419878 0.029929 -0.402686

loop_
_geom_bond_atom_site_label_1
_geom_bond_atom_site_label_2
_geom_bond_distance
_ccdc_geom_bond_type
C43   H15   1.083306 S    
C13   C15   1.395066 A    
N9    C66   1.362096 A    
C55   N7    1.381135 A    
C41   C45   1.394007 A    
C46   O14   1.382493 S    
C44   H16   1.083325 S    
O3    C2    1.291976 A    
N1    C17   1.433779 S    
C8    O11   1.349990 S    
C43   C47   1.394030 A    
C19   C34   1.417132 A    
C30   C36   1.421144 A    
C20   C33   1.417133 A    
C19   C25   1.408146 A    
C31   C40   1.403747 A    
O1    C1    1.291975 A    
C32   C39   1.403747 A    
N1    C7    1.364772 A    
C12   H5    1.082815 S    
C10   C12   1.393917 A    
O13   H21   0.988237 S    
C30   C34   1.418265 A    
C1    C51   1.472025 S    
C59   H17   1.082865 S    
C42   C46   1.394012 A    
C58   C62   1.410472 A    
O14   H22   0.988232 S    
C47   O15   1.382504 S    
C56   C60   1.410460 A    
O7    Cu1   1.948067 S    
N10   N11   1.337741 A    
C13   C27   1.406159 A    
N12   C65   1.362097 A    
C4    C28   1.473276 S    
C35   Br7   1.928050 S    
C57   N7    1.381137 A    
Cu2   N7    1.999735 S    
C58   N8    1.381189 A    
C31   C33   1.412840 A    
C42   H14   1.083301 S    
C32   C34   1.412840 A    
C41   H13   1.083282 S    
C42   C52   1.400071 A    
O3    Cu1   1.942600 S    
C6    N2    1.368207 A    
C29   C35   1.421140 A    
C39   H11   1.079568 S    
N3    N5    1.330163 A    
C48   O16   1.382485 S    
Cu1   Cu2   2.660992 S    
C15   C17   1.399753 A    
O2    C2    1.291939 A    
C45   O13   1.382477 S    
C5    C21   1.415143 A    
C24   Br6   1.926293 S    
C59   C63   1.400837 A    
O5    C3    1.292523 A    
C29   C32   1.419041 A    
C23   Br5   1.926288 S    
C35   C37   1.392984 A    
C36   C38   1.392993 A    
C2    C52   1.472023 S    
N4    N6    1.330164 A    
O8    Cu2   1.948070 S    
N11   C66   1.362098 A    
C11   C27   1.406161 A    
Cu1   N8    1.999735 S    
C29   C33   1.418265 A    
C62   H20   1.082871 S    
C36   Br8   1.928044 S    
C14   H2    1.082505 S    
C15   H3    1.082860 S    
C63   C66   1.509138 S    
C9    C17   1.399389 A    
C5    N1    1.368162 A    
C10   C18   1.399426 A    
C41   C51   1.400055 A    
C56   Br2   1.915852 S    
C47   C50   1.421309 A    
C46   C50   1.421301 A    
C25   C38   1.399489 A    
C7    C25   1.399857 A    
C45   C49   1.421304 A    
O6    C4    1.291719 A    
C26   C37   1.399486 A    
C8    C26   1.399852 A    
C23   C39   1.393840 A    
O16   H24   0.988240 S    
C50   C53   1.466374 S    
C61   C63   1.400842 A    
C24   C40   1.393842 A    
C49   C54   1.466448 S    
C56   N8    1.381191 A    
C30   C31   1.419047 A    
N6    C54   1.356377 A    
C10   H7    1.082868 S    
C60   C64   1.400781 A    
N9    N12   1.337739 A    
C20   C26   1.408129 A    
O1    Cu1   1.942600 S    
C22   C24   1.417916 A    
C57   C61   1.410456 A    
C12   C28   1.406128 A    
C43   C52   1.400056 A    
N2    C18   1.433895 S    
C5    O9    1.346720 S    
C9    H8    1.082918 S    
O6    Cu2   1.948072 S    
C21   C23   1.417923 A    
C37   H9    1.083472 S    
C16   H4    1.082821 S    
C57   Br3   1.916057 S    
N2    C8    1.364829 A    
C48   C49   1.421315 A    
N4    C53   1.356359 A    
C64   C65   1.509140 S    
N3    C54   1.356378 A    
N10   C65   1.362096 A    
C14   C16   1.395103 A    
C7    O12   1.350004 S    
C44   C48   1.394033 A    
O15   H23   0.988239 S    
C6    C22   1.415145 A    
C16   C18   1.399798 A    
C38   H10   1.083466 S    
O4    C1    1.291943 A    
C60   H18   1.082868 S    
C14   C28   1.406160 A    
C19   C21   1.417687 A    
C3    C27   1.473242 S    
C20   C22   1.417672 A    
C11   H6    1.082896 S    
C9    C11   1.393896 A    
O4    Cu2   1.942600 S    
O2    Cu2   1.942600 S    
O7    C4    1.292505 A    
C44   C51   1.400066 A    
O8    C3    1.291692 A    
C55   C59   1.410448 A    
C13   H1    1.082530 S    
O5    Cu1   1.948075 S    
C40   H12   1.079567 S    
C6    O10   1.346713 S    
C55   Br1   1.916045 S    
N5    C53   1.356360 A    
C62   C64   1.400787 A    
C61   H19   1.082868 S    
C58   Br4   1.915880 S    
