data_mof_unit_62245.cif
_audit_creation_date              2012-12-10T19:19:53-0500
_audit_creation_method            fapswitch 2.2
_symmetry_space_group_name_H-M    P1
_symmetry_Int_Tables_number       1
_space_group_crystal_system       triclinic
_cell_length_a                    44.521299
_cell_length_b                    38.826055
_cell_length_c                    21.640737
_cell_angle_alpha                 90.000202
_cell_angle_beta                  60.814628
_cell_angle_gamma                 90.000187
_cell_volume                      32658.8258154

loop_
_atom_site_label
_atom_site_type_symbol
_atom_type_description
_atom_site_fract_x
_atom_site_fract_y
_atom_site_fract_z
_atom_type_partial_charge
C1    C     C_R   0.067245 0.500011 0.431129 1.011251
C2    C     C_R   0.622367 0.473810 0.915691 -0.087874
C3    C     C_R   0.567178 0.499263 0.932739 0.911391
C4    C     C_R   0.932821 0.999263 0.067261 0.911372
C5    C     C_R   0.067178 0.999263 0.932739 0.911378
C6    C     C_R   0.500000 0.566886 0.000000 0.837488
C7    C     C_R   0.000000 0.066886 0.000000 0.837471
C8    C     C_R   0.531296 0.622082 0.977744 -0.058331
C9    C     C_R   0.468704 0.622082 0.022258 -0.058329
C10   C     C_R   0.031298 0.122083 0.977716 -0.058350
C11   C     C_R   0.968701 0.122082 0.022286 -0.058340
C12   C     C_R   0.530951 0.658370 0.981296 -0.000509
C13   C     C_R   0.877631 0.973819 0.084296 -0.087863
C14   C     C_R   0.469049 0.658369 0.018705 -0.000509
C15   C     C_R   0.030954 0.158370 0.981267 -0.000508
C16   C     C_R   0.969045 0.158369 0.018736 -0.000509
C17   C     C_R   0.500000 0.676139 0.000001 -0.101488
C18   C     C_R   0.999999 0.176139 0.000002 -0.101479
C19   C     C_R   0.500000 0.604349 0.000000 -0.228805
C20   C     C_R   1.000000 0.104349 0.000001 -0.228797
C21   C     C_R   0.503180 0.731475 0.941151 -0.287392
C22   C     C_R   0.496819 0.731476 0.058851 -0.287396
C23   C     C_R   0.003156 0.231476 0.941171 -0.287392
C24   C     C_R   0.122367 0.973812 0.915696 -0.087868
C25   C     C_R   0.996841 0.231476 0.058833 -0.287394
C26   C     C_R   0.002059 0.499576 0.683713 -0.135407
C27   C     C_R   0.997941 0.499575 0.316286 -0.135405
C28   C     C_R   0.502061 0.999576 0.683712 -0.135406
C29   C     C_R   0.497941 0.999575 0.316285 -0.135391
C30   C     C_R   0.003080 0.267371 0.940111 -0.003717
C31   C     C_R   0.996918 0.267371 0.059892 -0.003715
C32   C     C_R   0.503104 0.767371 0.940091 -0.003728
C33   C     C_R   0.496895 0.767371 0.059910 -0.003724
C34   C     C_R   0.999999 0.285556 0.000001 0.143142
C35   C     C_R   0.341690 0.473618 0.120861 -0.206656
C36   C     C_R   0.500000 0.785556 0.000000 0.143137
C37   C     C_R   0.500000 0.713814 0.000001 0.058755
C38   C     C_R   0.999999 0.213814 0.000002 0.058753
C39   C     C_R   0.031407 0.341004 0.966164 0.555897
C40   C     C_R   0.968592 0.341004 0.033838 0.555897
C41   C     C_R   0.531408 0.841004 0.966201 0.555895
C42   C     C_R   0.468592 0.841004 0.033800 0.555892
C43   C     C_R   0.031158 0.376941 0.964917 -0.257708
C44   C     C_R   0.968841 0.376941 0.035084 -0.257707
C45   C     C_R   0.531160 0.876941 0.964953 -0.257697
C46   C     C_R   0.658310 0.473616 0.879137 -0.206655
C47   C     C_R   0.468840 0.876941 0.035047 -0.257696
C48   C     C_R   1.000000 0.395009 0.000000 -0.178752
C49   C     C_R   0.500000 0.895009 0.000000 -0.178758
C50   C     C_R   0.999999 0.323184 0.000001 -0.010275
C51   C     C_R   0.500000 0.823183 0.000000 -0.010279
C52   C     C_R   0.514621 0.377155 0.935763 -0.204143
C53   C     C_R   0.485379 0.377155 0.064236 -0.204143
C54   C     C_R   0.014622 0.877156 0.935762 -0.204149
C55   C     C_R   0.985379 0.877155 0.064236 -0.204147
C56   C     C_R   0.514964 0.341359 0.935763 -0.092951
C57   C     C_R   0.841688 0.973628 0.120848 -0.206659
C58   C     C_R   0.485036 0.341359 0.064236 -0.092950
C59   C     C_R   0.014966 0.841359 0.935762 -0.092951
C60   C     C_R   0.985036 0.841359 0.064235 -0.092954
C61   C     C_R   0.500000 0.323302 0.999999 0.217666
C62   C     C_R   0.000001 0.823302 0.999998 0.217664
C63   C     C_R   0.016518 0.471305 0.700744 -0.151488
C64   C     C_R   0.983482 0.471305 0.299255 -0.151491
C65   C     C_R   0.516511 0.971301 0.700753 -0.151467
C66   C     C_R   0.483488 0.971302 0.299248 -0.151493
C67   C     C_R   0.500000 0.395181 1.000000 -0.032346
C68   C     C_R   0.158310 0.973619 0.879144 -0.206657
C69   C     C_R   0.000000 0.895181 0.999999 -0.032345
C70   C     C_R   0.513624 0.267562 0.037482 0.482409
C71   C     C_R   0.486377 0.267562 0.962516 0.482410
C72   C     C_R   0.013623 0.767562 0.037483 0.482410
C73   C     C_R   0.986379 0.767562 0.962513 0.482411
C74   C     C_R   0.013984 0.731471 0.036025 -0.289117
C75   C     C_R   0.986018 0.731471 0.963971 -0.289116
C76   C     C_R   0.513984 0.231471 0.036023 -0.289116
C77   C     C_R   0.486016 0.231471 0.963975 -0.289115
C78   C     C_R   0.000001 0.713703 0.999998 0.026139
C79   C     C_R   0.323435 0.495847 0.177736 -0.124201
C80   C     C_R   0.500000 0.213704 0.999999 0.026133
C81   C     C_R   0.500000 0.285506 0.999999 -0.149320
C82   C     C_R   0.000001 0.785506 0.999998 -0.149318
C83   C     C_R   0.019710 0.658489 0.936784 -0.286110
C84   C     C_R   0.980291 0.658490 0.063213 -0.286109
C85   C     C_R   0.519714 0.158490 0.936787 -0.286116
C86   C     C_R   0.480286 0.158490 0.063212 -0.286112
C87   C     C_R   0.019449 0.622304 0.935620 0.461343
C88   C     C_R   0.980551 0.622304 0.064379 0.461343
C89   C     C_R   0.519454 0.122304 0.935622 0.461357
C90   C     C_R   0.676565 0.495846 0.822263 -0.124202
C91   C     C_R   0.480546 0.122305 0.064377 0.461347
C92   C     C_R   0.000000 0.604577 0.999999 -0.253335
C93   C     C_R   0.500000 0.104577 1.000000 -0.253343
C94   C     C_R   0.000001 0.676226 0.999999 0.043415
C95   C     C_R   0.500000 0.176227 0.999999 0.043412
C96   C     C_R   0.016127 0.470090 0.766222 -0.065476
C97   C     C_R   0.983873 0.470090 0.233777 -0.065476
C98   C     C_R   0.516120 0.970086 0.766231 -0.065499
C99   C     C_R   0.483878 0.970087 0.233770 -0.065490
C100  C     C_R   0.000255 0.497559 0.814662 -0.135908
C101  C     C_R   0.823434 0.995851 0.177735 -0.124209
C102  C     C_R   0.999745 0.497559 0.185338 -0.135908
C103  C     C_R   0.500255 0.997559 0.814662 -0.135882
C104  C     C_R   0.499745 0.997559 0.185337 -0.135898
C105  C     C_R   0.985988 0.524400 0.796003 0.023580
C106  C     C_R   0.014012 0.524400 0.203997 0.023581
C107  C     C_R   0.485997 0.024405 0.795994 0.023565
C108  C     C_R   0.514007 0.024404 0.204002 0.023578
C109  C     C_3   0.966268 0.557170 0.822798 -0.637754
C110  C     C_3   0.033732 0.557170 0.177202 -0.637750
C111  C     C_3   0.466286 0.057180 0.822782 -0.637824
C112  C     C_R   0.932755 0.500011 0.568871 1.011243
C113  C     C_R   0.176565 0.995845 0.822264 -0.124202
C114  C     C_3   0.533719 0.057178 0.177215 -0.637781
C115  C     C_3   0.393353 0.531189 0.246069 -0.179022
C116  C     C_3   0.606647 0.531191 0.753933 -0.179021
C117  C     C_3   0.893353 0.031164 0.246089 -0.179003
C118  C     C_3   0.106648 0.031177 0.753922 -0.178990
C119  C     C_2   0.214744 0.470838 0.398996 0.400966
C120  C     C_2   0.785256 0.470840 0.601001 0.400965
C121  C     C_2   0.714746 0.970798 0.398968 0.400962
C122  C     C_2   0.285256 0.970828 0.601010 0.400965
C123  C     C_3   0.179723 0.417133 0.290718 -0.300836
C124  C     C_R   0.340715 0.519415 0.198430 0.433890
C125  C     C_3   0.820277 0.417131 0.709272 -0.300837
C126  C     C_3   0.679728 0.917146 0.290624 -0.300836
C127  C     C_3   0.320278 0.917134 0.709299 -0.300835
C128  C     C_2   0.105169 0.452332 0.309120 0.458987
C129  C     C_2   0.894830 0.452329 0.690875 0.458998
C130  C     C_2   0.605170 0.952358 0.309078 0.458896
C131  C     C_2   0.394831 0.952338 0.690889 0.458994
C132  C     C_3   0.106723 0.580556 0.416970 -0.141449
C133  C     C_3   0.893277 0.580556 0.583041 -0.141450
C134  C     C_3   0.606718 0.080546 0.417098 -0.141418
C135  C     C_R   0.659285 0.519415 0.801571 0.433889
C136  C     C_3   0.393278 0.080553 0.583010 -0.141436
C137  C     C_2   0.179307 0.546464 0.395446 0.440835
C138  C     C_2   0.820693 0.546466 0.604561 0.440838
C139  C     C_2   0.679302 0.046435 0.395525 0.440816
C140  C     C_2   0.320693 0.046457 0.604543 0.440835
C141  C     C_2   0.564120 0.602238 0.948274 0.534301
C142  C     C_2   0.435880 0.602237 0.051727 0.534299
C143  C     C_2   0.064123 0.102238 0.948221 0.534320
C144  C     C_2   0.935877 0.102237 0.051781 0.534314
C145  C     C_2   0.030865 0.439804 0.784086 0.458038
C146  C     C_R   0.840714 0.019411 0.198442 0.433899
C147  C     C_2   0.969135 0.439803 0.215913 0.458038
C148  C     C_2   0.530849 0.939796 0.784103 0.458037
C149  C     C_2   0.469146 0.939798 0.215901 0.458033
C150  C     C_2   0.562305 0.678260 0.967344 0.481642
C151  C     C_2   0.437694 0.678260 0.032658 0.481642
C152  C     C_2   0.062313 0.178261 0.967281 0.481630
C153  C     C_2   0.937685 0.178259 0.032723 0.481629
C154  C     C_2   0.006119 0.284108 0.875302 0.409753
C155  C     C_2   0.993879 0.284108 0.124700 0.409754
C156  C     C_2   0.506168 0.784107 0.875261 0.409762
C157  C     C_R   0.159286 0.019411 0.801565 0.433887
C158  C     C_2   0.493831 0.784108 0.124740 0.409761
C159  C     C_3   0.080255 0.325010 0.967205 -0.275690
C160  C     C_3   0.919744 0.325010 0.032797 -0.275692
C161  C     C_3   0.580235 0.825008 0.967326 -0.275697
C162  C     C_3   0.419765 0.825007 0.032674 -0.275694
C163  C     C_3   0.516640 0.275601 0.139882 -0.306873
C164  C     C_3   0.483361 0.275600 0.860115 -0.306876
C165  C     C_3   0.016636 0.775601 0.139887 -0.306872
C166  C     C_3   0.983367 0.775600 0.860108 -0.306879
C167  C     C_3   0.040235 0.618345 0.813807 -0.278275
C168  C     C_R   0.376788 0.519226 0.164109 0.415882
C169  C     C_3   0.959766 0.618346 0.186191 -0.278272
C170  C     C_3   0.540255 0.118348 0.813803 -0.278340
C171  C     C_3   0.459749 0.118348 0.186195 -0.278285
C172  C     C_3   0.913291 0.533065 0.789434 -0.239981
C173  C     C_3   0.086710 0.533066 0.210564 -0.239974
C174  C     C_3   0.413304 0.033091 0.789417 -0.239977
C175  C     C_3   0.586705 0.033090 0.210559 -0.239931
C176  C     C_2   0.990125 0.589656 0.706649 0.405835
C177  C     C_2   0.009875 0.589656 0.293352 0.405830
C178  C     C_2   0.490155 0.089661 0.706626 0.405887
C179  C     C_R   0.623212 0.519227 0.835892 0.415882
C180  C     C_2   0.509854 0.089658 0.293374 0.405843
C181  C     C_2   0.396089 0.447841 0.027585 0.466275
C182  C     C_2   0.603911 0.447840 0.972412 0.466271
C183  C     C_2   0.896085 0.947854 0.027563 0.466284
C184  C     C_2   0.103911 0.947844 0.972423 0.466275
C185  C     C_3   0.317545 0.572912 0.225679 -0.209374
C186  C     C_3   0.682456 0.572912 0.774326 -0.209371
C187  C     C_3   0.817548 0.072909 0.225723 -0.209378
C188  C     C_3   0.182456 0.072907 0.774305 -0.209366
C189  C     C_R   0.876788 0.019221 0.164122 0.415873
C190  C     C_R   0.123213 0.019222 0.835885 0.415868
C191  C     C_R   0.395259 0.497384 0.105329 -0.309021
C192  C     C_R   0.567245 0.000011 0.431132 1.011328
C193  C     C_R   0.604740 0.497384 0.894671 -0.309020
C194  C     C_R   0.895259 0.997384 0.105330 -0.309037
C195  C     C_R   0.104741 0.997382 0.894671 -0.309029
C196  C     C_R   0.267644 0.503251 0.181258 -0.220109
C197  C     C_R   0.732356 0.503248 0.818743 -0.220111
C198  C     C_R   0.767643 0.003277 0.181271 -0.220092
C199  C     C_R   0.232356 0.003253 0.818741 -0.220109
C200  C     C_R   0.231998 0.503044 0.218121 -0.099445
C201  C     C_R   0.768002 0.503042 0.781880 -0.099446
C202  C     C_R   0.731996 0.003069 0.218135 -0.099448
C203  C     C_R   0.432755 0.000011 0.568870 1.011253
C204  C     C_R   0.268002 0.003046 0.781878 -0.099445
C205  C     C_R   0.214429 0.493262 0.289471 0.065414
C206  C     C_R   0.785571 0.493261 0.710529 0.065413
C207  C     C_R   0.714429 0.993266 0.289473 0.065415
C208  C     C_R   0.285571 0.993260 0.710530 0.065411
C209  C     C_R   0.000550 0.499951 0.619545 0.953602
C210  C     C_R   0.999450 0.499951 0.380455 0.953605
C211  C     C_R   0.500550 0.999951 0.619545 0.953632
C212  C     C_R   0.499450 0.999951 0.380455 0.953662
C213  C     C_R   0.232774 0.482832 0.324324 -0.071654
C214  C     C_3   0.968533 0.559459 0.748861 0.478598
C215  C     C_R   0.767226 0.482834 0.675675 -0.071653
C216  C     C_R   0.732775 0.982816 0.324311 -0.071648
C217  C     C_R   0.267226 0.982827 0.675680 -0.071652
C218  C     C_R   0.268773 0.483800 0.286724 -0.075532
C219  C     C_R   0.731227 0.483801 0.713275 -0.075531
C220  C     C_R   0.768773 0.983785 0.286710 -0.075553
C221  C     C_R   0.231227 0.983794 0.713280 -0.075532
C222  C     C_R   0.285998 0.494158 0.215797 0.124314
C223  C     C_R   0.714001 0.494158 0.784203 0.124312
C224  C     C_R   0.785998 0.994164 0.215796 0.124336
C225  C     C_3   0.031467 0.559459 0.251140 0.478594
C226  C     C_R   0.214002 0.994157 0.784204 0.124313
C227  C     C_R   0.158460 0.471536 0.308531 0.478105
C228  C     C_R   0.841540 0.471535 0.691466 0.478106
C229  C     C_R   0.658461 0.971549 0.308507 0.478099
C230  C     C_R   0.341540 0.971538 0.691474 0.478109
C231  C     C_R   0.122714 0.474659 0.337832 -0.195269
C232  C     C_R   0.877286 0.474658 0.662165 -0.195272
C233  C     C_R   0.622714 0.974672 0.337813 -0.195247
C234  C     C_R   0.377286 0.974661 0.662172 -0.195265
C235  C     C_R   0.105010 0.499953 0.390481 -0.282426
C236  C     C_3   0.468553 0.059470 0.748843 0.478643
C237  C     C_R   0.894990 0.499953 0.609519 -0.282430
C238  C     C_R   0.605009 0.999953 0.390491 -0.282398
C239  C     C_R   0.394990 0.999953 0.609518 -0.282432
C240  C     C_R   0.123545 0.524614 0.406542 0.484620
C241  C     C_R   0.876455 0.524615 0.593462 0.484624
C242  C     C_R   0.623542 0.024601 0.406586 0.484578
C243  C     C_R   0.376455 0.024611 0.593452 0.484613
C244  C     C_R   0.159546 0.521838 0.375999 -0.182305
C245  C     C_R   0.840453 0.521838 0.624004 -0.182305
C246  C     C_R   0.659543 0.021825 0.376042 -0.182292
C247  C     C_3   0.531454 0.059466 0.251152 0.478593
C248  C     C_R   0.340454 0.021834 0.623995 -0.182304
C249  C     C_R   0.176745 0.495348 0.326489 -0.199663
C250  C     C_R   0.823254 0.495348 0.673512 -0.199663
C251  C     C_R   0.676745 0.995349 0.326494 -0.199657
C252  C     C_R   0.323255 0.995347 0.673512 -0.199664
C253  C     C_R   1.000000 0.432651 0.000000 0.882233
C254  C     C_R   0.500000 0.932651 0.000000 0.882222
C255  C     C_R   0.988031 0.526052 0.732111 0.096368
C256  C     C_R   0.011970 0.526052 0.267888 0.096376
C257  C     C_R   0.488041 0.026057 0.732102 0.096323
C258  C     C_R   0.377633 0.473811 0.084308 -0.087874
C259  C     C_R   0.511965 0.026054 0.267893 0.096394
C260  C     C_R   0.000001 0.499260 0.880210 0.878564
C261  C     C_R   0.999999 0.499260 0.119790 0.878565
C262  C     C_R   0.500001 0.999260 0.880210 0.878557
C263  C     C_R   0.499999 0.999261 0.119790 0.878557
C264  C     C_R   0.000000 0.567065 1.000000 0.994911
C265  C     C_R   0.500000 0.067065 1.000000 0.994894
C266  C     C_R   0.500000 0.432692 1.000000 0.830941
C267  C     C_R   0.000000 0.932692 1.000000 0.830945
C268  C     C_R   0.432821 0.499263 0.067261 0.911391
H1    H     H_    0.027840 0.450304 0.663406 0.202997
H2    H     H_    0.782041 0.510983 0.808649 0.155301
H3    H     H_    0.293479 0.050677 0.639910 0.066606
H4    H     H_    0.564672 0.576853 0.968606 0.052851
H5    H     H_    0.435328 0.576852 0.031395 0.052852
H6    H     H_    0.064679 0.076854 0.968551 0.052831
H7    H     H_    0.935321 0.076852 0.031450 0.052827
H8    H     H_    0.028382 0.437196 0.836253 0.063114
H9    H     H_    0.971618 0.437196 0.163747 0.063115
H10   H     H_    0.528368 0.937190 0.836269 0.063109
H11   H     H_    0.471628 0.937192 0.163735 0.063116
H12   H     H_    0.567025 0.703484 0.942752 0.074083
H13   H     H_    0.717956 0.011027 0.191379 0.155296
H14   H     H_    0.432974 0.703484 0.057250 0.074081
H15   H     H_    0.067028 0.203484 0.942688 0.074085
H16   H     H_    0.932970 0.203483 0.057317 0.074083
H17   H     H_    0.009831 0.268225 0.830824 0.077049
H18   H     H_    0.990168 0.268226 0.169180 0.077049
H19   H     H_    0.509899 0.768225 0.830769 0.077051
H20   H     H_    0.490101 0.768226 0.169232 0.077050
H21   H     H_    0.064842 0.314659 0.021836 0.180597
H22   H     H_    0.088674 0.351820 0.968706 0.163100
H23   H     H_    0.103729 0.308919 0.939652 0.201715
H24   H     H_    0.282041 0.010991 0.808644 0.155302
H25   H     H_    0.935157 0.314657 0.978167 0.180597
H26   H     H_    0.911326 0.351819 0.031293 0.163100
H27   H     H_    0.896270 0.308920 0.060350 0.201714
H28   H     H_    0.564806 0.814653 0.021949 0.180601
H29   H     H_    0.588648 0.851818 0.968851 0.163096
H30   H     H_    0.603711 0.808919 0.939799 0.201715
H31   H     H_    0.435194 0.814650 0.978052 0.180601
H32   H     H_    0.411353 0.851816 0.031146 0.163098
H33   H     H_    0.396288 0.808918 0.060202 0.201715
H34   H     H_    0.529915 0.251946 0.142779 0.170492
H35   H     H_    0.283588 0.476379 0.312158 0.185665
H36   H     H_    0.488210 0.271801 0.168141 0.142785
H37   H     H_    0.522293 0.296254 0.168140 0.203100
H38   H     H_    0.470086 0.251945 0.857218 0.170493
H39   H     H_    0.511791 0.271801 0.831857 0.142783
H40   H     H_    0.477708 0.296253 0.831857 0.203101
H41   H     H_    0.029911 0.751946 0.142786 0.170493
H42   H     H_    0.988207 0.771801 0.168143 0.142787
H43   H     H_    0.022288 0.796253 0.168147 0.203101
H44   H     H_    0.970093 0.751945 0.857209 0.170494
H45   H     H_    0.011796 0.771801 0.831853 0.142789
H46   H     H_    0.716412 0.476382 0.687841 0.185665
H47   H     H_    0.977715 0.796253 0.831849 0.203101
H48   H     H_    0.060804 0.638165 0.791207 0.178621
H49   H     H_    0.015003 0.629415 0.824890 0.129826
H50   H     H_    0.046913 0.598086 0.772995 0.218018
H51   H     H_    0.939197 0.638166 0.208791 0.178621
H52   H     H_    0.984999 0.629416 0.175107 0.129826
H53   H     H_    0.953088 0.598087 0.227004 0.218020
H54   H     H_    0.560826 0.138166 0.791215 0.178624
H55   H     H_    0.515026 0.129421 0.824871 0.129825
H56   H     H_    0.546937 0.098090 0.772987 0.217988
H57   H     H_    0.783589 0.976349 0.312133 0.185652
H58   H     H_    0.439178 0.138167 0.208786 0.178620
H59   H     H_    0.484979 0.129419 0.175123 0.129828
H60   H     H_    0.453067 0.098089 0.227010 0.218018
H61   H     H_    0.897580 0.543004 0.844099 0.158709
H62   H     H_    0.925259 0.508032 0.789723 0.188782
H63   H     H_    0.895332 0.527932 0.768681 0.197609
H64   H     H_    0.102420 0.543006 0.155900 0.158707
H65   H     H_    0.074743 0.508033 0.210273 0.188781
H66   H     H_    0.104669 0.527932 0.231317 0.197610
H67   H     H_    0.397596 0.043030 0.844081 0.158711
H68   H     H_    0.216412 0.976371 0.687848 0.185664
H69   H     H_    0.425266 0.008054 0.789705 0.188779
H70   H     H_    0.395345 0.027965 0.768662 0.197593
H71   H     H_    0.602413 0.043039 0.155902 0.158695
H72   H     H_    0.574745 0.008055 0.210251 0.188770
H73   H     H_    0.604665 0.027958 0.231310 0.197617
H74   H     H_    0.979889 0.615514 0.721707 0.050695
H75   H     H_    0.020112 0.615513 0.278299 0.050701
H76   H     H_    0.479938 0.115522 0.721707 0.050642
H77   H     H_    0.520085 0.115518 0.278329 0.050697
H78   H     H_    0.423174 0.442625 0.007702 0.074276
H79   H     H_    0.505564 0.716982 0.896122 0.149363
H80   H     H_    0.576826 0.442624 0.992295 0.074275
H81   H     H_    0.923169 0.942632 0.007684 0.074281
H82   H     H_    0.076826 0.942627 0.992305 0.074279
H83   H     H_    0.302620 0.568634 0.197426 0.143225
H84   H     H_    0.342571 0.585484 0.189886 0.223360
H85   H     H_    0.302553 0.590905 0.270037 0.192111
H86   H     H_    0.697380 0.568633 0.802580 0.143223
H87   H     H_    0.657430 0.585485 0.810120 0.223358
H88   H     H_    0.697448 0.590906 0.729970 0.192112
H89   H     H_    0.802625 0.068642 0.197464 0.143223
H90   H     H_    0.494436 0.716983 0.103880 0.149363
H91   H     H_    0.842575 0.085483 0.189940 0.223368
H92   H     H_    0.802556 0.090897 0.270092 0.192106
H93   H     H_    0.197381 0.068632 0.802558 0.143219
H94   H     H_    0.157431 0.085481 0.810097 0.223354
H95   H     H_    0.197448 0.090899 0.729944 0.192115
H96   H     H_    0.005522 0.216982 0.896156 0.149364
H97   H     H_    0.972160 0.450303 0.336593 0.202996
H98   H     H_    0.994475 0.216983 0.103848 0.149364
H99   H     H_    0.055346 0.390587 0.936411 0.185069
H100  H     H_    0.944653 0.390587 0.063590 0.185069
H101  H     H_    0.555349 0.890587 0.936476 0.185073
H102  H     H_    0.444650 0.890587 0.063525 0.185074
H103  H     H_    0.526273 0.390739 0.885683 0.155418
H104  H     H_    0.473727 0.390739 0.114317 0.155419
H105  H     H_    0.026276 0.890740 0.885682 0.155418
H106  H     H_    0.973725 0.890739 0.114316 0.155418
H107  H     H_    0.527023 0.327738 0.885744 0.139441
H108  H     H_    0.527827 0.950296 0.663421 0.203005
H109  H     H_    0.472977 0.327738 0.114254 0.139442
H110  H     H_    0.027026 0.827738 0.885743 0.139444
H111  H     H_    0.972976 0.827737 0.114254 0.139444
H112  H     H_    0.025674 0.717107 0.061685 0.162060
H113  H     H_    0.974328 0.717107 0.938311 0.162060
H114  H     H_    0.525676 0.217107 0.061682 0.162062
H115  H     H_    0.474325 0.217107 0.938317 0.162062
H116  H     H_    0.035369 0.673096 0.889083 0.157245
H117  H     H_    0.964632 0.673097 0.110914 0.157245
H118  H     H_    0.535376 0.173097 0.889088 0.157242
H119  H     H_    0.472170 0.950298 0.336582 0.202999
H120  H     H_    0.464624 0.173097 0.110911 0.157245
H121  H     H_    0.940385 0.552748 0.868706 0.219864
H122  H     H_    0.059615 0.552749 0.131294 0.219862
H123  H     H_    0.440402 0.052766 0.868690 0.219880
H124  H     H_    0.559602 0.052764 0.131304 0.219859
H125  H     H_    0.981496 0.576855 0.832769 0.186219
H126  H     H_    0.018504 0.576855 0.167232 0.186219
H127  H     H_    0.481520 0.076860 0.832749 0.186221
H128  H     H_    0.518484 0.076859 0.167252 0.186231
H129  H     H_    0.327633 0.455466 0.106451 0.213915
H130  H     H_    0.280962 0.511248 0.126322 0.156571
H131  H     H_    0.672366 0.455464 0.893546 0.213915
H132  H     H_    0.827630 0.955482 0.106429 0.213915
H133  H     H_    0.172366 0.955469 0.893557 0.213915
H134  H     H_    0.402295 0.504040 0.241575 0.137611
H135  H     H_    0.367242 0.533980 0.292496 0.194467
H136  H     H_    0.411069 0.547475 0.255880 0.181807
H137  H     H_    0.597704 0.504043 0.758426 0.137611
H138  H     H_    0.632758 0.533982 0.707507 0.194466
H139  H     H_    0.588931 0.547477 0.744123 0.181808
H140  H     H_    0.902294 0.004014 0.241579 0.137602
H141  H     H_    0.719038 0.511245 0.873679 0.156571
H142  H     H_    0.867242 0.033953 0.292517 0.194462
H143  H     H_    0.911070 0.047444 0.255910 0.181804
H144  H     H_    0.097705 0.004028 0.758424 0.137601
H145  H     H_    0.132759 0.033966 0.707495 0.194462
H146  H     H_    0.088932 0.047461 0.744106 0.181807
H147  H     H_    0.186948 0.468437 0.427601 0.084381
H148  H     H_    0.813052 0.468440 0.572397 0.084380
H149  H     H_    0.686950 0.968396 0.427571 0.084385
H150  H     H_    0.313052 0.968427 0.572406 0.084380
H151  H     H_    0.192280 0.396733 0.250221 0.206101
H152  H     H_    0.780959 0.011291 0.126345 0.156563
H153  H     H_    0.154331 0.407019 0.331615 0.144282
H154  H     H_    0.196408 0.422176 0.314683 0.171675
H155  H     H_    0.807720 0.396731 0.749767 0.206102
H156  H     H_    0.845669 0.407019 0.668374 0.144282
H157  H     H_    0.803592 0.422177 0.685309 0.171674
H158  H     H_    0.692286 0.896757 0.250101 0.206098
H159  H     H_    0.654337 0.907025 0.331510 0.144280
H160  H     H_    0.696414 0.922176 0.314592 0.171676
H161  H     H_    0.307721 0.896736 0.749801 0.206101
H162  H     H_    0.345670 0.907020 0.668405 0.144281
H163  H     H_    0.219038 0.011254 0.873674 0.156570
H164  H     H_    0.303592 0.922175 0.685334 0.171674
H165  H     H_    0.116087 0.427596 0.285626 0.104763
H166  H     H_    0.883913 0.427593 0.714365 0.104760
H167  H     H_    0.616093 0.927630 0.285544 0.104786
H168  H     H_    0.383914 0.927603 0.714388 0.104761
H169  H     H_    0.090169 0.600367 0.455482 0.193108
H170  H     H_    0.096435 0.575709 0.380051 0.144297
H171  H     H_    0.133123 0.591371 0.387060 0.144775
H172  H     H_    0.909830 0.600368 0.544532 0.193106
H173  H     H_    0.903566 0.575708 0.619958 0.144300
H174  H     H_    0.217959 0.510986 0.191353 0.155301
H175  H     H_    0.866877 0.591371 0.612954 0.144775
H176  H     H_    0.596437 0.075721 0.380159 0.144249
H177  H     H_    0.633118 0.091367 0.387217 0.144778
H178  H     H_    0.590159 0.100344 0.455639 0.193146
H179  H     H_    0.403565 0.075710 0.619930 0.144285
H180  H     H_    0.366877 0.091369 0.612916 0.144773
H181  H     H_    0.409831 0.100362 0.544493 0.193118
H182  H     H_    0.206521 0.550683 0.360078 0.066605
H183  H     H_    0.793478 0.550685 0.639930 0.066604
H184  H     H_    0.706516 0.050662 0.360162 0.066611
O1    O     O_R   0.050900 0.528720 0.449120 -0.600504
O2    O     O_R   0.550940 0.499970 0.000810 -0.637369
O3    O     O_3   0.460966 0.103153 0.125718 -0.588609
O4    O     O_3   0.937197 0.558306 0.745875 -0.625339
O5    O     O_3   0.062803 0.558306 0.254125 -0.625340
O6    O     O_3   0.437217 0.058328 0.745859 -0.625301
O7    O     O_3   0.562790 0.058321 0.254136 -0.625312
O8    O     O_2   0.018857 0.585678 0.656089 -0.563959
O9    O     O_2   0.981142 0.585677 0.343908 -0.563958
O10   O     O_2   0.518872 0.085673 0.656031 -0.563952
O11   O     O_2   0.481122 0.085671 0.343928 -0.563955
O12   O     O_2   0.381028 0.431428 0.002862 -0.557936
O13   O     O_R   0.949060 0.999970 0.999190 -0.637370
O14   O     O_2   0.618971 0.431426 0.997134 -0.557936
O15   O     O_2   0.881024 0.931452 0.002825 -0.557937
O16   O     O_2   0.118971 0.931434 0.997151 -0.557936
O17   O     O_3   0.322311 0.541933 0.253773 -0.614448
O18   O     O_3   0.677689 0.541935 0.746230 -0.614448
O19   O     O_3   0.822312 0.041924 0.253799 -0.614444
O20   O     O_3   0.177689 0.041927 0.746217 -0.614444
O21   O     O_R   0.050940 0.999970 0.000810 -0.637368
O22   O     O_R   0.500010 0.550820 0.051820 -0.605993
O23   O     O_R   0.499990 0.550820 0.948180 -0.605992
O24   O     O_R   0.000010 0.050820 0.051820 -0.605980
O25   O     O_R   0.999990 0.050820 0.948180 -0.605983
O26   O     O_R   0.050870 0.471230 0.449150 -0.611094
O27   O     O_R   0.949130 0.471230 0.550850 -0.611095
O28   O     O_R   0.550870 0.971230 0.449150 -0.611096
O29   O     O_R   0.949100 0.528720 0.550880 -0.600502
O30   O     O_R   0.449130 0.971230 0.550850 -0.611102
O31   O     O_R   0.000000 0.528720 0.591610 -0.581392
O32   O     O_R   0.000000 0.528720 0.408390 -0.581396
O33   O     O_R   0.500000 0.028720 0.591610 -0.581353
O34   O     O_R   0.500000 0.028720 0.408390 -0.581399
O35   O     O_R   0.999960 0.471230 0.591650 -0.617450
O36   O     O_R   0.000040 0.471230 0.408350 -0.617449
O37   O     O_R   0.499960 0.971230 0.591650 -0.617464
O38   O     O_R   0.500040 0.971230 0.408350 -0.617457
O39   O     O_R   0.971240 0.449020 0.028740 -0.633885
O40   O     O_R   0.550900 0.028720 0.449120 -0.600539
O41   O     O_R   0.028760 0.449020 0.971260 -0.633884
O42   O     O_R   0.471240 0.949020 0.028740 -0.633882
O43   O     O_R   0.528760 0.949020 0.971260 -0.633880
O44   O     O_R   0.971230 0.499930 0.937140 -0.622519
O45   O     O_R   0.028770 0.499930 0.062860 -0.622519
O46   O     O_R   0.471230 0.999930 0.937140 -0.622524
O47   O     O_R   0.528770 0.999930 0.062860 -0.622527
O48   O     O_R   0.028710 0.499970 0.879680 -0.614304
O49   O     O_R   0.971290 0.499970 0.120320 -0.614305
O50   O     O_R   0.528710 0.999970 0.879680 -0.614293
O51   O     O_R   0.449100 0.028720 0.550880 -0.600510
O52   O     O_R   0.471290 0.999970 0.120320 -0.614297
O53   O     O_R   0.971230 0.550840 0.028760 -0.586628
O54   O     O_R   0.028770 0.550840 0.971240 -0.586629
O55   O     O_R   0.471230 0.050840 0.028760 -0.586619
O56   O     O_R   0.528770 0.050840 0.971240 -0.586622
O57   O     O_R   0.499940 0.449000 0.051660 -0.629887
O58   O     O_R   0.500060 0.449000 0.948340 -0.629886
O59   O     O_R   0.999940 0.949000 0.051660 -0.629888
O60   O     O_R   0.000060 0.949000 0.948340 -0.629887
O61   O     O_3   0.394161 0.542693 0.183411 -0.581897
O62   O     O_R   0.449070 0.499910 0.102620 -0.593027
O63   O     O_3   0.605840 0.542694 0.816591 -0.581898
O64   O     O_3   0.894161 0.042680 0.183438 -0.581884
O65   O     O_3   0.105840 0.042686 0.816577 -0.581886
O66   O     O_2   0.230758 0.463309 0.429565 -0.542101
O67   O     O_2   0.769242 0.463314 0.570432 -0.542102
O68   O     O_2   0.730761 0.963251 0.429525 -0.542100
O69   O     O_2   0.269242 0.963296 0.570443 -0.542100
O70   O     O_3   0.176132 0.446819 0.257275 -0.610959
O71   O     O_3   0.823868 0.446816 0.742719 -0.610959
O72   O     O_3   0.676134 0.946846 0.257219 -0.610963
O73   O     O_R   0.550930 0.499910 0.897380 -0.593029
O74   O     O_3   0.323869 0.946823 0.742736 -0.610958
O75   O     O_2   0.079377 0.461977 0.307868 -0.596865
O76   O     O_2   0.920622 0.461975 0.692131 -0.596864
O77   O     O_2   0.579372 0.962006 0.307855 -0.596888
O78   O     O_2   0.420623 0.961986 0.692138 -0.596882
O79   O     O_3   0.106062 0.550593 0.454721 -0.541958
O80   O     O_3   0.893938 0.550595 0.545287 -0.541957
O81   O     O_3   0.606056 0.050565 0.454803 -0.541982
O82   O     O_3   0.393939 0.050587 0.545267 -0.541958
O83   O     O_2   0.165679 0.561774 0.451891 -0.496966
O84   O     O_R   0.949070 0.999910 0.102620 -0.593007
O85   O     O_2   0.834321 0.561778 0.548119 -0.496965
O86   O     O_2   0.665673 0.061724 0.451995 -0.496971
O87   O     O_2   0.334321 0.061764 0.548095 -0.496965
O88   O     O_2   0.590549 0.613382 0.898744 -0.535809
O89   O     O_2   0.409451 0.613381 0.101258 -0.535813
O90   O     O_2   0.090546 0.113381 0.898674 -0.535787
O91   O     O_2   0.909453 0.113379 0.101329 -0.535809
O92   O     O_2   0.045867 0.417139 0.740663 -0.536501
O93   O     O_2   0.954133 0.417138 0.259335 -0.536501
O94   O     O_2   0.545843 0.917126 0.740689 -0.536479
O95   O     O_R   0.050930 0.999910 0.897380 -0.593022
O96   O     O_2   0.454150 0.917129 0.259317 -0.536488
O97   O     O_2   0.582302 0.667394 0.986184 -0.540490
O98   O     O_2   0.417698 0.667393 0.013817 -0.540489
O99   O     O_2   0.082320 0.167395 0.986096 -0.540497
O100  O     O_2   0.917678 0.167394 0.013909 -0.540497
O101  O     O_2   0.004292 0.315244 0.870237 -0.568450
O102  O     O_2   0.995707 0.315245 0.129766 -0.568450
O103  O     O_2   0.504342 0.815244 0.870191 -0.568428
O104  O     O_2   0.495657 0.815245 0.129809 -0.568433
O105  O     O_3   0.061965 0.323046 0.929411 -0.594623
O106  O     O_R   0.449060 0.499970 0.999190 -0.637370
O107  O     O_3   0.938034 0.323046 0.070591 -0.594623
O108  O     O_3   0.561969 0.823046 0.929484 -0.594627
O109  O     O_3   0.438031 0.823046 0.070517 -0.594628
O110  O     O_3   0.529429 0.285937 0.068853 -0.588143
O111  O     O_3   0.470571 0.285936 0.931145 -0.588142
O112  O     O_3   0.029427 0.785937 0.068857 -0.588144
O113  O     O_3   0.970575 0.785936 0.931139 -0.588147
O114  O     O_3   0.039026 0.603152 0.874278 -0.588615
O115  O     O_3   0.960974 0.603153 0.125721 -0.588615
O116  O     O_3   0.539034 0.103152 0.874282 -0.588601
Zn1   Zn    Zn3+2 1.000000 0.538360 0.500000 1.072095
Zn2   Zn    Zn3+2 0.500020 0.499890 0.930920 0.975187
Zn3   Zn    Zn3+2 0.999980 0.999890 0.069080 0.975198
Zn4   Zn    Zn3+2 0.000020 0.999890 0.930920 0.975194
Zn5   Zn    Zn3+2 0.500000 0.038360 0.500000 1.072103
Zn6   Zn    Zn3+2 1.000000 0.461590 0.500000 1.029500
Zn7   Zn    Zn3+2 0.500000 0.961590 0.500000 1.029492
Zn8   Zn    Zn3+2 0.961590 0.499920 0.038380 1.005610
Zn9   Zn    Zn3+2 0.038410 0.499920 0.961620 1.005611
Zn10  Zn    Zn3+2 0.461590 0.999920 0.038380 1.005621
Zn11  Zn    Zn3+2 0.538410 0.999920 0.961620 1.005619
Zn12  Zn    Zn3+2 0.499980 0.499890 0.069080 0.975187

loop_
_geom_bond_atom_site_label_1
_geom_bond_atom_site_label_2
_ccdc_geom_bond_type
C40   O107  S    
C245  C250  A    
O26   Zn6   S    
C21   C32   A    
C85   H118  S    
C24   C184  S    
O21   Zn3   S    
C136  O82   S    
C182  O14   D    
C54   C59   A    
O35   Zn6   S    
C130  O77   D    
C4    C194  S    
C96   C145  S    
C99   C149  S    
C79   C222  S    
C241  C245  A    
C254  O43   A    
C219  H46   S    
C56   H107  S    
C161  H30   S    
O1    Zn1   S    
C240  C244  A    
C33   C36   A    
C247  O7    S    
C139  H184  S    
C154  H17   S    
C60   C62   A    
C66   H119  S    
C185  H83   S    
C170  H54   S    
O47   Zn11  S    
C137  H182  S    
C137  O83   D    
C157  O20   S    
C112  O29   A    
C57   H132  S    
C124  C168  A    
C189  C194  A    
C9    C19   A    
C197  H141  S    
C204  C208  A    
C10   C20   A    
C201  H2    S    
C14   C151  S    
C267  O59   A    
C201  C206  A    
C227  O70   S    
C172  O4    S    
C177  H75   S    
C40   C44   A    
C122  H150  S    
C152  H15   S    
C39   O105  S    
C163  O110  S    
C6    O22   A    
C73   C75   A    
C111  H123  S    
C64   H97   S    
C187  H92   S    
C147  H9    S    
C185  O17   S    
C217  C221  A    
C11   C20   A    
C142  O89   D    
C12   C150  S    
C265  O56   A    
C203  O51   A    
C130  H167  S    
C54   H105  S    
C117  H142  S    
C210  O36   A    
C162  O109  S    
C209  O31   A    
O57   Zn12  S    
C174  H70   S    
O32   Zn1   S    
C63   C96   A    
C116  H139  S    
C68   H133  S    
O95   Zn4   S    
C163  H37   S    
C74   H112  S    
C121  C216  S    
C175  H71   S    
C176  O8    D    
C192  C238  S    
C114  C247  S    
C164  H40   S    
C165  H41   S    
C111  C236  S    
C155  O102  D    
C92   C264  S    
C241  O80   S    
C64   C97   A    
C13   C194  A    
C199  C204  A    
C167  H49   S    
C204  H24   S    
C135  O18   S    
C7    O24   A    
C183  O15   D    
C220  H57   S    
C23   C38   A    
C115  H135  S    
C84   H117  S    
C186  H88   S    
C33   C158  S    
C29   C212  S    
C109  H125  S    
C179  C193  A    
C208  C217  A    
C126  H159  S    
C266  O58   A    
C123  H154  S    
O23   Zn2   S    
C59   H110  S    
C84   C88   A    
C154  O101  D    
C77   H115  S    
C69   C267  S    
C39   C43   A    
C53   C58   A    
O55   Zn10  S    
C128  H165  S    
C130  C233  S    
C146  O19   S    
C53   H104  S    
C2    C193  A    
C185  H85   S    
C18   C38   S    
C90   C223  S    
C178  C236  S    
C126  O72   S    
C1    C235  S    
C5    O95   A    
C207  C216  A    
C229  O72   S    
C192  O40   A    
C153  O100  D    
C206  C250  S    
C86   C95   A    
C169  H51   S    
C42   O109  S    
C30   C154  S    
C188  H94   S    
C192  O28   A    
C243  C248  A    
C263  O47   A    
C41   C45   A    
C169  O115  S    
C171  H59   S    
C113  C157  A    
C48   C253  S    
C41   C51   A    
O52   Zn10  S    
C44   C48   A    
C72   O112  S    
C25   C31   A    
C15   C18   A    
C227  C231  A    
C168  O61   S    
C141  O88   D    
C228  O71   S    
C235  C240  A    
C148  O94   D    
O53   Zn8   S    
C28   C211  S    
C6    C19   S    
C164  H39   S    
C3    C193  S    
C43   H99   S    
C25   H98   S    
C35   H129  S    
C167  H48   S    
C32   C36   A    
O28   Zn7   S    
C78   C94   S    
C26   C255  A    
C112  O27   A    
O40   Zn5   S    
C13   C57   A    
C140  O87   D    
C165  H43   S    
C127  H164  S    
C166  H44   S    
C21   H79   S    
C141  H4    S    
C183  H81   S    
C88   O115  S    
C173  H65   S    
C211  O33   A    
C32   C156  S    
C134  O81   S    
C103  C262  S    
O30   Zn7   S    
C58   H109  S    
C198  C202  A    
C143  H6    S    
C230  C234  A    
C8    C141  S    
C27   C256  A    
O13   Zn4   S    
C203  C239  S    
C3    O73   A    
C227  C249  A    
C175  O7    S    
C97   C147  S    
C14   C17   A    
C268  O62   A    
C173  H64   S    
C23   H96   S    
O56   Zn11  S    
C177  O9    D    
C117  H140  S    
C150  H12   S    
C246  C251  A    
C188  O20   S    
C264  O53   A    
C8    C19   A    
C244  C249  A    
C30   C34   A    
C106  C256  A    
O58   Zn2   S    
C143  O90   D    
C109  C214  S    
C27   C64   A    
C136  H179  S    
C203  O30   A    
C55   H106  S    
C198  H152  S    
C158  H20   S    
C26   C63   A    
O25   Zn4   S    
C25   C38   A    
C151  O98   D    
C8    C12   A    
C116  H138  S    
C31   C34   A    
C111  H127  S    
C10   C143  S    
C55   C69   A    
C138  H183  S    
C80   C95   S    
O50   Zn11  S    
C166  O113  S    
C142  H5    S    
C229  C251  A    
C52   C67   A    
C190  C195  A    
C163  H36   S    
C101  C224  S    
C7    C20   S    
C202  C207  A    
C232  C237  A    
C161  H28   S    
O54   Zn9   S    
C71   C77   A    
C173  O5    S    
C209  O35   A    
C145  O92   D    
C105  C109  S    
C70   O110  S    
C171  O3    S    
O46   Zn10  S    
C140  C248  S    
C107  C111  S    
C262  O50   A    
C76   C80   A    
C214  O4    S    
C197  C223  A    
C127  O74   S    
C103  C107  A    
C213  C218  A    
C125  H157  S    
C79   C124  A    
C140  H3    S    
C237  C241  A    
C107  C257  A    
C261  O45   A    
C63   H1    S    
C159  H22   S    
C133  O80   S    
C61   C81   S    
C160  H25   S    
C49   C254  S    
C85   C95   A    
C58   C61   A    
O84   Zn3   S    
C96   C100  A    
C35   C79   A    
C148  H10   S    
C184  O16   D    
C149  H11   S    
C229  C233  A    
C170  H55   S    
C53   C67   A    
C199  C226  A    
C176  H74   S    
C177  C225  S    
C119  O66   D    
C248  C252  A    
C110  H126  S    
C125  H156  S    
C268  O106  A    
C117  O64   S    
C179  O63   S    
C108  C259  A    
C231  C235  A    
C87   C92   A    
C132  O79   S    
C207  C251  S    
C218  H35   S    
C156  H19   S    
C162  H31   S    
C71   C81   A    
C206  C215  A    
C83   C87   A    
C200  C205  A    
C122  C217  S    
C132  H169  S    
C212  O34   A    
O37   Zn7   S    
C133  H172  S    
C35   C258  A    
C220  C224  A    
C187  H91   S    
C120  C215  S    
C129  C232  S    
C242  C246  A    
C116  O63   S    
C44   H100  S    
C265  O55   A    
C65   C98   A    
C86   C91   A    
C106  C110  S    
C172  H61   S    
C118  H146  S    
C93   C265  S    
C98   C103  A    
C186  O18   S    
O31   Zn1   S    
C147  O93   D    
C52   H103  S    
C108  C114  S    
C181  H78   S    
C161  O108  S    
C165  O112  S    
C157  C190  A    
C189  O64   S    
O60   Zn4   S    
C163  H34   S    
C13   C183  S    
C12   C17   A    
O42   Zn10  S    
C146  C189  A    
O41   Zn9   S    
C46   H131  S    
C253  O39   A    
C97   C102  A    
C22   H90   S    
C196  C200  A    
C68   C113  A    
C134  H178  S    
C99   C104  A    
C62   C82   S    
C205  C213  A    
C136  H181  S    
C55   C60   A    
C153  H16   S    
C184  H82   S    
C123  O70   S    
C86   H120  S    
C164  O111  S    
O45   Zn9   S    
O38   Zn7   S    
C175  H73   S    
C138  O85   D    
C15   C152  S    
C228  C250  A    
C126  H160  S    
O62   Zn12  S    
C6    O23   A    
C254  O42   A    
C216  C220  A    
C145  H8    S    
C72   C74   A    
C151  H14   S    
C120  H148  S    
C67   C266  S    
C85   C89   A    
C181  C258  S    
C24   C195  A    
C22   C37   A    
C221  C226  A    
C27   C210  S    
C122  O69   D    
C225  O5    S    
C185  H84   S    
C123  H153  S    
C198  C224  A    
C9    C14   A    
C45   H101  S    
C91   C93   A    
C11   C16   A    
O59   Zn3   S    
C45   C49   A    
C83   H116  S    
C9    C142  S    
C158  O104  D    
C267  O60   A    
C236  C257  S    
C102  C261  S    
C253  O41   A    
C29   C259  A    
C155  H18   S    
C136  H180  S    
C119  H147  S    
C128  C231  S    
C144  H7    S    
C132  H171  S    
C176  C214  S    
C160  H27   S    
C180  O11   D    
C73   C82   A    
C104  C108  A    
O34   Zn5   S    
C57   C101  A    
C77   C80   A    
C5    O21   A    
C118  H145  S    
C117  H143  S    
C172  H63   S    
C31   C155  S    
C118  H144  S    
C46   C90   A    
C174  H69   S    
C73   O113  S    
O33   Zn5   S    
C242  O81   S    
C133  H173  S    
C11   C144  S    
C28   C65   A    
C91   O3    S    
C138  C245  S    
C175  H72   S    
C125  O71   S    
C144  O91   D    
C83   C94   A    
C113  C226  S    
C54   C69   A    
C98   C148  S    
C40   C50   A    
C165  H42   S    
C263  O52   A    
C41   O108  S    
C159  H23   S    
C205  C249  S    
C24   C68   A    
C219  C223  A    
C180  C247  S    
C134  H176  S    
C152  O99   D    
C21   C37   A    
C112  C237  S    
C74   C78   A    
C71   O111  S    
C149  O96   D    
C167  H50   S    
C56   C61   A    
C262  O46   A    
C170  O116  S    
C221  H68   S    
C115  H136  S    
C260  O48   A    
C186  H87   S    
C202  H13   S    
C60   H111  S    
C100  C260  S    
C196  H130  S    
C126  H158  S    
C266  O57   A    
C123  H151  S    
C191  C268  S    
C233  C238  A    
C120  O67   D    
C121  H149  S    
O24   Zn3   S    
C47   C49   A    
C2    C46   A    
O29   Zn1   S    
C264  O54   A    
C100  C105  A    
C168  C191  A    
C127  H162  S    
O48   Zn9   S    
C215  C219  A    
C10   C15   A    
C208  C252  S    
C4    O84   A    
C128  O75   D    
C90   C135  A    
C191  C258  A    
C166  H47   S    
C89   O116  S    
C228  C232  A    
C2    C182  S    
C70   C81   A    
C169  H52   S    
C150  O97   D    
C210  O32   A    
C1    O1    A    
C188  H93   S    
C88   C92   A    
C110  H122  S    
C212  O38   A    
C131  H168  S    
C197  C201  A    
C171  H60   S    
C104  C263  S    
C26   C209  S    
C129  H166  S    
C240  O79   S    
C42   C51   A    
C124  O17   S    
O36   Zn6   S    
C129  O76   D    
O106  Zn2   S    
C89   C93   A    
C137  C244  S    
C200  H174  S    
C118  O65   S    
C230  C252  A    
C178  O10   D    
C42   C47   A    
C65   H108  S    
C218  C222  A    
C187  O19   S    
C131  C234  S    
C174  H67   S    
C160  O107  S    
C101  C146  A    
C34   C50   S    
C133  H175  S    
C23   C30   A    
O51   Zn5   S    
O22   Zn12  S    
C247  C259  S    
O2    Zn12  S    
C114  H124  S    
C84   C94   A    
O73   Zn2   S    
C109  H121  S    
O43   Zn11  S    
C66   C99   A    
C47   H102  S    
C159  H21   S    
C173  H66   S    
O49   Zn8   S    
C160  H26   S    
O44   Zn8   S    
C76   H114  S    
C156  O103  D    
C178  H76   S    
C43   C48   A    
C39   C50   A    
C161  H29   S    
C260  O44   A    
C17   C37   S    
C170  H56   S    
C115  H134  S    
C180  H77   S    
C36   C51   S    
C190  O65   S    
C16   C18   A    
C125  H155  S    
C199  H163  S    
C119  C213  S    
C70   C76   A    
C7    O25   A    
C139  C246  S    
C174  O6    S    
C3    O2    A    
C162  H32   S    
C134  H177  S    
C159  O105  S    
C22   C33   A    
C59   C62   A    
C169  H53   S    
O27   Zn6   S    
C132  H170  S    
C214  C255  S    
C261  O49   A    
C110  C225  S    
C186  H86   S    
O39   Zn8   S    
C236  O6    S    
C182  H80   S    
C114  H128  S    
C139  O86   D    
C166  H45   S    
C238  C242  A    
C5    C195  S    
C87   O114  S    
C135  C179  A    
C121  O68   D    
C162  H33   S    
C172  H62   S    
C127  H161  S    
C188  H95   S    
C225  C256  S    
C243  O82   S    
C116  H137  S    
C102  C106  A    
C171  H58   S    
C234  C239  A    
C75   C78   A    
C72   C82   A    
C167  O114  S    
C29   C66   A    
C52   C56   A    
C181  O12   D    
C164  H38   S    
C131  O78   D    
C239  C243  A    
C28   C257  A    
C115  O61   S    
C16   C153  S    
C105  C255  A    
C230  O74   S    
C196  C222  A    
C4    O13   A    
C211  O37   A    
C1    O26   A    
C75   H113  S    
C187  H89   S    
