data_mof_unit_27626.cif
_audit_creation_date              2012-12-11T16:14:00-0500
_audit_creation_method            fapswitch 2.2
_symmetry_space_group_name_H-M    P1
_symmetry_Int_Tables_number       1
_space_group_crystal_system       triclinic
_cell_length_a                    26.199224
_cell_length_b                    7.273319
_cell_length_c                    23.755671
_cell_angle_alpha                 89.999975
_cell_angle_beta                  101.381352
_cell_angle_gamma                 90.000034
_cell_volume                      4437.75247592

loop_
_atom_site_label
_atom_site_type_symbol
_atom_type_description
_atom_site_fract_x
_atom_site_fract_y
_atom_site_fract_z
_atom_type_partial_charge
O1    O     O_R   0.192370 0.384760 0.193350 -0.534519
O2    O     O_R   0.807630 0.615240 0.806650 -0.527565
O3    O     O_R   0.307630 0.884760 0.306650 -0.534517
O4    O     O_R   0.692370 0.115240 0.693350 -0.527566
O5    O     O_R   0.296630 0.711620 0.196480 -0.505003
O6    O     O_R   0.703370 0.288380 0.803520 -0.529717
O7    O     O_R   0.203370 0.211620 0.303520 -0.505004
O8    O     O_R   0.796630 0.788380 0.696480 -0.529717
C1    C     C_R   0.311957 0.546187 0.183448 0.733715
C2    C     C_R   0.688631 0.454107 0.816950 0.697302
C3    C     C_R   0.188043 0.046187 0.316552 0.733715
C4    C     C_R   0.811369 0.954107 0.683050 0.697299
O9    O     O_R   0.192080 0.714290 0.186600 -0.534280
O10   O     O_R   0.807920 0.285710 0.813400 -0.538501
O11   O     O_R   0.307920 0.214290 0.313400 -0.534279
O12   O     O_R   0.692080 0.785710 0.686600 -0.538501
O13   O     O_R   0.202340 0.887460 0.296690 -0.547520
O14   O     O_R   0.797660 0.112540 0.703310 -0.534688
O15   O     O_R   0.297660 0.387460 0.203310 -0.547520
O16   O     O_R   0.702340 0.612540 0.796690 -0.534689
C5    C     C_R   0.173807 0.546008 0.171410 0.705450
C6    C     C_R   0.826180 0.453989 0.828604 0.696314
C7    C     C_R   0.326193 0.046008 0.328590 0.705450
C8    C     C_R   0.673820 0.953989 0.671396 0.696314
O17   O     O_3   0.253490 0.552180 0.286130 -0.370560
O18   O     O_3   0.746510 0.447820 0.713870 -0.370151
O19   O     O_3   0.246510 0.052180 0.213870 -0.370560
O20   O     O_3   0.753490 0.947820 0.786130 -0.370151
V1    V     V_3+5 0.249350 0.825920 0.243300 1.477353
V2    V     V_3+5 0.750650 0.174080 0.756700 1.463945
V3    V     V_3+5 0.250650 0.325920 0.256700 1.477352
V4    V     V_3+5 0.749350 0.674080 0.743300 1.463944
C9    C     C_3   0.539771 0.929060 0.477263 -0.284140
C10   C     C_3   0.460382 0.069988 0.522641 -0.277042
C11   C     C_3   0.960229 0.429061 0.022738 -0.284125
C12   C     C_3   0.039618 0.569986 0.977358 -0.277039
C13   C     C_3   0.510203 0.111526 0.458731 0.024485
C14   C     C_3   0.489931 0.887534 0.541125 0.063082
C15   C     C_3   0.989797 0.611527 0.041269 0.024484
C16   C     C_3   0.010068 0.387533 0.958875 0.063083
H1    H     H_    0.571629 0.868940 0.458531 0.141390
H2    H     H_    0.428542 0.130230 0.541379 0.140234
H3    H     H_    0.928370 0.368942 0.041469 0.141390
H4    H     H_    0.071458 0.630227 0.958620 0.140234
C17   C     C_1   0.371796 0.037350 0.374473 -0.168853
C18   C     C_1   0.628239 0.962607 0.625485 -0.165530
C19   C     C_1   0.128204 0.537350 0.125527 -0.168853
C20   C     C_1   0.871760 0.462607 0.874515 -0.165531
C21   C     C_3   0.486622 0.836852 0.477552 0.369248
C22   C     C_3   0.513482 0.162175 0.522252 0.378229
C23   C     C_3   0.013378 0.336852 0.022448 0.369249
C24   C     C_3   0.986519 0.662174 0.977748 0.378229
C25   C     C_3   0.457369 0.016472 0.458672 0.006672
C26   C     C_3   0.542716 0.982874 0.541211 0.046741
C27   C     C_3   0.042631 0.516472 0.041328 0.006662
C28   C     C_3   0.957284 0.482874 0.958789 0.046738
C29   C     C_1   0.410219 0.028878 0.412544 -0.014555
C30   C     C_1   0.589834 0.970913 0.587386 0.015950
C31   C     C_1   0.089781 0.528878 0.087456 -0.014567
C32   C     C_1   0.910165 0.470913 0.912614 0.015949
C33   C     C_R   0.884723 0.103284 0.647433 -0.188110
C34   C     C_R   0.121446 0.879742 0.360250 -0.246049
C35   C     C_R   0.615278 0.603289 0.852569 -0.188109
C36   C     C_R   0.378553 0.379741 0.139749 -0.246048
H5    H     H_    0.885868 0.208773 0.679855 0.152018
H6    H     H_    0.125229 0.762015 0.333458 0.156580
H7    H     H_    0.614134 0.708781 0.820148 0.152020
H8    H     H_    0.374769 0.262012 0.166540 0.156581
C37   C     C_R   0.921646 0.108885 0.612418 -0.204935
C38   C     C_R   0.085082 0.871270 0.395993 -0.210760
C39   C     C_R   0.578354 0.608889 0.887583 -0.204937
C40   C     C_R   0.414917 0.371268 0.104005 -0.210763
H9    H     H_    0.949691 0.220074 0.618541 0.173352
H10   H     H_    0.062185 0.747100 0.395458 0.179419
H11   H     H_    0.550311 0.720083 0.881461 0.173352
H12   H     H_    0.437812 0.247096 0.104539 0.179420
C41   C     C_R   0.923544 0.971544 0.571267 -0.069795
C42   C     C_R   0.078067 0.019563 0.431666 -0.036647
C43   C     C_R   0.576455 0.471542 0.928732 -0.069794
C44   C     C_R   0.421933 0.519562 0.068333 -0.036645
C45   C     C_R   0.886216 0.828377 0.564520 0.373842
C46   C     C_R   0.109644 0.177635 0.431812 0.290732
C47   C     C_R   0.613782 0.328370 0.935477 0.373840
C48   C     C_R   0.390356 0.677637 0.068188 0.290733
C49   C     C_R   0.847098 0.827027 0.598400 0.254002
C50   C     C_R   0.144547 0.190660 0.392832 0.257480
C51   C     C_R   0.652900 0.327021 0.901598 0.254001
C52   C     C_R   0.355454 0.690663 0.107168 0.257480
C53   C     C_R   0.847642 0.962027 0.641928 -0.162931
C54   C     C_R   0.151218 0.038833 0.357453 -0.102405
C55   C     C_R   0.652358 0.462027 0.858072 -0.162933
C56   C     C_R   0.348781 0.538833 0.142547 -0.102405
N1    N     N_R   0.978028 0.832352 0.507479 -0.197678
N2    N     N_R   0.024319 0.155928 0.496613 -0.194023
N3    N     N_R   0.521968 0.332348 0.992517 -0.197678
N4    N     N_R   0.475682 0.655931 0.003388 -0.194022
N5    N     N_R   0.014110 0.843857 0.475085 -0.281429
N6    N     N_R   0.988330 0.144455 0.529046 -0.282007
N7    N     N_R   0.485887 0.343853 0.024911 -0.281427
N8    N     N_R   0.511672 0.644458 0.970956 -0.282004
C57   C     C_R   0.038207 0.006079 0.468898 0.544496
C58   C     C_R   0.964176 0.982486 0.535124 0.547762
C59   C     C_R   0.461792 0.506078 0.031100 0.544493
C60   C     C_R   0.535823 0.482485 0.964875 0.547758
C61   C     C_3   0.520286 0.238955 0.411008 -0.345878
C62   C     C_3   0.574864 0.323590 0.425284 -0.274802
C63   C     C_3   0.584110 0.451918 0.377499 -0.760944
H13   H     H_    0.580451 0.375329 0.336441 0.235645
H14   H     H_    0.555538 0.566588 0.371851 0.225043
H15   H     H_    0.623928 0.510723 0.388848 0.226366
H16   H     H_    0.579636 0.403738 0.465772 0.236036
H17   H     H_    0.604623 0.212627 0.431104 0.196917
H18   H     H_    0.515856 0.158314 0.370602 0.170602
H19   H     H_    0.490429 0.349084 0.404624 0.199676
C64   C     C_3   0.479705 0.762660 0.589407 -0.346981
C65   C     C_3   0.425137 0.677811 0.575286 -0.290019
C66   C     C_3   0.416528 0.545997 0.622480 -0.759044
H20   H     H_    0.445039 0.431236 0.626829 0.239826
H21   H     H_    0.420820 0.619641 0.664116 0.235788
H22   H     H_    0.376646 0.487615 0.611390 0.222731
H23   H     H_    0.395375 0.788629 0.570579 0.198682
H24   H     H_    0.419830 0.600559 0.534230 0.230389
H25   H     H_    0.509753 0.653182 0.596898 0.204558
H26   H     H_    0.483792 0.845563 0.629342 0.173100
C67   C     C_3   0.979714 0.738958 0.088991 -0.345876
C68   C     C_3   0.925136 0.823593 0.074716 -0.274797
C69   C     C_3   0.915892 0.951925 0.122500 -0.760940
H27   H     H_    0.919551 0.875339 0.163559 0.235643
H28   H     H_    0.944464 0.066594 0.128147 0.225047
H29   H     H_    0.876074 0.010731 0.111151 0.226364
H30   H     H_    0.920365 0.903738 0.034228 0.236038
H31   H     H_    0.895378 0.712631 0.068897 0.196914
H32   H     H_    0.984145 0.658318 0.129398 0.170601
H33   H     H_    0.009572 0.849086 0.095375 0.199682
C70   C     C_3   0.020294 0.262658 0.910593 -0.346980
C71   C     C_3   0.074862 0.177810 0.924714 -0.290021
C72   C     C_3   0.083470 0.045994 0.877520 -0.759043
H34   H     H_    0.054960 0.931233 0.873171 0.239826
H35   H     H_    0.079179 0.119637 0.835884 0.235788
H36   H     H_    0.123353 0.987611 0.888609 0.222730
H37   H     H_    0.104624 0.288627 0.929420 0.198682
H38   H     H_    0.080170 0.100558 0.965770 0.230387
H39   H     H_    0.990246 0.153181 0.903102 0.204559
H40   H     H_    0.016207 0.345562 0.870658 0.173100
O21   O     O_3   0.528611 0.332737 0.546819 -0.652065
H41   H     H_    0.501720 0.419247 0.527419 0.319637
O22   O     O_3   0.471720 0.665521 0.453275 -0.667413
H42   H     H_    0.472327 0.678888 0.411894 0.277517
O23   O     O_3   0.971390 0.832736 0.953181 -0.652065
H43   H     H_    0.998281 0.919246 0.972580 0.319638
O24   O     O_3   0.028279 0.165520 0.046725 -0.667414
H44   H     H_    0.027681 0.178897 0.088109 0.277516
O25   O     O_3   0.887341 0.696701 0.522739 -0.618678
H45   H     H_    0.861431 0.599294 0.524876 0.340571
O26   O     O_3   0.106875 0.315109 0.471226 -0.624795
H46   H     H_    0.141165 0.376783 0.481345 0.303067
O27   O     O_3   0.612655 0.196689 0.977256 -0.618677
H47   H     H_    0.638563 0.099275 0.975117 0.340571
O28   O     O_3   0.393126 0.815113 0.028775 -0.624796
H48   H     H_    0.358838 0.876795 0.018658 0.303069
O29   O     O_3   0.808272 0.696072 0.586654 -0.647324
H49   H     H_    0.775505 0.750525 0.593848 0.291026
O30   O     O_3   0.172479 0.349695 0.389010 -0.639695
H50   H     H_    0.151580 0.456302 0.397236 0.290060
O31   O     O_3   0.691725 0.196062 0.913343 -0.647322
H51   H     H_    0.724493 0.250516 0.906152 0.291026
O32   O     O_3   0.327524 0.849700 0.110993 -0.639695
H52   H     H_    0.348423 0.956305 0.102768 0.290058

loop_
_geom_bond_atom_site_label_1
_geom_bond_atom_site_label_2
_ccdc_geom_bond_type
C67   H33   S    
O17   V3    S    
N7    C59   A    
O1    C5    A    
C68   C69   S    
C7    C17   S    
C27   C31   S    
C4    C53   S    
O19   V1    S    
O13   V1    S    
O3    C7    A    
O22   H42   S    
C10   H2    S    
N8    C60   A    
C44   C48   A    
O15   V3    S    
C21   O22   S    
C39   C43   A    
O21   H41   S    
O4    V2    S    
C70   C71   S    
C14   C21   S    
C62   H17   S    
O7    C3    A    
C72   H35   S    
C17   C29   T    
O5    C1    A    
O31   H51   S    
C65   H24   S    
C15   C67   S    
C36   H8    S    
C61   H18   S    
C51   C55   A    
C66   H21   S    
C26   C30   S    
O4    C8    A    
N3    N7    A    
C38   C42   A    
C62   C63   S    
N2    N6    A    
C9    C21   S    
C64   C65   S    
C34   C54   A    
O1    V3    S    
C45   O25   S    
C65   C66   S    
C34   C38   A    
O2    V4    S    
O3    V1    S    
C49   O29   S    
C71   H38   S    
C37   C41   A    
C1    O15   A    
O27   H47   S    
C15   C27   S    
C52   C56   A    
N2    C57   A    
C2    O16   A    
C24   O23   S    
C16   C28   S    
C14   C26   S    
O2    C6    A    
C63   H13   S    
C37   H9    S    
O14   V2    S    
C68   H31   S    
O8    C4    A    
C11   H3    S    
C12   C24   S    
C40   H12   S    
C13   C25   S    
O11   C7    A    
C15   C24   S    
C72   H34   S    
C23   O24   S    
O12   C8    A    
C18   C30   T    
C42   C57   S    
C63   H14   S    
C41   C58   S    
O10   V2    S    
C1    C56   S    
C16   C70   S    
C48   O28   S    
C33   C53   A    
C20   C32   T    
O5    V1    S    
C62   H16   S    
C72   H36   S    
C35   H7    S    
C10   C22   S    
C64   H25   S    
C65   H23   S    
C34   H6    S    
C44   C59   S    
O8    V4    S    
C61   H19   S    
C12   C16   S    
O7    V3    S    
C9    H1    S    
C50   C54   A    
C66   H22   S    
O32   H52   S    
C49   C53   A    
O18   V4    S    
C13   C61   S    
C46   C50   A    
C9    C13   S    
C28   C32   S    
N1    C58   A    
C11   C15   S    
C69   H28   S    
C38   H10   S    
C71   H37   S    
C42   C46   A    
O28   H48   S    
C47   O27   S    
C41   C45   A    
O24   H44   S    
C52   O32   S    
C67   H32   S    
O9    C5    A    
C22   C26   S    
C46   O26   S    
C22   O21   S    
C70   H40   S    
O6    V2    S    
C35   C39   A    
C6    C20   S    
C11   C23   S    
C67   C68   S    
C63   H15   S    
C43   C60   S    
C12   H4    S    
C36   C56   A    
C35   C55   A    
C69   H27   S    
N1    N5    A    
N3    C60   A    
O16   V4    S    
O9    V1    S    
C9    C26   S    
C3    O13   A    
C25   C29   S    
C64   H26   S    
C11   C28   S    
C10   C14   S    
C48   C52   A    
C71   C72   S    
C47   C51   A    
C2    C55   S    
O11   V3    S    
C14   C64   S    
O12   V4    S    
C16   C23   S    
C61   C62   S    
C33   C37   A    
O10   C6    A    
O20   V2    S    
C69   H29   S    
C8    C18   S    
C40   C44   A    
C12   C27   S    
N6    C58   A    
O23   H43   S    
C39   H11   S    
C13   C22   S    
C3    C54   S    
C51   O31   S    
O29   H49   S    
C68   H30   S    
C21   C25   S    
N4    N8    A    
C70   H39   S    
C23   C27   S    
C36   C40   A    
C45   C49   A    
O30   H50   S    
O6    C2    A    
C19   C31   T    
C43   C47   A    
C33   H5    S    
C10   C25   S    
N4    C59   A    
C4    O14   A    
O26   H46   S    
C50   O30   S    
O25   H45   S    
C66   H20   S    
N5    C57   A    
C24   C28   S    
C5    C19   S    
