data_mof_unit_55580.cif
_audit_creation_date              2012-12-10T20:32:40-0500
_audit_creation_method            fapswitch 2.2
_symmetry_space_group_name_H-M    P1
_symmetry_Int_Tables_number       1
_space_group_crystal_system       triclinic
_cell_length_a                    11.5195
_cell_length_b                    10.681139
_cell_length_c                    9.916497
_cell_angle_alpha                 89.068245
_cell_angle_beta                  88.98458
_cell_angle_gamma                 90.106672
_cell_volume                      1219.78374418

loop_
_atom_site_label
_atom_site_type_symbol
_atom_type_description
_atom_site_fract_x
_atom_site_fract_y
_atom_site_fract_z
_atom_type_partial_charge
C1    C     C_R   0.499312 0.260449 0.500715 0.905810
C2    C     C_R   0.501537 0.128584 0.498648 -0.123492
C3    C     C_R   0.442771 0.067705 0.396250 -0.294029
C4    C     C_R   0.444569 0.938038 0.390801 0.451456
C5    C     C_R   0.503095 0.871734 0.492999 -0.169113
C6    C     C_R   0.573419 0.934219 0.582776 0.028611
C7    C     C_3   0.581342 0.921336 0.732704 -0.521110
C8    C     C_3   0.578238 0.063440 0.735935 -0.158960
C9    C     C_R   0.398532 0.503471 0.073380 0.099449
C10   C     C_R   0.601551 0.509088 0.068651 0.487096
C11   C     C_R   0.600298 0.511705 0.924804 -0.204777
C12   C     C_R   0.282053 0.499716 0.500981 0.929584
C13   C     C_R   0.398135 0.503858 0.931693 0.180558
C14   C     C_3   0.296896 0.414395 0.932032 -0.084045
C15   C     C_3   0.299351 0.414308 0.086400 -0.627945
C16   C     C_R   0.498690 0.739618 0.498661 0.926303
C17   C     C_R   0.717946 0.499728 0.499139 0.891458
C18   C     C_1   0.161553 0.498920 0.502670 -0.120310
C19   C     C_1   0.059310 0.498432 0.502065 0.018806
C20   C     C_1   0.940665 0.498408 0.499936 -0.010524
C21   C     C_1   0.838436 0.498902 0.498224 -0.170181
C22   C     C_R   0.572792 0.062270 0.585532 0.004217
H1    H     H_    0.389813 0.120122 0.325885 0.166971
H2    H     H_    0.222539 0.458731 0.135430 0.216867
H3    H     H_    0.325219 0.323917 0.134446 0.200403
H4    H     H_    0.502894 0.877148 0.779927 0.217476
H5    H     H_    0.665032 0.878728 0.763557 0.197287
H6    H     H_    0.497896 0.100135 0.783991 0.192774
H7    H     H_    0.680863 0.522753 0.868330 0.181307
N1    N     N_R   0.499240 0.499140 0.142800 -0.139957
N2    N     N_R   0.499240 0.499180 0.857150 -0.144704
O1    O     O_R   0.500010 0.316790 0.614690 -0.592510
O2    O     O_R   0.500000 0.316760 0.385350 -0.639822
O3    O     O_R   0.334450 0.500030 0.614670 -0.567640
O4    O     O_R   0.334440 0.500000 0.385330 -0.620070
O5    O     O_R   0.500000 0.683240 0.614650 -0.618704
O6    O     O_R   0.499990 0.683210 0.385310 -0.588844
O7    O     O_R   0.665560 0.500000 0.614670 -0.622798
O8    O     O_R   0.665550 0.499970 0.385330 -0.567204
Zn1   Zn    Zn3+2 0.500010 0.500020 0.653130 0.998695
Zn2   Zn    Zn3+2 0.499990 0.499980 0.346870 0.988150
C23   C     C_2   0.327254 0.288706 0.873965 0.414363
H8    H     H_    0.398616 0.235908 0.916178 0.061068
O9    O     O_2   0.272970 0.245165 0.780922 -0.587119
O10   O     O_3   0.371767 0.876983 0.303597 -0.594836
C24   C     C_3   0.416600 0.888600 0.170411 0.092097
H9    H     H_    0.498534 0.834197 0.159949 0.163458
H10   H     H_    0.433675 0.987943 0.140165 0.125855
C25   C     C_3   0.328282 0.836305 0.073845 -0.740381
H11   H     H_    0.249256 0.895679 0.074208 0.253958
H12   H     H_    0.365694 0.834875 0.970010 0.201939
H13   H     H_    0.303436 0.739614 0.105131 0.266305
C26   C     C_2   0.688303 0.121739 0.783962 0.433277
H14   H     H_    0.771792 0.094154 0.741576 0.077563
O11   O     O_2   0.684363 0.200947 0.871090 -0.623269
O12   O     O_3   0.705120 0.529578 0.132822 -0.590125
C27   C     C_3   0.781322 0.427126 0.114005 0.119318
H15   H     H_    0.772005 0.379558 0.015779 0.169509
H16   H     H_    0.765729 0.356463 0.195877 0.169305
C28   C     C_3   0.906148 0.473262 0.120460 -0.834428
H17   H     H_    0.919925 0.523981 0.215527 0.272133
H18   H     H_    0.966727 0.392612 0.115894 0.205003
H19   H     H_    0.925412 0.537734 0.033905 0.258546
C29   C     C_2   0.185906 0.470830 0.878814 0.496181
H20   H     H_    0.106606 0.415770 0.882474 0.069125
O13   O     O_2   0.183218 0.577891 0.833742 -0.575384

loop_
_geom_bond_atom_site_label_1
_geom_bond_atom_site_label_2
_ccdc_geom_bond_type
C8    C26   S    
C2    C22   A    
C8    C22   S    
C17   C21   S    
N1    Zn2   S    
O4    Zn2   S    
C6    C7    S    
C13   C14   S    
C10   O12   S    
C10   N1    A    
C3    H1    S    
C19   C20   S    
C14   C15   S    
C16   O6    A    
C14   C23   S    
C25   H13   S    
C14   C29   S    
C29   H20   S    
O1    Zn1   S    
C2    C3    A    
C9    C15   S    
C11   N2    A    
C7    C8    S    
O8    Zn2   S    
C26   H14   S    
O12   C27   S    
C12   O4    A    
O7    Zn1   S    
C24   C25   S    
C27   H15   S    
C7    H4    S    
C23   O9    D    
C9    N1    A    
C28   H19   S    
O3    Zn1   S    
C15   H2    S    
C18   C19   T    
O2    Zn2   S    
C4    O10   S    
C26   O11   D    
O6    Zn2   S    
C5    C6    A    
C8    H6    S    
C24   H10   S    
C15   H3    S    
C27   H16   S    
C10   C11   A    
C1    O2    A    
C3    C4    A    
C6    C22   A    
O5    Zn1   S    
C7    H5    S    
C20   C21   T    
C11   H7    S    
C28   H18   S    
C1    C2    S    
C23   H8    S    
C17   O7    A    
C25   H11   S    
C17   O8    A    
C24   H9    S    
C28   H17   S    
C27   C28   S    
C9    C13   A    
C25   H12   S    
N2    Zn1   S    
O10   C24   S    
C12   O3    A    
C13   N2    A    
C1    O1    A    
C16   O5    A    
C29   O13   D    
C4    C5    A    
C5    C16   S    
C12   C18   S    
