data_mof_unit_15658.cif
_audit_creation_date              2012-12-11T18:13:25-0500
_audit_creation_method            fapswitch 2.2
_symmetry_space_group_name_H-M    P1
_symmetry_Int_Tables_number       1
_space_group_crystal_system       triclinic
_cell_length_a                    8.426343
_cell_length_b                    12.85035
_cell_length_c                    18.860323
_cell_angle_alpha                 100.631248
_cell_angle_beta                  91.398762
_cell_angle_gamma                 99.597478
_cell_volume                      1975.86498518

loop_
_atom_site_label
_atom_site_type_symbol
_atom_type_description
_atom_site_fract_x
_atom_site_fract_y
_atom_site_fract_z
_atom_type_partial_charge
Ba1   Ba    Ba6+2 0.852780 0.548340 0.465070 1.654856
Ba2   Ba    Ba6+2 0.337060 0.451750 0.534940 1.644058
C1    C     C_3   0.575108 0.884311 0.245388 -0.224338
C2    C     C_R   0.891823 0.396709 0.089390 -0.010277
C3    C     C_R   0.730284 0.354747 0.064125 -0.082855
C4    C     C_3   0.109046 0.806781 0.257399 0.352429
C5    C     C_R   0.671629 0.367537 0.997366 -0.071706
C6    C     C_R   0.773955 0.417537 0.951980 0.044677
C7    C     C_R   0.937137 0.456070 0.974278 0.022568
C8    C     C_R   0.715586 0.424902 0.883449 -0.027689
C9    C     C_R   0.820210 0.461667 0.832951 -0.026229
C10   C     C_R   0.983303 0.505394 0.855509 -0.016097
C11   C     C_R   0.040818 0.502752 0.926828 -0.008784
C12   C     C_3   0.610329 0.803005 0.290611 0.346373
C13   C     C_R   0.767326 0.453093 0.760112 -0.003219
C14   C     C_R   0.874457 0.490309 0.711366 -0.300561
C15   C     C_R   0.031312 0.543323 0.733353 0.057336
C16   C     C_3   0.004118 0.810611 0.189771 0.188119
C17   C     C_R   0.088162 0.551669 0.807165 -0.052906
C18   C     C_R   0.158622 0.486032 0.066981 -0.003894
C19   C     C_R   0.216074 0.480788 0.138063 -0.061526
C20   C     C_R   0.107839 0.437527 0.187139 -0.049209
C21   C     C_R   0.950112 0.387672 0.158754 0.406249
C22   C     C_R   0.245388 0.602759 0.834699 -0.038808
C23   C     C_3   0.559382 0.242036 0.303820 0.706611
C24   C     C_R   0.305240 0.594097 0.903805 0.035903
C25   C     C_R   0.202812 0.543312 0.949990 0.010029
C26   C     C_R   0.262171 0.534207 0.019689 0.046781
C27   C     C_R   0.467365 0.633766 0.927157 -0.079650
C28   C     C_3   0.289209 0.796360 0.644649 0.317905
C29   C     C_R   0.526921 0.622704 0.995015 -0.107906
C30   C     C_R   0.425141 0.573719 0.041947 0.036370
C31   C     C_R   0.379236 0.525535 0.161207 -0.036789
C32   C     C_R   0.483261 0.566481 0.111250 -0.119574
C33   C     C_R   0.430715 0.533152 0.234610 0.037733
C34   C     C_3   0.558599 0.181668 0.224864 0.165039
C35   C     C_R   0.321322 0.496344 0.282805 -0.267738
C36   C     C_R   0.161106 0.450190 0.262688 0.062743
C37   C     C_R   0.780159 0.176847 0.510432 -0.197571
C38   C     C_R   0.435301 0.803754 0.460398 -0.184143
C39   C     C_R   0.404322 0.981228 0.441767 -0.131530
C40   C     C_3   0.401313 0.888359 0.693211 -0.321250
C41   C     C_R   0.343160 0.872164 0.432771 -0.022490
C42   C     C_R   0.578335 0.846484 0.505244 0.048412
C43   C     C_R   0.642058 0.959395 0.511966 -0.059145
C44   C     C_R   0.554948 0.026163 0.478410 -0.043180
C45   C     C_3   0.067064 0.240612 0.730299 0.322820
C46   C     C_R   0.621011 0.136711 0.481710 0.030835
C47   C     C_R   0.862481 0.114330 0.547360 0.008125
C48   C     C_R   0.791742 0.007760 0.549604 -0.106153
C49   C     C_3   0.969367 0.177598 0.338238 0.894301
C50   C     C_3   0.969611 0.074288 0.284082 -0.225039
C51   C     C_3   0.745458 0.712716 0.680982 0.324826
C52   C     C_3   0.757473 0.747023 0.763417 -0.221844
C53   C     C_3   0.134879 0.072635 0.253455 -0.285243
C54   C     C_3   0.869864 0.854601 0.788963 -0.382347
C55   C     C_3   0.506650 0.831254 0.169067 -0.313488
C56   C     C_3   0.091369 0.219879 0.806329 -0.340753
C57   C     C_3   0.142412 0.693116 0.248900 -0.330005
C58   C     C_3   0.866235 0.284768 0.497963 -0.228834
C59   C     C_3   0.373476 0.685285 0.442428 -0.247508
C60   C     C_3   0.190735 0.842526 0.593701 -0.293034
C61   C     C_3   0.549685 0.192743 0.728122 0.512114
C62   C     C_3   0.597909 0.141858 0.791231 0.654819
C63   C     C_R   0.995853 0.447246 0.043915 -0.036568
H1    H     H_    0.688375 0.845876 0.339070 0.061979
H2    H     H_    0.490931 0.932999 0.274029 0.128226
H3    H     H_    0.802733 0.684879 0.788062 0.052025
H4    H     H_    0.635543 0.753222 0.782974 0.096960
H5    H     H_    0.494652 0.767240 0.309533 -0.083882
H6    H     H_    0.685365 0.267813 0.324533 0.033224
H7    H     H_    0.527187 0.233660 0.187423 0.014049
H8    H     H_    0.679599 0.161994 0.213585 0.084304
H9    H     H_    0.686945 0.939258 0.240506 0.099248
H10   H     H_    0.155330 0.313125 0.725191 0.093697
H11   H     H_    0.942482 0.256035 0.722744 0.006281
H12   H     H_    0.464829 0.857717 0.735061 0.123977
H13   H     H_    0.219591 0.217535 0.818378 0.172880
H14   H     H_    0.055510 0.285283 0.846397 0.104194
H15   H     H_    0.018629 0.141572 0.811593 0.128316
H16   H     H_    0.657803 0.214030 0.697439 -0.180779
H17   H     H_    0.463386 0.131703 0.690191 -0.048124
H18   H     H_    0.624014 0.060208 0.769384 -0.089623
H19   H     H_    0.645722 0.312035 0.095198 0.070096
H20   H     H_    0.546261 0.335746 0.980499 0.103459
H21   H     H_    0.831475 0.483439 0.655901 0.053401
H22   H     H_    0.588826 0.396615 0.869233 0.120685
H23   H     H_    0.491392 0.929553 0.660970 0.058760
H24   H     H_    0.324882 0.646824 0.802246 0.103031
H25   H     H_    0.549100 0.672131 0.892484 0.062113
H26   H     H_    0.652815 0.653584 0.011116 0.064664
H27   H     H_    0.609305 0.596843 0.126565 0.095408
H28   H     H_    0.223859 0.863582 0.259198 0.037107
H29   H     H_    0.364276 0.499870 0.337638 0.089743
H30   H     H_    0.330615 0.030057 0.419893 0.103668
H31   H     H_    0.858062 0.962879 0.579021 0.105548
H32   H     H_    0.917278 0.734051 0.172685 0.096292
H33   H     H_    0.930882 0.874989 0.201030 0.066549
H34   H     H_    0.329531 0.947251 0.720472 0.088440
H35   H     H_    0.362816 0.742030 0.613434 0.034928
H36   H     H_    0.066924 0.131415 0.417012 0.272113
H37   H     H_    0.126295 0.017321 0.200826 0.151349
H38   H     H_    0.188498 0.152574 0.242658 0.158279
H39   H     H_    0.215405 0.048133 0.292295 0.176619
H40   H     H_    0.992599 0.850404 0.769989 0.151448
H41   H     H_    0.823108 0.920036 0.768515 0.151887
H42   H     H_    0.877854 0.874264 0.848930 0.111534
H43   H     H_    0.600904 0.796548 0.137244 0.116652
H44   H     H_    0.402704 0.767149 0.170797 0.141259
H45   H     H_    0.850231 0.170696 0.361553 -0.428275
H46   H     H_    0.466372 0.891020 0.140629 0.162191
H47   H     H_    0.371485 0.306487 0.295940 0.273736
H48   H     H_    0.427865 0.065868 0.158093 0.303301
H49   H     H_    0.028763 0.827621 0.090786 0.299808
H50   H     H_    0.764194 0.168447 0.867719 0.310374
H51   H     H_    0.248853 0.691619 0.282478 0.017584
H52   H     H_    0.038121 0.639240 0.264037 0.163171
H53   H     H_    0.167254 0.664471 0.192259 0.094126
H54   H     H_    0.390881 0.073826 0.818831 0.267892
H55   H     H_    0.753078 0.352483 0.201766 0.304704
H56   H     H_    0.882403 0.070594 0.238391 0.082050
H57   H     H_    0.834919 0.302424 0.445427 0.094736
H58   H     H_    0.849778 0.350565 0.542852 0.104442
H59   H     H_    0.992848 0.285281 0.488062 0.176165
H60   H     H_    0.457886 0.631896 0.436798 0.159113
H61   H     H_    0.286332 0.659354 0.481504 0.119433
H62   H     H_    0.330693 0.665141 0.385717 0.041073
H63   H     H_    0.267379 0.905219 0.570568 0.067340
H64   H     H_    0.135372 0.776020 0.549942 0.142410
H65   H     H_    0.094968 0.879976 0.622687 0.136972
H66   H     H_    0.933122 0.004518 0.310420 0.090510
H67   H     H_    0.865131 0.699978 0.661859 0.028748
H68   H     H_    0.658035 0.636028 0.666834 0.037868
O1    O     O_2   0.873090 0.425890 0.325140 -0.430805
O2    O     O_2   0.198220 0.124192 0.551343 -0.468592
O3    O     O_3   0.092126 0.150233 0.680133 -0.604812
O4    O     O_3   0.122420 0.434370 0.414380 -0.496046
O5    O     O_3   0.578370 0.633800 0.536380 -0.509955
O6    O     O_2   0.341510 0.231850 0.465510 -0.389660
O7    O     O_3   0.476258 0.175125 0.346193 -0.635154
O8    O     O_2   0.448443 0.476414 0.754682 -0.498142
O9    O     O_3   0.470307 0.279141 0.754371 -0.596814
O10   O     O_3   0.659500 0.627100 0.368810 -0.468198
O11   O     O_2   0.766634 0.540609 0.244354 -0.502305
O12   O     O_3   0.692951 0.793210 0.650231 -0.651239
O13   O     O_3   0.992608 0.257745 0.297348 -0.603743
O14   O     O_3   0.690623 0.727031 0.249652 -0.608481
O15   O     O_2   0.848200 0.768190 0.534530 -0.465161
O16   O     O_3   0.081160 0.685950 0.404810 -0.476059
O17   O     O_2   0.023781 0.875783 0.458996 -0.468768
O18   O     O_3   0.094136 0.190808 0.389880 -0.722925
O19   O     O_3   0.488713 0.333137 0.306126 -0.770915
O20   O     O_3   0.449581 0.085036 0.211280 -0.758744
O21   O     O_3   0.102374 0.826338 0.132389 -0.770405
O22   O     O_3   0.737909 0.204223 0.827633 -0.761451
O23   O     O_3   0.027253 0.837490 0.320333 -0.606386
O24   O     O_3   0.474949 0.135920 0.840111 -0.724989
O25   O     O_3   0.855067 0.324433 0.196898 -0.732187
O26   O     O_2   0.316610 0.574140 0.674900 -0.465552
O27   O     O_3   0.067290 0.565720 0.585630 -0.508672
O28   O     O_3   0.530210 0.372990 0.631200 -0.466518
O29   O     O_3   0.183397 0.745659 0.688790 -0.647921
O30   O     O_3   0.611340 0.366290 0.463630 -0.471065
O31   O     O_3   0.108550 0.314140 0.595200 -0.505683
P1    P     P_3+3 0.041040 0.394770 0.336330 1.054061
P2    P     P_3+3 0.672880 0.754030 0.556100 0.945025
P3    P     P_3+3 0.125735 0.822274 0.400716 0.936152
P4    P     P_3+3 0.148670 0.605320 0.663680 0.951113
P5    P     P_3+3 0.064666 0.174491 0.592653 0.953790
P6    P     P_3+3 0.633934 0.602523 0.274471 0.981787
P7    P     P_3+3 0.516352 0.228355 0.438614 1.002121
P8    P     P_3+3 0.557818 0.395865 0.724970 0.959692

loop_
_geom_bond_atom_site_label_1
_geom_bond_atom_site_label_2
_ccdc_geom_bond_type
C6    C7    A    
C36   P1    S    
C60   H63   S    
O7    P7    S    
C53   H38   S    
C45   O3    S    
O15   P2    D    
C60   H65   S    
O16   P3    S    
C22   H24   S    
O4    P1    S    
C5    C6    A    
C54   H42   S    
C39   H30   S    
C51   C52   S    
C62   O22   S    
C24   C25   A    
C61   H16   S    
C23   O19   S    
Ba2   O6    S    
Ba1   P2    S    
C33   C35   A    
C22   C24   A    
C45   H11   S    
C2    C63   A    
C19   C31   A    
O17   P3    D    
C13   C14   A    
C20   C36   A    
C21   O25   S    
C28   H35   S    
O26   P4    D    
Ba1   Ba2   S    
C58   H59   S    
C1    H9    S    
C7    C11   A    
C31   C33   A    
O28   P8    S    
C9    C13   A    
C38   C41   A    
C55   H44   S    
Ba2   O26   S    
C62   O24   S    
C13   P8    S    
C39   C44   A    
H47   O19   S    
O6    P7    D    
C59   H61   S    
C23   H6    S    
C16   H32   S    
O3    P5    S    
O30   P7    S    
C16   O21   S    
C50   C53   S    
C56   H15   S    
O2    P5    D    
C49   O18   S    
C57   H52   S    
C19   C20   A    
C14   H21   S    
C39   C41   A    
C60   H64   S    
O31   P5    S    
C12   H5    S    
Ba2   O28   S    
C27   H25   S    
C34   O20   S    
C44   C46   A    
O12   P2    S    
C4    C16   S    
C52   C54   S    
C8    H22   S    
C61   H17   S    
C49   C50   S    
Ba2   O5    S    
C18   C63   A    
C26   C30   A    
C23   O7    S    
C51   H68   S    
C8    C9    A    
Ba2   O31   S    
C3    C5    A    
C2    C21   A    
C57   H51   S    
C18   C26   A    
O23   P3    S    
C43   C44   A    
C53   H39   S    
H36   O18   S    
O8    P8    D    
C38   C59   S    
C30   C32   A    
C58   H58   S    
C58   H57   S    
C62   H18   S    
C35   C36   A    
Ba1   O10   S    
C46   P7    S    
C50   H56   S    
C29   C30   A    
C53   H37   S    
Ba1   P1    S    
H54   O24   S    
C4    H28   S    
C55   H43   S    
C51   O12   S    
C31   C32   A    
C12   H1    S    
O1    P1    D    
C59   H62   S    
C51   H67   S    
C42   P2    S    
C10   C11   A    
Ba1   O16   S    
C54   H41   S    
C1    C12   S    
C56   H14   S    
C40   H12   S    
O29   P4    S    
C1    C55   S    
Ba2   O27   S    
C37   C47   A    
O13   P1    S    
C49   H45   S    
C29   H26   S    
C28   C60   S    
C50   H66   S    
C40   H23   S    
C28   O29   S    
Ba1   O1    S    
Ba2   P4    S    
O11   P6    D    
Ba1   O4    S    
C42   C43   A    
O9    P8    S    
C3    H19   S    
H50   O22   S    
Ba2   O4    S    
C4    C57   S    
Ba1   O27   S    
C1    H2    S    
O10   P6    S    
H48   O20   S    
C2    C3    A    
C15   P4    S    
Ba2   O30   S    
C9    C10   A    
O14   P6    S    
C41   P3    S    
C57   H53   S    
C49   O13   S    
O5    P2    S    
C17   C22   A    
C45   H10   S    
C27   C29   A    
C40   H34   S    
C45   C56   S    
C47   P5    S    
C48   H31   S    
C55   H46   S    
C52   H4    S    
C43   C48   A    
C37   C58   S    
C12   O14   S    
C10   C17   A    
C15   C17   A    
C61   O9    S    
C35   H29   S    
C28   C40   S    
O27   P4    S    
C7    C63   A    
C54   H40   S    
C34   H8    S    
C56   H13   S    
C23   C34   S    
C61   C62   S    
H55   O25   S    
C38   C42   A    
C5    H20   S    
C52   H3    S    
C18   C19   A    
Ba1   O30   S    
C24   C27   A    
C6    C8    A    
C47   C48   A    
C25   C26   A    
C33   P6    S    
C20   C21   A    
C11   C25   A    
Ba1   O15   S    
C59   H60   S    
C16   H33   S    
H49   O21   S    
C4    O23   S    
Ba1   O5    S    
C34   H7    S    
C14   C15   A    
C37   C46   A    
C32   H27   S    
