data_mof_unit_66185.cif
_audit_creation_date              2012-12-10T19:35:54-0500
_audit_creation_method            fapswitch 2.2
_symmetry_space_group_name_H-M    P1
_symmetry_Int_Tables_number       1
_space_group_crystal_system       triclinic
_cell_length_a                    15.115184
_cell_length_b                    15.788812
_cell_length_c                    17.115859
_cell_angle_alpha                 96.320278
_cell_angle_beta                  90.472212
_cell_angle_gamma                 91.936981
_cell_volume                      4057.27274286

loop_
_atom_site_label
_atom_site_type_symbol
_atom_type_description
_atom_site_fract_x
_atom_site_fract_y
_atom_site_fract_z
_atom_type_partial_charge
C1    C     C_R   0.499903 0.489565 0.348463 0.958051
C2    C     C_R   0.500097 0.510435 0.651537 0.958052
C3    C     C_R   0.041690 0.345530 0.471135 0.641301
C4    C     C_R   0.958310 0.654470 0.528865 0.641301
C5    C     C_R   0.501643 0.483633 0.262213 -0.462318
C6    C     C_R   0.498357 0.516367 0.737787 -0.462318
C7    C     C_R   0.535467 0.552527 0.224794 0.484068
C8    C     C_R   0.464532 0.447473 0.775206 0.484067
C9    C     C_R   0.537199 0.547305 0.143200 0.535989
C10   C     C_R   0.462801 0.452695 0.856800 0.535989
C11   C     C_R   0.503852 0.473085 0.097277 -0.023570
C12   C     C_R   0.496148 0.526915 0.902722 -0.023570
C13   C     C_R   0.472408 0.403500 0.134560 0.266460
C14   C     C_R   0.527592 0.596500 0.865440 0.266460
C15   C     C_R   0.470773 0.408749 0.216451 0.489559
C16   C     C_R   0.529227 0.591251 0.783549 0.489559
C17   C     C_R   0.456336 0.752260 0.462453 0.847056
C18   C     C_R   0.543664 0.247740 0.537547 0.847057
C19   C     C_R   0.459098 0.841556 0.464823 -0.373495
C20   C     C_R   0.540902 0.158444 0.535177 -0.373495
C21   C     C_R   0.518726 0.891231 0.516296 0.175624
C22   C     C_R   0.481274 0.108769 0.483704 0.175624
C23   C     C_R   0.328443 0.500628 0.500155 0.848723
C24   C     C_R   0.671557 0.499372 0.499845 0.848724
C25   C     C_R   0.573954 0.848163 0.564017 0.575600
C26   C     C_R   0.426046 0.151837 0.435983 0.575600
C27   C     C_R   0.569050 0.758654 0.559814 -0.103063
C28   C     C_R   0.430950 0.241346 0.440186 -0.103062
C29   C     C_R   0.817200 0.575661 0.514164 -0.213672
C30   C     C_R   0.182800 0.424339 0.485836 -0.213672
C31   C     C_R   0.768391 0.498303 0.499763 -0.204270
C32   C     C_R   0.231609 0.501697 0.500237 -0.204270
C33   C     C_R   0.812408 0.421100 0.485341 0.641806
C34   C     C_R   0.187592 0.578900 0.514659 0.641806
C35   C     C_R   0.904867 0.421450 0.485417 -0.085116
C36   C     C_R   0.095133 0.578550 0.514583 -0.085116
C37   C     C_R   0.953535 0.499629 0.499970 -0.054666
C38   C     C_R   0.046465 0.500371 0.500031 -0.054666
C39   C     C_R   0.909416 0.577061 0.514415 -0.006979
C40   C     C_R   0.090584 0.422939 0.485585 -0.006979
C41   C     C_R   0.949544 0.344950 0.471073 -0.162433
C42   C     C_R   0.050456 0.655050 0.528927 -0.162433
Cu1   Cu    Cu3+1 0.495660 0.415220 0.496180 1.110226
Cu2   Cu    Cu3+1 0.504340 0.584780 0.503820 1.110226
H1    H     H_    0.783213 0.635046 0.525531 0.239138
H2    H     H_    0.216787 0.364953 0.474469 0.239138
H3    H     H_    0.585109 0.128961 0.573382 0.247404
H4    H     H_    0.414891 0.871039 0.426618 0.247404
H5    H     H_    0.611981 0.726334 0.596857 0.229017
H6    H     H_    0.388018 0.273666 0.403143 0.229017
H7    H     H_    0.913351 0.284372 0.459782 0.239957
H8    H     H_    0.086649 0.715627 0.540218 0.239957
N1    N     N_2   0.502361 0.465363 0.013993 -0.031313
N2    N     N_2   0.497639 0.534637 0.986007 -0.031313
N3    N     N_R   0.510860 0.712130 0.509560 -0.281348
N4    N     N_R   0.489140 0.287870 0.490440 -0.281348
N5    N     N_2   0.525556 0.982877 0.522120 -0.114236
N6    N     N_2   0.474444 0.017123 0.477880 -0.114236
O1    O     O_R   0.495940 0.420530 0.382500 -0.550386
O2    O     O_R   0.504060 0.579470 0.617500 -0.550386
O3    O     O_R   0.503270 0.563720 0.388950 -0.499360
O4    O     O_R   0.496730 0.436280 0.611050 -0.499360
O5    O     O_R   0.366590 0.428400 0.496760 -0.611704
O6    O     O_R   0.633410 0.571600 0.503240 -0.611704
O7    O     O_R   0.373920 0.571590 0.503210 -0.490094
O8    O     O_R   0.626080 0.428410 0.496790 -0.490094
F1    F     F_    0.632541 0.892803 0.614574 -0.559024
F2    F     F_    0.367459 0.107197 0.385425 -0.559024
F3    F     F_    0.765806 0.345748 0.470439 -0.615004
F4    F     F_    0.234194 0.654252 0.529560 -0.615004
F5    F     F_    0.082903 0.270337 0.457076 -0.603232
F6    F     F_    0.917097 0.729663 0.542924 -0.603232
F7    F     F_    0.430984 0.375472 0.733010 -0.546087
F8    F     F_    0.569016 0.624528 0.266990 -0.546087
F9    F     F_    0.426559 0.385888 0.890473 -0.515519
F10   F     F_    0.573441 0.614112 0.109527 -0.515519
Cl1   Cl    Cl    0.432287 0.309385 0.078790 -0.280751
Cl2   Cl    Cl    0.567713 0.690615 0.921210 -0.280751
F11   F     F_    0.437307 0.341255 0.250913 -0.567138
F12   F     F_    0.562693 0.658745 0.749087 -0.567138
F13   F     F_    0.601386 0.294164 0.587497 -0.575203
F14   F     F_    0.398614 0.705836 0.412502 -0.575203

loop_
_geom_bond_atom_site_label_1
_geom_bond_atom_site_label_2
_ccdc_geom_bond_type
C30   C32   A    
C36   C42   A    
C25   F1    S    
C28   N4    A    
Cu1   O5    S    
N1    N2    D    
Cu2   O6    S    
C1    C5    S    
C35   C37   A    
C1    O1    A    
C27   N3    A    
C18   F13   S    
C17   F14   S    
C21   C25   A    
C17   C19   A    
C28   H6    S    
C15   F11   S    
C31   C33   A    
C9    F10   S    
C34   F4    S    
C18   C20   A    
C11   N1    S    
C18   N4    A    
C23   O5    A    
C24   O6    A    
Cu2   O7    S    
C2    C6    S    
C2    O2    A    
C33   F3    S    
C7    F8    S    
C13   Cl1   S    
C5    C7    A    
C19   H4    S    
C6    C8    A    
C29   H1    S    
C16   F12   S    
C32   C34   A    
C3    F5    S    
Cu1   Cu2   S    
C21   N5    S    
C37   C38   A    
C10   F9    S    
C4    C39   A    
C29   C31   A    
C29   C39   A    
C30   C40   A    
C9    C11   A    
C10   C12   A    
C12   C14   A    
C3    C40   A    
C13   C15   A    
C14   C16   A    
C4    F6    S    
C7    C9    A    
C17   N3    A    
C3    C41   A    
C19   C21   A    
C30   H2    S    
C20   C22   A    
C1    O3    A    
C22   N6    S    
Cu1   O1    S    
Cu2   O3    S    
C25   C27   A    
C26   C28   A    
C26   F2    S    
C23   C32   S    
C23   O7    A    
C36   C38   A    
C24   C31   S    
C37   C39   A    
C38   C40   A    
C11   C13   A    
Cu2   N3    S    
N5    N6    D    
C4    C42   A    
Cu2   O2    S    
Cu1   O8    S    
C8    F7    S    
C33   C35   A    
C34   C36   A    
C14   Cl2   S    
C35   C41   A    
C5    C15   A    
C20   H3    S    
C6    C16   A    
C2    O4    A    
Cu1   N4    S    
C24   O8    A    
C8    C10   A    
C22   C26   A    
C41   H7    S    
C12   N2    S    
C27   H5    S    
Cu1   O4    S    
C42   H8    S    
