data_mof_unit_50768.cif
_audit_creation_date              2012-12-10T19:48:31-0500
_audit_creation_method            fapswitch 2.2
_symmetry_space_group_name_H-M    P1
_symmetry_Int_Tables_number       1
_space_group_crystal_system       triclinic
_cell_length_a                    10.828001
_cell_length_b                    10.62246
_cell_length_c                    9.415599
_cell_angle_alpha                 91.058517
_cell_angle_beta                  90.73551
_cell_angle_gamma                 90.744977
_cell_volume                      1082.61330284

loop_
_atom_site_label
_atom_site_type_symbol
_atom_type_description
_atom_site_fract_x
_atom_site_fract_y
_atom_site_fract_z
_atom_type_partial_charge
C1    C     C_R   0.499996 0.259367 0.498855 0.778498
C2    C     C_R   0.500004 0.740633 0.501145 0.778497
C3    C     C_R   0.871560 0.506317 0.502502 -0.086417
C4    C     C_R   0.128440 0.493683 0.497498 -0.086417
C5    C     C_R   0.942065 0.567484 0.611334 0.021427
C6    C     C_R   0.057935 0.432516 0.388666 0.021427
C7    C     C_3   0.595508 0.045545 0.578328 -0.184238
C8    C     C_3   0.404491 0.954455 0.421672 -0.184238
C9    C     C_3   0.606440 0.957994 0.446203 -0.151776
C10   C     C_3   0.393560 0.042006 0.553797 -0.151776
C11   C     C_3   0.500018 0.877636 0.502836 0.018286
C12   C     C_3   0.499982 0.122364 0.497164 0.018286
C13   C     C_3   0.489004 0.962882 0.635072 -0.132507
C14   C     C_3   0.510996 0.037118 0.364928 -0.132507
C15   C     C_3   0.409298 0.565108 0.050443 -0.046603
C16   C     C_3   0.590702 0.434892 0.949557 -0.046603
C17   C     C_3   0.398444 0.451827 0.946709 -0.017574
C18   C     C_3   0.601556 0.548173 0.053291 -0.017574
C19   C     C_3   0.511056 0.613350 0.952152 -0.026930
C20   C     C_3   0.488944 0.386649 0.047848 -0.026930
C21   C     C_R   0.262463 0.495886 0.498874 0.785844
C22   C     C_R   0.737537 0.504114 0.501126 0.785844
C23   C     C_R   0.115224 0.299359 0.019981 -0.155417
C24   C     C_R   0.884776 0.700641 0.980019 -0.155417
C25   C     C_R   0.073280 0.376107 0.130759 -0.268148
C26   C     C_R   0.926720 0.623893 0.869241 -0.268148
C27   C     C_R   0.111857 0.356316 0.271480 0.133159
C28   C     C_R   0.888143 0.643684 0.728520 0.133159
C29   C     C_R   0.192770 0.257358 0.299618 -0.130634
C30   C     C_R   0.807230 0.742642 0.700382 -0.130633
C31   C     C_R   0.235758 0.181368 0.188369 -0.246893
C32   C     C_R   0.764242 0.818632 0.811631 -0.246894
C33   C     C_R   0.197384 0.202095 0.047442 0.468936
C34   C     C_R   0.802616 0.797905 0.952558 0.468936
C35   C     C_R   0.929915 0.440457 0.392993 -0.238990
C36   C     C_R   0.070085 0.559543 0.607007 -0.238990
Cu1   Cu    Cu3+1 0.500030 0.499990 0.643150 0.943824
Cu2   Cu    Cu3+1 0.499970 0.500010 0.356850 0.943824
H1    H     H_    0.520192 0.708981 0.907645 0.120366
H2    H     H_    0.479807 0.291019 0.092355 0.120366
N1    N     N_3   0.500090 0.499970 0.858290 -0.161775
N2    N     N_3   0.499910 0.500030 0.141710 -0.161775
O1    O     O_R   0.500060 0.316850 0.620870 -0.573361
O2    O     O_R   0.499940 0.683150 0.379130 -0.573361
O3    O     O_R   0.500000 0.316860 0.379090 -0.590151
O4    O     O_R   0.500000 0.683140 0.620910 -0.590151
O5    O     O_R   0.319670 0.500010 0.620890 -0.588611
O6    O     O_R   0.680330 0.499990 0.379110 -0.588610
O7    O     O_R   0.319620 0.500010 0.379110 -0.572233
O8    O     O_R   0.680380 0.499990 0.620890 -0.572233
O9    O     O_3   0.238388 0.129471 0.935091 -0.758496
H3    H     H_    0.296844 0.066378 0.971888 0.305853
O10   O     O_3   0.761613 0.870529 0.064909 -0.758495
H4    H     H_    0.703156 0.933622 0.028112 0.305853
H5    H     H_    0.313544 0.412197 0.895429 0.140405
H6    H     H_    0.686456 0.587803 0.104571 0.140405
H7    H     H_    0.332835 0.619657 0.097834 0.121945
H8    H     H_    0.667165 0.380343 0.902166 0.121945
H9    H     H_    0.084291 0.316027 0.912199 0.148188
H10   H     H_    0.915709 0.683974 0.087801 0.148188
H11   H     H_    0.009173 0.450351 0.107562 0.138496
H12   H     H_    0.990828 0.549650 0.892438 0.138496
H13   H     H_    0.221028 0.237856 0.407608 0.113023
H14   H     H_    0.778971 0.762144 0.592392 0.113023
H15   H     H_    0.297778 0.105696 0.211733 0.120334
H16   H     H_    0.702222 0.894303 0.788267 0.120334
H17   H     H_    0.874743 0.390938 0.312199 0.158233
H18   H     H_    0.125256 0.609062 0.687801 0.158233
H19   H     H_    0.693589 0.920560 0.402373 0.154528
H20   H     H_    0.306411 0.079440 0.597627 0.154528
H21   H     H_    0.673777 0.086602 0.641734 0.132123
H22   H     H_    0.326223 0.913398 0.358265 0.132123
H23   H     H_    0.479052 0.930058 0.745656 0.127286
H24   H     H_    0.520948 0.069942 0.254344 0.127286

loop_
_geom_bond_atom_site_label_1
_geom_bond_atom_site_label_2
_ccdc_geom_bond_type
C22   O6    A    
C4    C36   A    
Cu1   O8    S    
C30   H14   S    
C27   C29   A    
C21   O7    A    
Cu2   O7    S    
O10   H4    S    
C2    O4    A    
C23   H9    S    
C14   H24   S    
C9    H19   S    
Cu2   N2    S    
C18   N2    S    
C7    H21   S    
C20   H2    S    
C5    C36   A    
C17   C20   S    
C6    C35   A    
C31   H15   S    
C18   C19   S    
Cu2   O3    S    
C1    O1    A    
C2    O2    A    
C23   C33   A    
C31   C33   A    
C3    C35   A    
Cu1   O5    S    
C17   H5    S    
Cu2   O6    S    
C16   C20   S    
C22   O8    A    
C15   H7    S    
C1    C12   S    
C2    C11   S    
C10   C12   S    
C7    C12   S    
C8    H22   S    
O9    H3    S    
C4    C6    A    
C16   H8    S    
C24   C34   A    
C32   C34   A    
Cu1   O1    S    
C15   C19   S    
C9    C14   S    
Cu2   O2    S    
Cu1   Cu2   S    
C5    C28   S    
C6    C27   S    
C35   H17   S    
C24   H10   S    
C25   H11   S    
C9    C11   S    
C19   H1    S    
C10   H20   S    
C16   C18   S    
C13   H23   S    
C33   O9    S    
C32   H16   S    
C7    C9    S    
C8    C14   S    
C24   C26   A    
C15   N2    S    
C12   C14   S    
C3    C5    A    
C10   C13   S    
C20   N2    S    
C36   H18   S    
C15   C17   S    
C18   H6    S    
C25   C27   A    
C26   C28   A    
C28   C30   A    
C26   H12   S    
C29   C31   A    
C30   C32   A    
C4    C21   S    
C11   C13   S    
C1    O3    A    
C8    C11   S    
C29   H13   S    
C23   C25   A    
Cu1   N1    S    
C17   N1    S    
C7    C13   S    
C34   O10   S    
C8    C10   S    
C3    C22   S    
Cu1   O4    S    
C16   N1    S    
C19   N1    S    
C21   O5    A    
