data_mof_unit_14968.cif
_audit_creation_date              2012-12-11T14:46:10-0500
_audit_creation_method            fapswitch 2.2
_symmetry_space_group_name_H-M    P1
_symmetry_Int_Tables_number       1
_space_group_crystal_system       triclinic
_cell_length_a                    10.942448
_cell_length_b                    10.922237
_cell_length_c                    18.83298
_cell_angle_alpha                 90.173462
_cell_angle_beta                  89.91993
_cell_angle_gamma                 119.973449
_cell_volume                      1949.7992616

loop_
_atom_site_label
_atom_site_type_symbol
_atom_type_description
_atom_site_fract_x
_atom_site_fract_y
_atom_site_fract_z
_atom_type_partial_charge
C1    C     C_R   0.864781 0.637501 0.603572 0.545027
C2    C     C_R   0.961106 0.170425 0.710991 0.011610
C3    C     C_R   0.961436 0.182420 0.786158 -0.002356
C4    C     C_R   0.270474 0.632951 0.603751 0.544948
C5    C     C_R   0.716217 0.116658 0.707844 0.012726
C6    C     C_R   0.724856 0.151977 0.779972 0.029447
C7    C     C_R   0.585847 0.064369 0.672068 -0.068061
C8    C     C_R   0.475533 0.074013 0.703094 -0.118600
C9    C     C_R   0.492892 0.132988 0.770271 -0.140030
C10   C     C_R   0.616888 0.174014 0.808008 -0.072825
C11   C     C_R   0.841088 0.150089 0.671349 -0.042838
C12   C     C_R   0.421980 0.624551 0.777230 -0.116759
C13   C     C_R   0.726282 0.534958 0.713288 -0.138151
C14   C     C_R   0.717128 0.546139 0.786430 -0.157137
C15   C     C_R   0.802716 0.676128 0.819496 0.029182
C16   C     C_R   0.860701 0.221514 0.601574 0.533387
C17   C     C_R   0.887754 0.796908 0.778582 -0.128090
C18   C     C_R   0.895097 0.786434 0.706205 -0.145518
C19   C     C_R   0.820278 0.654584 0.673560 0.022795
C20   C     C_R   0.412982 0.613330 0.299959 -0.134797
C21   C     C_R   0.449513 0.630137 0.228851 -0.135695
C22   C     C_R   0.424138 0.719697 0.186346 0.027348
C23   C     C_R   0.401027 0.616403 0.704923 -0.129202
C24   C     C_R   0.366552 0.797193 0.216417 -0.151064
C25   C     C_R   0.328622 0.779782 0.287805 -0.144912
C26   C     C_R   0.346988 0.683645 0.329235 0.025660
C27   C     C_R   0.719750 0.106570 0.292793 -0.140434
C28   C     C_R   0.864257 0.638868 0.398226 0.548455
C29   C     C_R   0.708067 0.088854 0.220473 -0.125533
C30   C     C_R   0.828711 0.142842 0.177327 0.044758
C31   C     C_R   0.962757 0.217670 0.207153 -0.155029
C32   C     C_R   0.975057 0.237128 0.280381 -0.146215
C33   C     C_R   0.852887 0.182488 0.323109 0.028423
C34   C     C_R   0.323084 0.672440 0.675322 0.027282
C35   C     C_R   0.897752 0.787682 0.297318 -0.122651
C36   C     C_R   0.902391 0.800067 0.224582 0.135350
C37   C     C_R   0.811692 0.680380 0.182040 0.046226
C38   C     C_R   0.724207 0.550049 0.214291 -0.188853
C39   C     C_R   0.729384 0.537358 0.287453 -0.150241
C40   C     C_R   0.274348 0.635792 0.397167 0.544671
C41   C     C_R   0.820083 0.656136 0.328568 0.002394
C42   C     C_R   0.807579 0.105738 0.895130 0.530363
C43   C     C_R   0.399881 0.702213 0.895304 0.553439
C44   C     C_R   0.794069 0.696316 0.894928 0.547873
C45   C     C_R   0.839193 0.162460 0.821371 -0.032879
C46   C     C_R   0.806113 0.105087 0.103035 0.541026
C47   C     C_R   0.457723 0.727917 0.110986 0.558309
C48   C     C_R   0.796167 0.699804 0.106801 0.551999
C49   C     C_R   0.863831 0.231252 0.395345 0.545261
C50   C     C_R   0.271535 0.742468 0.718359 -0.125088
C51   C     C_R   0.295854 0.753778 0.791018 -0.129892
C52   C     C_R   0.367298 0.690728 0.820622 0.038662
C53   C     C_3   0.137246 0.948751 0.179521 -0.280765
C54   C     C_R   0.087035 0.222567 0.824104 -0.089707
C55   C     C_R   0.207827 0.242784 0.789193 -0.123908
C56   C     C_R   0.204053 0.217438 0.716610 -0.129735
C57   C     C_R   0.081591 0.179599 0.677908 -0.081235
Cr1   Cr    Cr6+3 0.791660 0.390250 0.499930 1.009969
Cr2   Cr    Cr6+3 0.098520 0.708290 0.500540 1.003042
Cr3   Cr    Cr6+3 0.109770 0.401430 0.499480 1.006258
Cr4   Cr    Cr6+3 0.874790 0.925890 0.000070 1.017982
Cr5   Cr    Cr6+3 0.574120 0.948670 0.999300 1.006234
Cr6   Cr    Cr6+3 0.551420 0.625320 0.000920 0.999931
H1    H     H_    0.207370 0.783085 0.696435 0.138303
H2    H     H_    0.492644 0.568936 0.206157 0.130635
H3    H     H_    0.347900 0.868143 0.184369 0.115022
H4    H     H_    0.255915 0.807452 0.824012 0.121057
H5    H     H_    0.277477 0.834744 0.309358 0.128740
H6    H     H_    0.624791 0.066200 0.324610 0.127962
H7    H     H_    0.603625 0.032319 0.198030 0.136129
H8    H     H_    0.056395 0.259248 0.174308 0.125488
H9    H     H_    0.079432 0.299774 0.303044 0.144811
H10   H     H_    0.967628 0.879632 0.328898 0.126396
H11   H     H_    0.653698 0.458304 0.182911 0.123890
H12   H     H_    0.378345 0.039760 0.674145 0.102834
H13   H     H_    0.668513 0.433697 0.311142 0.143546
H14   H     H_    0.481146 0.578669 0.799361 0.139578
H15   H     H_    0.440156 0.560957 0.672678 0.127320
H16   H     H_    0.304322 0.277844 0.818829 0.103442
H17   H     H_    0.296757 0.228529 0.689996 0.102615
H18   H     H_    0.094560 0.244723 0.880467 0.130517
H19   H     H_    0.081650 0.154696 0.622329 0.126777
H20   H     H_    0.628001 0.225500 0.858648 0.132726
H21   H     H_    0.013259 0.016963 0.226117 0.243720
H22   H     H_    0.202202 0.048678 0.150012 0.135754
H23   H     H_    0.571634 0.021916 0.618726 0.122500
H24   H     H_    0.125603 0.859432 0.146172 0.174373
H25   H     H_    0.192635 0.952919 0.229600 0.108637
H26   H     H_    0.409468 0.144815 0.793789 0.100192
H27   H     H_    0.666633 0.431719 0.688740 0.146537
H28   H     H_    0.646181 0.454025 0.817121 0.109428
H29   H     H_    0.949700 0.900513 0.802438 0.153959
H30   H     H_    0.966500 0.879950 0.676464 0.129225
H31   H     H_    0.428646 0.538737 0.330834 0.130090
N1    N     N_2   0.001112 0.933732 0.195401 -0.469567
O1    O     O_R   0.766500 0.250040 0.579790 -0.517716
O2    O     O_R   0.413330 0.603360 0.920440 -0.526912
O3    O     O_R   0.676110 0.626250 0.926750 -0.509953
O4    O     O_R   0.798570 0.516780 0.574780 -0.504389
O5    O     O_R   0.895350 0.809870 0.080950 -0.478780
O6    O     O_R   0.872490 0.049760 0.073800 -0.487242
O7    O     O_R   0.691680 0.088070 0.079070 -0.537690
O8    O     O_R   0.451720 0.825250 0.074050 -0.510454
O9    O     O_R   0.413580 0.606370 0.080960 -0.513900
O10   O     O_R   0.676340 0.629040 0.075550 -0.530279
O11   O     O_3   0.666780 0.833290 0.000090 -0.267474
O12   O     O_R   0.218690 0.701900 0.425960 -0.503916
O13   O     O_R   0.984000 0.732950 0.581090 -0.531787
O14   O     O_R   0.218600 0.700890 0.574760 -0.513380
O15   O     O_R   0.249390 0.515350 0.579940 -0.515980
O16   O     O_R   0.982790 0.280900 0.573700 -0.504007
O17   O     O_R   0.766600 0.251130 0.419260 -0.525320
O18   O     O_R   0.798660 0.517790 0.425980 -0.505675
O19   O     O_R   0.984100 0.734040 0.420570 -0.526567
O20   O     O_R   0.249490 0.516440 0.419420 -0.530065
O21   O     O_R   0.982880 0.281910 0.424890 -0.511775
O22   O     O_3   0.999980 0.499990 0.499980 -0.236363
O23   O     O_R   0.895110 0.806860 0.920430 -0.524865
O24   O     O_R   0.872260 0.046970 0.925000 -0.506704
O25   O     O_R   0.691430 0.085060 0.918550 -0.522451
O26   O     O_R   0.451490 0.822460 0.925250 -0.490827

loop_
_geom_bond_atom_site_label_1
_geom_bond_atom_site_label_2
_ccdc_geom_bond_type
C55   C56   A    
C6    C45   A    
C13   H27   S    
C53   N1    S    
C50   H1    S    
C10   H20   S    
C35   C36   A    
C4    O14   A    
C26   C40   S    
C1    O4    A    
C2    C57   A    
C7    C8    A    
C39   C41   A    
C27   C33   A    
C46   O7    A    
C12   C23   A    
C29   C30   A    
C20   C26   A    
C54   H18   S    
Cr1   O17   S    
C36   C37   A    
C15   C44   S    
Cr5   O8    S    
Cr6   O3    S    
C30   C31   A    
C3    C54   A    
C42   O24   A    
C7    H23   S    
Cr4   O24   S    
C33   C49   S    
C28   C41   S    
C56   C57   A    
C18   C19   A    
Cr1   O1    S    
C20   H31   S    
C44   O3    A    
C48   O10   A    
C8    C9    A    
Cr1   O18   S    
Cr6   O10   S    
C9    C10   A    
C43   O26   A    
Cr5   O25   S    
C27   H6    S    
C24   H3    S    
C31   H8    S    
C22   C47   S    
Cr2   O22   S    
C13   C14   A    
C25   H5    S    
C35   C41   A    
C2    C11   A    
C12   C52   A    
C50   C51   A    
C38   C39   A    
C48   O5    A    
C46   O6    A    
C4    C34   S    
C16   O1    A    
C1    C19   S    
C13   C19   A    
C51   C52   A    
C47   O8    A    
C24   C25   A    
C32   H9    S    
C9    H26   S    
C5    C7    A    
C25   C26   A    
C3    C45   A    
C8    H12   S    
Cr2   O12   S    
Cr6   O11   S    
H21   N1    S    
Cr4   O6    S    
C37   C38   A    
C55   H16   S    
C11   C16   S    
C31   C32   A    
C44   O23   A    
C23   C34   A    
C12   H14   S    
C17   C18   A    
Cr3   O22   S    
C53   H24   S    
C51   H4    S    
C39   H13   S    
C37   C48   S    
Cr4   O11   S    
C28   O19   A    
C40   O12   A    
C49   O17   A    
C22   C24   A    
Cr3   O21   S    
Cr4   O5    S    
C29   H7    S    
C38   H11   S    
C15   C17   A    
C4    O15   A    
C54   C55   A    
C35   H10   S    
C47   O9    A    
C21   H2    S    
Cr4   O23   S    
C14   C15   A    
C30   C46   S    
Cr1   O4    S    
C43   O2    A    
Cr6   O9    S    
C6    C10   A    
C34   C50   A    
C5    C11   A    
Cr5   O11   S    
Cr2   O13   S    
C56   H17   S    
C32   C33   A    
C2    C3    A    
Cr6   O2    S    
Cr3   O16   S    
C36   N1    S    
C42   O25   A    
C5    C6    A    
C27   C29   A    
Cr2   O19   S    
Cr2   O14   S    
C53   H25   S    
Cr1   O22   S    
C23   H15   S    
C43   C52   S    
C14   H28   S    
Cr3   O15   S    
C28   O18   A    
C1    O13   A    
C40   O20   A    
C17   H29   S    
C49   O21   A    
C20   C21   A    
C18   H30   S    
C57   H19   S    
Cr3   O20   S    
C53   H22   S    
C21   C22   A    
C42   C45   S    
Cr5   O26   S    
C16   O16   A    
Cr5   O7    S    
