data_mof_unit_23258.cif
_audit_creation_date              2012-12-10T18:59:59-0500
_audit_creation_method            fapswitch 2.2
_symmetry_space_group_name_H-M    P1
_symmetry_Int_Tables_number       1
_space_group_crystal_system       triclinic
_cell_length_a                    10.706642
_cell_length_b                    10.702334
_cell_length_c                    9.818165
_cell_angle_alpha                 90.066706
_cell_angle_beta                  89.914133
_cell_angle_gamma                 90.346783
_cell_volume                      1125.00221068

loop_
_atom_site_label
_atom_site_type_symbol
_atom_type_description
_atom_site_fract_x
_atom_site_fract_y
_atom_site_fract_z
_atom_type_partial_charge
C1    C     C_R   0.499925 0.259835 0.499905 0.858345
C2    C     C_R   0.467562 0.063945 0.619175 -0.214156
C3    C     C_R   0.500101 0.872552 0.500112 -0.005326
C4    C     C_R   0.499894 0.127448 0.499888 -0.005326
C5    C     C_R   0.576061 0.579717 0.071975 -0.081546
C6    C     C_R   0.423939 0.420283 0.928025 -0.081549
C7    C     C_R   0.576028 0.579682 0.927922 -0.058373
C8    C     C_R   0.423972 0.420317 0.072078 -0.058374
C9    C     C_R   0.260054 0.503870 0.499887 0.872879
C10   C     C_R   0.739946 0.496130 0.500113 0.872877
C11   C     C_R   0.254738 0.792632 0.187837 -0.121191
C12   C     C_R   0.500074 0.740164 0.500095 0.858348
C13   C     C_R   0.745254 0.207371 0.812161 -0.121188
C14   C     C_R   0.193422 0.734036 0.296478 -0.105389
C15   C     C_R   0.806571 0.265966 0.703521 -0.105378
C16   C     C_R   0.122479 0.625031 0.274041 0.140647
C17   C     C_R   0.877520 0.374967 0.725959 0.140644
C18   C     C_R   0.112285 0.576800 0.141317 -0.169346
C19   C     C_R   0.887721 0.423193 0.858685 -0.169350
C20   C     C_R   0.173885 0.635634 0.033037 -0.139845
C21   C     C_R   0.826121 0.364359 0.966965 -0.139845
C22   C     C_R   0.245397 0.743206 0.056357 -0.106850
C23   C     C_R   0.872449 0.492947 0.500260 -0.079241
C24   C     C_R   0.754602 0.256793 0.943643 -0.106852
C25   C     C_R   0.933492 0.550107 0.390832 -0.260514
C26   C     C_R   0.066508 0.449892 0.609168 -0.260514
C27   C     C_R   0.127551 0.507051 0.499740 -0.079240
C28   C     C_R   0.938449 0.440858 0.610361 -0.002734
C29   C     C_R   0.061551 0.559140 0.389639 -0.002737
C30   C     C_R   0.532240 0.064033 0.380674 -0.208989
C31   C     C_R   0.467753 0.935967 0.619325 -0.208988
C32   C     C_R   0.532431 0.936055 0.380824 -0.214155
H1    H     H_    0.293621 0.788191 0.972567 0.118562
H2    H     H_    0.832947 0.402736 0.068772 0.132890
H3    H     H_    0.881168 0.591836 0.308086 0.155694
H4    H     H_    0.118832 0.408163 0.691914 0.155692
H5    H     H_    0.558497 0.887161 0.288412 0.148975
H6    H     H_    0.441495 0.112839 0.711587 0.148973
H7    H     H_    0.636932 0.643247 0.126676 0.117392
H8    H     H_    0.363068 0.356753 0.873324 0.117391
H9    H     H_    0.202278 0.772566 0.398102 0.103091
H10   H     H_    0.797710 0.227441 0.601895 0.103087
H11   H     H_    0.558259 0.112980 0.288204 0.149540
H12   H     H_    0.706379 0.211807 0.027433 0.118562
H13   H     H_    0.441734 0.887019 0.711794 0.149540
H14   H     H_    0.636965 0.643101 0.873131 0.125465
H15   H     H_    0.363035 0.356898 0.126869 0.125465
H16   H     H_    0.309886 0.876099 0.205646 0.128909
H17   H     H_    0.690101 0.123907 0.794351 0.128908
H18   H     H_    0.058715 0.492444 0.122363 0.121991
H19   H     H_    0.941297 0.507546 0.877640 0.121993
H20   H     H_    0.167065 0.597253 0.931231 0.132890
N1    N     N_R   0.499970 0.499970 0.857200 -0.074478
N2    N     N_R   0.500030 0.500030 0.142800 -0.074478
O1    O     O_R   0.499990 0.316750 0.614620 -0.623484
O2    O     O_R   0.500010 0.683250 0.385380 -0.623483
O3    O     O_R   0.499990 0.316780 0.385290 -0.631320
O4    O     O_R   0.500010 0.683220 0.614710 -0.631320
O5    O     O_R   0.316760 0.500000 0.614660 -0.631964
O6    O     O_R   0.683240 0.500000 0.385340 -0.631963
O7    O     O_R   0.316760 0.500020 0.385330 -0.605365
O8    O     O_R   0.683240 0.499980 0.614670 -0.605365
Zn1   Zn    Zn3+2 0.500000 0.499980 0.653120 0.945734
Zn2   Zn    Zn3+2 0.500000 0.500020 0.346880 0.945735

loop_
_geom_bond_atom_site_label_1
_geom_bond_atom_site_label_2
_ccdc_geom_bond_type
O7    Zn2   S    
C2    C4    A    
O3    Zn2   S    
O2    Zn2   S    
O8    Zn1   S    
C9    O7    A    
C1    O3    A    
C10   C23   S    
C27   C29   A    
C5    C7    A    
C2    H6    S    
C11   C22   A    
C10   O6    A    
C21   H2    S    
O6    Zn2   S    
C1    C4    S    
C12   O4    A    
C13   C15   A    
C11   H16   S    
C8    H15   S    
C20   H20   S    
C12   O2    A    
C23   C28   A    
C3    C31   A    
N1    Zn1   S    
C9    C27   S    
C26   C27   A    
C10   O8    A    
N2    Zn2   S    
C25   H3    S    
C14   H9    S    
C13   H17   S    
C13   C24   A    
C26   H4    S    
C17   C19   A    
C20   C22   A    
C18   C20   A    
C23   C25   A    
C1    O1    A    
C3    C32   A    
C24   H12   S    
C11   C14   A    
C14   C16   A    
C30   H11   S    
O5    Zn1   S    
C7    N1    A    
C6    N1    A    
C30   C32   A    
C7    H14   S    
C19   H19   S    
C5    N2    A    
C6    H8    S    
C18   H18   S    
C25   C29   A    
C16   C18   A    
C31   H13   S    
C21   C24   A    
C8    N2    A    
O4    Zn1   S    
C15   C17   A    
C5    H7    S    
C6    C8    A    
C3    C12   S    
C19   C21   A    
C16   C29   S    
C32   H5    S    
C17   C28   S    
C26   C28   A    
C4    C30   A    
C15   H10   S    
O1    Zn1   S    
C2    C31   A    
C9    O5    A    
C22   H1    S    
