data_mof_unit_14788.cif
_audit_creation_date              2012-12-10T18:51:32-0500
_audit_creation_method            fapswitch 2.2
_symmetry_space_group_name_H-M    P1
_symmetry_Int_Tables_number       1
_space_group_crystal_system       triclinic
_cell_length_a                    10.712012
_cell_length_b                    9.978661
_cell_length_c                    10.513258
_cell_angle_alpha                 89.685234
_cell_angle_beta                  92.754553
_cell_angle_gamma                 90.076869
_cell_volume                      1122.46226177

loop_
_atom_site_label
_atom_site_type_symbol
_atom_type_description
_atom_site_fract_x
_atom_site_fract_y
_atom_site_fract_z
_atom_type_partial_charge
C1    C     C_R   0.872390 0.500070 0.499670 -0.002785
C2    C     C_3   0.397894 0.434190 0.037871 -0.312961
C3    C     C_3   0.397699 0.559940 0.952955 0.440676
C4    C     C_3   0.602244 0.440066 0.047049 0.518296
C5    C     C_3   0.500354 0.498309 0.877126 -0.175650
C6    C     C_3   0.499587 0.501690 0.122873 -0.185015
C7    C     C_R   0.579376 0.071352 0.581591 0.155661
C8    C     C_R   0.420622 0.928651 0.418418 0.161081
C9    C     C_R   0.420522 0.071886 0.418507 0.175748
C10   C     C_R   0.579477 0.928116 0.581493 0.167894
C11   C     C_R   0.063668 0.377814 0.499537 -0.143071
C12   C     C_R   0.127603 0.499929 0.500183 -0.009764
C13   C     C_R   0.936322 0.622186 0.500262 -0.131091
C14   C     C_R   0.935891 0.377883 0.498648 -0.086218
C15   C     C_R   0.064099 0.622117 0.501148 -0.083756
C16   C     C_R   0.260292 0.499945 0.499989 0.909941
C17   C     C_R   0.739706 0.500055 0.499979 0.918847
C18   C     C_R   0.499501 0.500492 0.257792 0.964503
C19   C     C_R   0.500458 0.499508 0.742207 0.970261
C20   C     C_3   0.497686 0.628685 0.039668 -0.216380
C21   C     C_3   0.502264 0.371314 0.960330 -0.194064
C22   C     C_3   0.602060 0.565795 0.962127 -0.261588
H1    H     H_    0.494895 0.733520 0.074141 0.220299
H2    H     H_    0.907297 0.278488 0.037162 0.399202
H3    H     H_    0.505043 0.266475 0.925864 0.216174
H4    H     H_    0.686904 0.616503 0.929147 0.220023
H5    H     H_    0.313105 0.383385 0.070857 0.203650
H6    H     H_    0.111728 0.282423 0.499829 0.186739
H7    H     H_    0.888261 0.717577 0.499975 0.184739
H8    H     H_    0.887472 0.282532 0.497002 0.189040
H9    H     H_    0.112517 0.717468 0.502795 0.190661
H10   H     H_    0.151718 0.601045 0.052633 0.358421
I1    I     I_    0.704867 0.174212 0.711524 -0.194387
I2    I     I_    0.295119 0.825792 0.288537 -0.219559
I3    I     I_    0.293754 0.175127 0.289534 -0.260531
I4    I     I_    0.706241 0.824878 0.710454 -0.226027
N1    N     N_R   0.500000 0.857200 0.500000 -0.146456
N2    N     N_R   0.500000 0.142800 0.500000 -0.146071
O1    O     O_R   0.316770 0.614620 0.499990 -0.599212
O2    O     O_2   0.188641 0.540283 0.801943 -0.317165
O3    O     O_3   0.168185 0.684579 0.004892 -0.469078
O4    O     O_2   0.809925 0.460205 0.198736 -0.332233
O5    O     O_2   0.706955 0.240108 0.187515 -0.275844
O6    O     O_3   0.831910 0.318718 0.994156 -0.509736
O7    O     O_R   0.683230 0.385380 0.500010 -0.598419
O8    O     O_R   0.683230 0.614620 0.500010 -0.622268
O9    O     O_R   0.316770 0.385380 0.499990 -0.621225
O10   O     O_R   0.499970 0.614650 0.313950 -0.612507
O11   O     O_R   0.500030 0.385350 0.686050 -0.611700
O12   O     O_R   0.500030 0.614650 0.686050 -0.573563
O13   O     O_R   0.499970 0.385350 0.313950 -0.569736
O14   O     O_2   0.293313 0.758887 0.811081 -0.236694
S1    S     S_3+6 0.259076 0.637536 0.887170 0.063802
S2    S     S_3+6 0.740823 0.362593 0.112788 0.040944
Zn1   Zn    Zn3+2 0.500000 0.653120 0.500000 1.043208
Zn2   Zn    Zn3+2 0.500000 0.346880 0.500000 1.044941

loop_
_geom_bond_atom_site_label_1
_geom_bond_atom_site_label_2
_ccdc_geom_bond_type
O8    Zn1   S    
C7    C10   A    
H10   O3    S    
C20   H1    S    
C15   H9    S    
C2    H5    S    
C5    C19   S    
O10   Zn1   S    
O11   Zn2   S    
C4    C22   S    
C19   O11   A    
O5    S2    D    
C1    C17   S    
O12   Zn1   S    
C12   C15   A    
C11   C12   A    
C2    C21   S    
C2    C3    S    
C17   O8    A    
C5    C21   S    
C3    C20   S    
C8    I2    S    
C3    S1    S    
C4    C21   S    
C7    I1    S    
C19   O12   A    
O3    S1    S    
C2    C6    S    
C6    C20   S    
C14   H8    S    
C10   N1    A    
H2    O6    S    
C11   H6    S    
C16   O9    A    
C13   H7    S    
C9    N2    A    
C7    N2    A    
C20   C22   S    
C18   O13   A    
O2    S1    D    
C13   C15   A    
C6    C18   S    
C11   C14   A    
O1    Zn1   S    
C1    C13   A    
C8    N1    A    
C16   O1    A    
N1    Zn1   S    
O6    S2    S    
N2    Zn2   S    
O14   S1    D    
C4    C6    S    
O13   Zn2   S    
C22   H4    S    
C9    I3    S    
C21   H3    S    
O9    Zn2   S    
C10   I4    S    
C1    C14   A    
C4    S2    S    
O4    S2    D    
C5    C22   S    
C12   C16   S    
O7    Zn2   S    
C17   O7    A    
C8    C9    A    
C3    C5    S    
C18   O10   A    
