data_mof_unit_66710.cif
_audit_creation_date              2012-12-11T14:13:22-0500
_audit_creation_method            fapswitch 2.2
_symmetry_space_group_name_H-M    P1
_symmetry_Int_Tables_number       1
_space_group_crystal_system       triclinic
_cell_length_a                    11.789641
_cell_length_b                    18.52906
_cell_length_c                    10.42678
_cell_angle_alpha                 88.38593
_cell_angle_beta                  111.120735
_cell_angle_gamma                 90.6623
_cell_volume                      2123.88338804

loop_
_atom_site_label
_atom_site_type_symbol
_atom_type_description
_atom_site_fract_x
_atom_site_fract_y
_atom_site_fract_z
_atom_type_partial_charge
Br1   Br    Br    0.222547 0.343031 0.507070 -0.307354
Br2   Br    Br    0.777453 0.656971 0.492932 -0.307354
Br3   Br    Br    0.743360 0.824217 0.633152 -0.300405
Br4   Br    Br    0.256637 0.175784 0.366856 -0.300404
Br5   Br    Br    0.432432 0.667655 0.715892 -0.352246
Br6   Br    Br    0.567570 0.332346 0.284108 -0.352247
Br7   Br    Br    0.698884 0.152763 0.360683 -0.324016
Br8   Br    Br    0.301110 0.847238 0.639313 -0.324014
C1    C     C_R   0.076076 0.645622 0.142817 0.582863
C2    C     C_2   0.605313 0.070193 0.072801 0.142199
C3    C     C_2   0.610298 0.432760 0.011871 0.082302
C4    C     C_2   0.389702 0.567240 0.988129 0.082302
C5    C     C_2   0.472488 0.969275 0.021539 0.091030
C6    C     C_2   0.527513 0.030725 0.978460 0.091031
C7    C     C_2   0.503198 0.460841 0.999090 0.082252
C8    C     C_2   0.496802 0.539159 0.000910 0.082252
C9    C     C_2   0.100187 0.938086 0.131551 -0.065343
C10   C     C_2   0.899829 0.061915 0.868453 -0.065332
C11   C     C_2   0.972945 0.428182 0.873395 -0.048985
C12   C     C_R   0.923924 0.354378 0.857183 0.582863
C13   C     C_2   0.027056 0.571818 0.126605 -0.048985
C14   C     C_2   0.001996 0.962359 0.028061 0.097324
C15   C     C_2   0.998017 0.037643 0.971947 0.097322
C16   C     C_2   0.007392 0.460408 0.995433 0.087243
C17   C     C_2   0.992610 0.539591 0.004567 0.087243
C18   C     C_R   0.472450 0.646905 0.440180 0.612454
C19   C     C_R   0.527550 0.353095 0.559821 0.612454
C20   C     C_R   0.529820 0.147499 0.559057 0.606517
C21   C     C_R   0.470180 0.852501 0.440943 0.606516
C22   C     C_R   0.373024 0.642975 0.976029 0.622450
C23   C     C_R   0.872882 0.138912 0.844823 0.548933
C24   C     C_R   0.626976 0.357025 0.023971 0.622451
C25   C     C_R   0.627053 0.143260 0.032384 0.599844
C26   C     C_R   0.372948 0.856740 0.967615 0.599842
C27   C     C_R   0.486931 0.424503 0.490858 0.050056
C28   C     C_R   0.513070 0.575498 0.509144 0.050056
C29   C     C_R   0.497357 0.923403 0.510228 0.054386
C30   C     C_R   0.502641 0.076597 0.489771 0.054385
C31   C     C_R   0.292166 0.438632 0.543667 0.197628
C32   C     C_R   0.707835 0.561369 0.456336 0.197628
C33   C     C_R   0.721294 0.923611 0.570990 0.186486
C34   C     C_R   0.127125 0.861087 0.155180 0.548935
C35   C     C_R   0.278703 0.076390 0.429010 0.186487
C36   C     C_R   0.214652 0.485716 0.574872 -0.106216
C37   C     C_R   0.785349 0.514285 0.425130 -0.106215
C38   C     C_R   0.827250 0.963438 0.590830 -0.098905
C39   C     C_R   0.172747 0.036562 0.409167 -0.098905
C40   C     C_R   0.248994 0.556087 0.611184 0.080213
C41   C     C_R   0.751007 0.443914 0.388818 0.080214
C42   C     C_R   0.821416 0.033611 0.537169 0.108155
C43   C     C_R   0.178580 0.966390 0.462827 0.108157
C44   C     C_R   0.364298 0.579724 0.621407 0.173695
C45   C     C_R   0.402529 0.465966 0.529712 -0.002680
C46   C     C_R   0.635703 0.420277 0.378595 0.173696
C47   C     C_R   0.708695 0.066738 0.475657 0.203218
C48   C     C_R   0.291301 0.933262 0.524340 0.203217
C49   C     C_R   0.429895 0.539884 0.557680 -0.039006
C50   C     C_R   0.570107 0.460117 0.442323 -0.039006
C51   C     C_R   0.604693 0.034816 0.492707 -0.035890
C52   C     C_R   0.395304 0.965184 0.507290 -0.035891
C53   C     C_R   0.597473 0.534035 0.470291 -0.002680
C54   C     C_R   0.607119 0.959291 0.522003 0.002395
C55   C     C_R   0.392878 0.040709 0.477996 0.002394
C56   C     C_2   0.394687 0.929806 0.927198 0.142199
Cr1   Cr    Cr6+3 0.187610 0.750000 0.979860 1.165894
Cr2   Cr    Cr6+3 0.812390 0.250000 0.020140 1.165895
Cr3   Cr    Cr6+3 0.245810 0.750000 0.341640 1.146409
Cr4   Cr    Cr6+3 0.754190 0.250000 0.658360 1.146410
Cr5   Cr    Cr6+3 0.485760 0.750000 0.219910 1.162796
Cr6   Cr    Cr6+3 0.514240 0.250000 0.780090 1.162797
H1    H     H_    0.125611 0.467582 0.570109 0.168443
H2    H     H_    0.874390 0.532420 0.429892 0.168443
H3    H     H_    0.914632 0.939167 0.646801 0.193062
H4    H     H_    0.085365 0.060834 0.353195 0.193063
H5    H     H_    0.826448 0.025993 0.816226 0.098183
H6    H     H_    0.173573 0.974006 0.183777 0.098186
H7    H     H_    0.049398 0.539776 0.221059 0.127229
H8    H     H_    0.950604 0.460224 0.778941 0.127229
I1    I     I_    0.112183 0.628580 0.609721 -0.138566
I2    I     I_    0.239574 0.991277 0.805401 -0.226234
I3    I     I_    0.322370 0.534008 0.144255 -0.320057
I4    I     I_    0.677632 0.465992 0.855746 -0.320058
I5    I     I_    0.152678 0.108039 0.038348 -0.147400
I6    I     I_    0.847330 0.891966 0.961661 -0.147398
I7    I     I_    0.897805 0.603049 0.825930 -0.147129
I8    I     I_    0.102197 0.396951 0.174070 -0.147126
I9    I     I_    0.887818 0.371422 0.390278 -0.138568
I10   I     I_    0.982477 0.091473 0.554267 -0.145064
I11   I     I_    0.017519 0.908528 0.445728 -0.145062
I12   I     I_    0.580649 0.014127 0.812652 -0.365614
I13   I     I_    0.419351 0.985872 0.187347 -0.365621
I14   I     I_    0.665911 0.602221 0.072216 -0.184115
I15   I     I_    0.334089 0.397779 0.927784 -0.184116
I16   I     I_    0.760427 0.008723 0.194598 -0.226231
O1    O     O_R   0.267710 0.668200 0.902110 -0.452305
O2    O     O_R   0.883280 0.330790 0.732340 -0.478735
O3    O     O_R   0.883280 0.169210 0.732340 -0.446769
O4    O     O_R   0.116720 0.830790 0.267660 -0.446767
O5    O     O_R   0.366710 0.675440 0.427590 -0.464456
O6    O     O_R   0.633290 0.324560 0.572410 -0.464456
O7    O     O_R   0.633290 0.175440 0.572410 -0.482885
O8    O     O_R   0.366710 0.824560 0.427590 -0.482888
O9    O     O_R   0.534870 0.669390 0.371760 -0.461461
O10   O     O_R   0.465130 0.330610 0.628240 -0.461461
O11   O     O_R   0.465130 0.169390 0.628240 -0.452211
O12   O     O_R   0.732290 0.331800 0.097890 -0.452304
O13   O     O_R   0.534870 0.830610 0.371760 -0.452211
O14   O     O_R   0.453080 0.674480 0.075160 -0.473146
O15   O     O_R   0.546920 0.325520 0.924840 -0.473147
O16   O     O_R   0.546920 0.174480 0.924840 -0.478711
O17   O     O_R   0.453080 0.825520 0.075160 -0.478711
O18   O     O_3   0.306390 0.750000 0.180470 -0.355893
O19   O     O_3   0.693610 0.250000 0.819530 -0.355889
O20   O     O_R   0.732290 0.168200 0.097890 -0.453208
O21   O     O_R   0.267710 0.831800 0.902110 -0.453209
O22   O     O_R   0.099480 0.674460 0.038850 -0.459045
O23   O     O_R   0.900520 0.325540 0.961150 -0.459046
O24   O     O_R   0.900520 0.174460 0.961150 -0.459620
O25   O     O_R   0.099480 0.825540 0.038850 -0.459616
O26   O     O_R   0.116720 0.669210 0.267660 -0.478735

loop_
_geom_bond_atom_site_label_1
_geom_bond_atom_site_label_2
_ccdc_geom_bond_type
C10   H5    S    
Cr2   O19   S    
C47   C51   A    
C27   C45   A    
Cr1   O21   S    
C41   I9    S    
C11   C12   S    
Br7   C47   S    
Br8   C48   S    
C29   C54   A    
Cr5   O13   S    
C35   C55   A    
C23   O24   A    
C25   O20   A    
Cr4   O2    S    
C15   I5    S    
C27   C50   A    
C40   I1    S    
Cr2   O12   S    
C34   O4    A    
Cr5   O18   S    
Cr6   O10   S    
C34   O25   A    
C2    I16   S    
C7    C8    S    
C19   O10   A    
C36   H1    S    
C43   C48   A    
Cr4   O3    S    
C6    I12   S    
Cr6   O16   S    
Cr3   O4    S    
C9    C34   S    
C3    C7    D    
C20   O7    A    
C4    C8    D    
Cr2   O23   S    
C4    I3    S    
C9    H6    S    
C33   C38   A    
Br5   C44   S    
C20   C30   S    
Cr3   O26   S    
Cr3   O5    S    
C18   O5    A    
C22   O14   A    
C50   C53   A    
C12   O2    A    
Cr6   O19   S    
C41   C46   A    
C24   O12   A    
C5    C6    S    
C5    I13   S    
C37   H2    S    
C26   O17   A    
C56   I2    S    
C33   C54   A    
Br6   C46   S    
C26   C56   S    
C12   O23   A    
Cr5   O14   S    
C38   C42   A    
Cr5   O9    S    
C3    I4    S    
C32   C37   A    
C19   O6    A    
C24   O15   A    
Cr1   O1    S    
C10   C15   D    
C16   C17   S    
C28   C49   A    
C2    C6    D    
C45   C49   A    
C39   C43   A    
C19   C27   S    
C26   O21   A    
C32   C53   A    
C48   C52   A    
C14   I6    S    
C11   H8    S    
Cr4   O6    S    
Cr1   O18   S    
C22   O1    A    
Cr6   O15   S    
C18   O9    A    
C37   C41   A    
C20   O11   A    
C17   I7    S    
Cr1   O25   S    
Cr4   O7    S    
C18   C28   S    
C3    C24   S    
C8    I14   S    
C52   C55   A    
Cr1   O22   S    
C21   C29   S    
C28   C53   A    
C30   C55   A    
C46   C50   A    
C13   C17   D    
Br3   C33   S    
C51   C54   A    
Cr2   O20   S    
C4    C22   S    
C1    O22   A    
C9    C14   D    
C39   H4    S    
Cr6   O11   S    
C7    I15   S    
C31   C36   A    
C10   C23   S    
Br4   C35   S    
C42   I10   S    
Cr4   O19   S    
C42   C47   A    
C11   C16   D    
C43   I11   S    
Cr5   O17   S    
C1    C13   S    
C31   C45   A    
C5    C56   D    
C16   I8    S    
C21   O8    A    
C2    C25   S    
C23   O3    A    
C29   C52   A    
C44   C49   A    
Br1   C31   S    
C30   C51   A    
Br2   C32   S    
Cr3   O18   S    
C40   C44   A    
Cr2   O24   S    
C13   H7    S    
C1    O26   A    
C14   C15   S    
C21   O13   A    
C25   O16   A    
C35   C39   A    
C38   H3    S    
C36   C40   A    
Cr3   O8    S    
