data_mof_unit_15331.cif
_audit_creation_date              2012-12-10T20:42:39-0500
_audit_creation_method            fapswitch 2.2
_symmetry_space_group_name_H-M    P1
_symmetry_Int_Tables_number       1
_space_group_crystal_system       triclinic
_cell_length_a                    8.918013
_cell_length_b                    10.668734
_cell_length_c                    9.887994
_cell_angle_alpha                 89.834419
_cell_angle_beta                  89.789795
_cell_angle_gamma                 90.255935
_cell_volume                      940.762705959

loop_
_atom_site_label
_atom_site_type_symbol
_atom_type_description
_atom_site_fract_x
_atom_site_fract_y
_atom_site_fract_z
_atom_type_partial_charge
C1    C     C_R   0.505227 0.260113 0.500352 0.886159
C2    C     C_R   0.589097 0.938158 0.383033 0.180959
C3    C     C_R   0.538898 0.871718 0.499911 -0.167983
C4    C     C_R   0.522343 0.935657 0.622101 0.096275
C5    C     C_3   0.403997 0.926525 0.730482 -0.007639
C6    C     C_3   0.400468 0.069041 0.729700 -0.493041
C7    C     C_R   0.369381 0.485033 0.071141 0.182809
C8    C     C_R   0.626701 0.526958 0.071380 -0.134137
C9    C     C_R   0.626654 0.526846 0.927690 -0.131514
C10   C     C_R   0.368836 0.487852 0.928991 0.124085
C11   C     C_3   0.258297 0.383111 0.920113 -0.241367
C12   C     C_R   0.218766 0.499988 0.500067 0.929254
C13   C     C_3   0.258954 0.377950 0.074588 -0.116520
C14   C     C_R   0.509016 0.740019 0.499505 0.881631
C15   C     C_R   0.781260 0.500182 0.499797 0.929811
C16   C     C_1   0.065414 0.500165 0.499818 -0.198984
C17   C     C_1   0.934624 0.500241 0.499409 -0.190327
C18   C     C_R   0.518691 0.063277 0.622622 0.096648
C19   C     C_R   0.533017 0.129350 0.502269 -0.152141
C20   C     C_R   0.584206 0.068557 0.385882 -0.231915
H1    H     H_    0.611465 0.121718 0.295401 0.173808
H2    H     H_    0.303750 0.299686 0.867489 0.170656
H3    H     H_    0.150845 0.405186 0.122783 0.172262
H4    H     H_    0.297881 0.882596 0.694900 0.162945
H5    H     H_    0.292996 0.107901 0.691674 0.173256
H6    H     H_    0.443322 0.113398 0.823668 0.212667
H7    H     H_    0.729629 0.547163 0.124616 0.155425
H8    H     H_    0.729033 0.547870 0.873635 0.177479
N1    N     N_R   0.499010 0.499140 0.142800 -0.098426
N2    N     N_R   0.499010 0.499180 0.857150 -0.115972
O1    O     O_R   0.500020 0.316790 0.614690 -0.612470
O2    O     O_R   0.500000 0.316760 0.385350 -0.626271
O3    O     O_R   0.285350 0.500020 0.614650 -0.609315
O4    O     O_R   0.285340 0.499980 0.385310 -0.619547
O5    O     O_R   0.500000 0.683240 0.614650 -0.620167
O6    O     O_R   0.499980 0.683210 0.385310 -0.612487
O7    O     O_R   0.714660 0.500020 0.614690 -0.609769
O8    O     O_R   0.714650 0.499980 0.385350 -0.631795
Zn1   Zn    Zn3+2 0.500010 0.500020 0.653130 0.946035
Zn2   Zn    Zn3+2 0.499990 0.499980 0.346870 0.931787
C21   C     C_3   0.319399 0.253403 0.128562 -0.820368
H9    H     H_    0.441008 0.242759 0.106687 0.246444
H10   H     H_    0.298426 0.247328 0.238776 0.263491
H11   H     H_    0.257915 0.174264 0.081109 0.224435
C22   C     C_3   0.640446 0.875668 0.254086 -0.855412
H12   H     H_    0.724749 0.802458 0.277312 0.241590
H13   H     H_    0.543322 0.833870 0.200392 0.256910
H14   H     H_    0.694342 0.943747 0.183691 0.217507
C23   C     C_3   0.462255 0.871800 0.863747 -0.846014
H15   H     H_    0.473376 0.768741 0.855549 0.262595
H16   H     H_    0.573161 0.912408 0.890790 0.242745
H17   H     H_    0.381313 0.892241 0.946289 0.232469
C24   C     C_1   0.113743 0.424697 0.865895 0.189773
N3    N     N_1   0.999603 0.457178 0.823599 -0.218329

loop_
_geom_bond_atom_site_label_1
_geom_bond_atom_site_label_2
_ccdc_geom_bond_type
C7    C10   A    
O5    Zn1   S    
C15   O8    A    
C7    N1    A    
C11   C13   S    
C21   H9    S    
C10   N2    A    
C11   H2    S    
C19   C20   A    
C11   C24   S    
C7    C13   S    
C23   H17   S    
C4    C18   A    
C13   C21   S    
C2    C3    A    
O7    Zn1   S    
O3    Zn1   S    
C22   H12   S    
O8    Zn2   S    
C21   H10   S    
C5    C23   S    
C6    H6    S    
C3    C14   S    
C9    N2    A    
O4    Zn2   S    
C8    N1    A    
N1    Zn2   S    
O1    Zn1   S    
N2    Zn1   S    
C18   C19   A    
C22   H13   S    
C2    C22   S    
C14   O6    A    
C5    C6    S    
C6    C18   S    
C21   H11   S    
C1    C19   S    
C6    H5    S    
C16   C17   T    
C10   C11   S    
C2    C20   A    
C3    C4    A    
C5    H4    S    
C1    O1    A    
O2    Zn2   S    
C20   H1    S    
C13   H3    S    
C23   H15   S    
C22   H14   S    
C14   O5    A    
C15   C17   S    
C8    H7    S    
C4    C5    S    
O6    Zn2   S    
C12   O3    A    
C24   N3    T    
C12   O4    A    
C1    O2    A    
C15   O7    A    
C12   C16   S    
C9    H8    S    
C8    C9    A    
C23   H16   S    
