data_mof_unit_52329.cif
_audit_creation_date              2012-12-10T17:15:47-0500
_audit_creation_method            fapswitch 2.2
_symmetry_space_group_name_H-M    P1
_symmetry_Int_Tables_number       1
_space_group_crystal_system       triclinic
_cell_length_a                    10.237988
_cell_length_b                    10.762506
_cell_length_c                    10.543531
_cell_angle_alpha                 90.125433
_cell_angle_beta                  93.651096
_cell_angle_gamma                 80.279961
_cell_volume                      1142.70880655

loop_
_atom_site_label
_atom_site_type_symbol
_atom_type_description
_atom_site_fract_x
_atom_site_fract_y
_atom_site_fract_z
_atom_type_partial_charge
C1    C     C_R   0.446657 0.500614 0.265586 0.944335
C2    C     C_2   0.506719 0.390961 0.928796 0.342806
C3    C     C_2   0.070715 0.502368 0.480583 -0.009846
C4    C     C_R   0.503911 0.259172 0.509776 0.909416
C5    C     C_2   0.927979 0.504143 0.515376 0.002031
C6    C     C_R   0.553382 0.489722 0.735084 0.853003
C7    C     C_R   0.495368 0.740500 0.487188 0.855800
C8    C     C_R   0.754509 0.060245 0.491767 -0.044612
C9    C     C_R   0.844103 0.996080 0.409957 -0.295699
C10   C     C_R   0.807310 0.903434 0.329317 0.488653
C11   C     C_R   0.684549 0.864457 0.341212 -0.100447
C12   C     C_R   0.622156 0.036903 0.485152 0.050124
C13   C     C_R   0.598637 0.922855 0.432037 -0.034777
C14   C     C_3   0.939625 0.289785 0.333248 0.146492
C15   C     C_3   0.026807 0.265345 0.219862 -0.402046
C16   C     C_3   0.142242 0.157259 0.246244 -0.946701
C17   C     C_3   0.157244 0.687085 0.712457 0.202933
C18   C     C_3   0.227439 0.677237 0.845626 -0.398249
C19   C     C_3   0.332221 0.763280 0.859912 -0.892230
C20   C     C_1   0.805573 0.134945 0.591473 0.207997
C21   C     C_3   0.964255 0.740040 0.276804 0.091009
C22   C     C_3   0.072534 0.698931 0.185484 -0.349493
C23   C     C_R   0.509055 0.124065 0.517397 -0.100136
C24   C     C_3   0.175233 0.786812 0.191388 -0.779898
C25   C     C_1   0.637665 0.783394 0.245543 0.216547
C26   C     C_1   0.244931 0.930753 0.515153 0.143584
C27   C     C_3   0.354515 0.250814 0.914524 0.098225
C28   C     C_3   0.277483 0.181079 0.817473 -0.313368
C29   C     C_3   0.169586 0.123180 0.877243 -0.982082
C30   C     C_1   0.587941 0.285573 0.136374 0.193755
C31   C     C_3   0.752239 0.577428 0.917061 0.096569
C32   C     C_3   0.856683 0.470071 0.973994 -0.376180
C33   C     C_3   0.989644 0.468679 0.917114 -0.951097
C34   C     C_R   0.387340 0.084291 0.526081 -0.293689
C35   C     C_R   0.375648 0.960789 0.506265 0.024239
C36   C     C_R   0.486079 0.875780 0.467782 -0.148759
C37   C     C_2   0.424284 0.480892 0.129242 -0.407636
C38   C     C_2   0.504845 0.390106 0.069007 -0.031281
C39   C     C_2   0.574897 0.472008 0.873682 0.227020
H1    H     H_    0.298884 0.150266 0.546160 0.170345
H2    H     H_    0.209704 0.182941 0.324730 0.270864
H3    H     H_    0.199853 0.139173 0.160699 0.263612
H4    H     H_    0.105192 0.070379 0.272243 0.279390
H5    H     H_    0.064249 0.757252 0.713342 0.104470
H6    H     H_    0.221431 0.723383 0.648103 0.209900
H7    H     H_    0.153446 0.705653 0.916695 0.191003
H8    H     H_    0.274935 0.578431 0.866136 0.261105
H9    H     H_    0.409049 0.738791 0.790255 0.273885
H10   H     H_    0.382417 0.753192 0.956504 0.277921
H11   H     H_    0.284767 0.862794 0.843835 0.259422
H12   H     H_    0.350268 0.547329 0.075813 0.136389
H13   H     H_    0.899578 0.666757 0.276455 0.144984
H14   H     H_    0.011669 0.746039 0.374312 0.143292
H15   H     H_    0.122347 0.601334 0.209403 0.185054
H16   H     H_    0.025845 0.698982 0.087738 0.215314
H17   H     H_    0.217786 0.793107 0.290083 0.262509
H18   H     H_    0.129311 0.882003 0.155443 0.279392
H19   H     H_    0.257513 0.750050 0.131514 0.223704
H20   H     H_    0.283154 0.325451 0.958191 0.139425
H21   H     H_    0.403433 0.182099 0.988718 0.147571
H22   H     H_    0.230766 0.247834 0.740801 0.247696
H23   H     H_    0.895228 0.552142 0.601191 0.141763
H24   H     H_    0.347876 0.104126 0.776251 0.231045
H25   H     H_    0.214166 0.054711 0.952954 0.262629
H26   H     H_    0.117180 0.072762 0.803297 0.280416
H27   H     H_    0.095910 0.197126 0.918385 0.283004
H28   H     H_    0.773211 0.666970 0.959929 0.173971
H29   H     H_    0.760476 0.589843 0.813743 0.145458
H30   H     H_    0.867721 0.483680 0.078338 0.255781
H31   H     H_    0.825333 0.377277 0.956392 0.228372
H32   H     H_    0.988398 0.426905 0.820713 0.304893
H33   H     H_    0.069095 0.412398 0.978880 0.246439
H34   H     H_    0.102261 0.461692 0.391461 0.129073
H35   H     H_    0.010947 0.565528 0.910294 0.265535
H36   H     H_    0.940809 0.021755 0.404810 0.173976
H37   H     H_    0.863393 0.228370 0.326253 0.173615
H38   H     H_    0.002198 0.265435 0.423307 0.129328
H39   H     H_    0.965427 0.243109 0.134797 0.230936
H40   H     H_    0.068885 0.351030 0.198487 0.224574
N1    N     N_2   0.157290 0.551390 0.551110 0.043970
N2    N     N_2   0.842740 0.448550 0.448960 0.058494
N3    N     N_1   0.846769 0.194457 0.671292 -0.215480
N4    N     N_1   0.599364 0.719801 0.168186 -0.158229
N5    N     N_1   0.138626 0.909897 0.521843 -0.285954
N6    N     N_1   0.653111 0.200798 0.189189 -0.212479
O1    O     O_R   0.568950 0.489660 0.307530 -0.541503
O2    O     O_3   0.124817 0.570138 0.672930 -0.591339
O3    O     O_3   0.889500 0.856720 0.235348 -0.621381
O4    O     O_3   0.451218 0.303802 0.852723 -0.662962
O5    O     O_3   0.623993 0.562399 0.948774 -0.657315
O6    O     O_R   0.348880 0.522640 0.340350 -0.644854
O7    O     O_R   0.610060 0.300270 0.483590 -0.612129
O8    O     O_R   0.389990 0.333260 0.516410 -0.616513
O9    O     O_R   0.651120 0.477360 0.659650 -0.641009
O10   O     O_R   0.431050 0.510340 0.692470 -0.566671
O11   O     O_R   0.610010 0.666740 0.483590 -0.619213
O12   O     O_R   0.389940 0.699730 0.516410 -0.645673
O13   O     O_3   0.875577 0.416697 0.329891 -0.583716
Zn1   Zn    Zn3+2 0.646940 0.477980 0.478090 1.002375
Zn2   Zn    Zn3+2 0.353060 0.522020 0.521910 0.967212

loop_
_geom_bond_atom_site_label_1
_geom_bond_atom_site_label_2
_ccdc_geom_bond_type
C20   N3    T    
C7    C36   S    
C35   C36   A    
C18   H8    S    
C22   H15   S    
C31   H28   S    
C7    O11   A    
C12   C23   A    
C10   O3    S    
C8    C20   S    
C34   H1    S    
C28   C29   S    
C17   H6    S    
C18   C19   S    
N1    O2    S    
C27   H21   S    
C37   H12   S    
C15   H39   S    
N2    O13   S    
C11   C25   S    
C15   C16   S    
O11   Zn1   S    
C30   C38   S    
C34   C35   A    
C14   H38   S    
C19   H10   S    
C19   H9    S    
C33   H33   S    
C2    C39   D    
C15   H40   S    
C8    C9    A    
C6    O9    A    
O6    Zn2   S    
C9    C10   A    
C39   O5    S    
C1    C37   S    
C28   H22   S    
C23   C34   A    
C29   H25   S    
C1    O6    A    
C21   C22   S    
N1    Zn2   S    
C3    N1    D    
C18   H7    S    
C14   O13   S    
C31   H29   S    
C13   C36   A    
C26   C35   S    
C4    C23   S    
O10   Zn2   S    
C24   H18   S    
C32   H31   S    
N2    Zn1   S    
C4    O8    A    
C14   H37   S    
C2    O4    S    
C37   C38   D    
C5    N2    D    
C2    C38   S    
C31   C32   S    
O8    Zn2   S    
C8    C12   A    
C31   O5    S    
C17   C18   S    
C30   N6    T    
O1    Zn1   S    
C16   H4    S    
C32   H30   S    
C29   H26   S    
C22   C24   S    
C16   H3    S    
O12   Zn2   S    
C1    O1    A    
C6    C39   S    
C26   N5    T    
C7    O12   A    
C17   O2    S    
C3    C5    S    
C22   H16   S    
C24   H17   S    
C32   C33   S    
C17   H5    S    
C27   H20   S    
C21   H14   S    
C11   C13   A    
C19   H11   S    
O9    Zn1   S    
C5    H23   S    
C27   O4    S    
C3    H34   S    
C21   O3    S    
C10   C11   A    
C33   H32   S    
C29   H27   S    
C28   H24   S    
C33   H35   S    
C12   C13   A    
C24   H19   S    
C6    O10   A    
C27   C28   S    
C25   N4    T    
C14   C15   S    
C9    H36   S    
C16   H2    S    
C21   H13   S    
O7    Zn1   S    
C4    O7    A    
