data_mof_unit_60897.cif
_audit_creation_date              2013-03-05T16:06:32-0500
_audit_creation_method            fapswitch 2.2
_symmetry_space_group_name_H-M    P1
_symmetry_Int_Tables_number       1
_space_group_crystal_system       triclinic
_cell_length_a                    45.288323
_cell_length_b                    31.983083
_cell_length_c                    32.010992
_cell_angle_alpha                 89.998714
_cell_angle_beta                  135.010851
_cell_angle_gamma                 90.001358
_cell_volume                      32779.9611551

loop_
_atom_site_label
_atom_site_type_symbol
_atom_site_description
_atom_site_fract_x
_atom_site_fract_y
_atom_site_fract_z
_atom_type_partial_charge
O1    O     O_R   0.560480 0.000000 0.595480 -0.559124
O2    O     O_R   0.060480 0.500000 0.595480 -0.559104
O3    O     O_R   0.560430 1.000000 0.525440 -0.580646
O4    O     O_R   0.060430 0.500000 0.525440 -0.580652
C1    C     C_R   0.580242 0.000000 0.580243 0.816540
C2    C     C_R   0.080242 0.500000 0.580243 0.816514
O5    O     O_R   0.500020 0.060460 0.535020 -0.577168
O6    O     O_R   0.500020 0.939540 0.535020 -0.576817
O7    O     O_R   0.000020 0.560460 0.535020 -0.577021
O8    O     O_R   0.000020 0.439540 0.535020 -0.576951
O9    O     O_R   0.499970 0.060450 0.464980 -0.577353
O10   O     O_R   0.499970 0.939550 0.464980 -0.577747
O11   O     O_R   0.999970 0.560450 0.464980 -0.577521
O12   O     O_R   0.999970 0.439550 0.464980 -0.577563
C3    C     C_R   0.499992 0.080283 0.499991 0.821631
C4    C     C_R   0.499992 0.919717 0.499993 0.821732
C5    C     C_R   0.999992 0.580283 0.499992 0.821658
C6    C     C_R   0.999992 0.419717 0.499993 0.821679
Cu1   Cu    Cu3+1 0.500020 0.000000 0.541470 0.999349
Cu2   Cu    Cu3+1 0.000020 0.500000 0.541470 0.999415
Cu3   Cu    Cu3+1 0.499960 0.000000 0.458530 0.991455
Cu4   Cu    Cu3+1 0.999960 0.500000 0.458530 0.991506
O13   O     O_R   0.439560 0.000000 0.474560 -0.582054
O14   O     O_R   0.939560 0.500000 0.474560 -0.582048
O15   O     O_R   0.439510 0.000000 0.404520 -0.575018
O16   O     O_R   0.939510 0.500000 0.404520 -0.575004
C7    C     C_R   0.419749 1.000000 0.419755 0.818335
C8    C     C_R   0.919749 0.500000 0.419755 0.818339
C9    C     C_3   0.535430 0.263886 0.553032 -0.188739
C10   C     C_3   0.534973 0.736115 0.553499 -0.189489
C11   C     C_3   0.034962 0.763885 0.553494 -0.189263
C12   C     C_3   0.034762 0.236114 0.553667 -0.189144
C13   C     C_3   0.533066 0.235931 0.511084 -0.153226
C14   C     C_3   0.533619 0.764072 0.512514 -0.154014
C15   C     C_3   0.033626 0.735930 0.512527 -0.153735
C16   C     C_3   0.033854 0.264072 0.513115 -0.153616
H1    H     H_    0.560091 0.224128 0.519876 0.143992
H2    H     H_    0.561101 0.775876 0.522457 0.143299
H3    H     H_    0.061116 0.724127 0.522492 0.143538
H4    H     H_    0.061531 0.275876 0.523565 0.143584
H5    H     H_    0.564549 0.275760 0.596779 0.148841
H6    H     H_    0.563710 0.724241 0.597602 0.148867
H7    H     H_    0.063691 0.775759 0.597603 0.148803
H8    H     H_    0.063325 0.224240 0.597917 0.148789
C17   C     C_1   0.499978 0.125175 0.499952 -0.158914
C18   C     C_1   0.499980 0.874825 0.499962 -0.159018
C19   C     C_1   0.999979 0.625175 0.499957 -0.158966
C20   C     C_1   0.999980 0.374825 0.499959 -0.158927
C21   C     C_1   0.499986 0.374818 0.500053 -0.154144
C22   C     C_1   0.499987 0.625182 0.500066 -0.155965
C23   C     C_1   0.999986 0.874818 0.500060 -0.155225
C24   C     C_1   0.999987 0.125182 0.500059 -0.154790
C25   C     C_3   0.502402 0.235932 0.541830 -0.149303
C26   C     C_3   0.501398 0.764068 0.540900 -0.148951
C27   C     C_3   0.001378 0.735931 0.540871 -0.149202
C28   C     C_3   0.000954 0.264066 0.540456 -0.149205
C29   C     C_3   0.499955 0.208734 0.499811 0.144380
C30   C     C_3   0.499961 0.791267 0.499841 0.143813
C31   C     C_3   0.999959 0.708734 0.499829 0.144008
C32   C     C_3   0.999962 0.291266 0.499829 0.144067
C33   C     C_3   0.466936 0.263887 0.488734 -0.190209
C34   C     C_3   0.466393 0.736112 0.487367 -0.190418
C35   C     C_3   0.966381 0.763886 0.487329 -0.190310
C36   C     C_3   0.966159 0.236111 0.486740 -0.190124
C37   C     C_3   0.499968 0.291240 0.499995 0.169224
C38   C     C_3   0.499970 0.708761 0.500022 0.169174
C39   C     C_3   0.999968 0.791239 0.500010 0.169203
C40   C     C_3   0.999969 0.208760 0.500008 0.169148
C41   C     C_3   0.464405 0.235931 0.446629 -0.153654
C42   C     C_3   0.464872 0.764070 0.446220 -0.153671
C43   C     C_3   0.964878 0.735930 0.446200 -0.153488
C44   C     C_3   0.965083 0.264069 0.446024 -0.153475
C45   C     C_3   0.497553 0.263716 0.458529 0.194442
C46   C     C_3   0.498551 0.736287 0.459505 0.201089
C47   C     C_3   0.998567 0.763715 0.459510 0.198516
C48   C     C_3   0.998989 0.236286 0.459917 0.197336
C49   C     C_1   0.499965 0.162881 0.499892 -0.049113
C50   C     C_1   0.499970 0.837120 0.499911 -0.049071
C51   C     C_1   0.999968 0.662880 0.499903 -0.049073
C52   C     C_1   0.999970 0.337119 0.499905 -0.049050
C53   C     C_1   0.499979 0.337118 0.500059 -0.047099
C54   C     C_1   0.499980 0.662883 0.500080 -0.047495
C55   C     C_1   0.999978 0.837117 0.500070 -0.047321
C56   C     C_1   0.999979 0.162883 0.500068 -0.047143
H9    H     H_    0.435337 0.224128 0.402764 0.143732
H10   H     H_    0.436191 0.775873 0.402005 0.143834
H11   H     H_    0.936204 0.724127 0.401979 0.143977
H12   H     H_    0.936578 0.275872 0.401665 0.144003
H13   H     H_    0.439839 0.275763 0.479708 0.147585
H14   H     H_    0.438843 0.724235 0.477190 0.147955
H15   H     H_    0.938823 0.775762 0.477132 0.147820
H16   H     H_    0.938416 0.224234 0.476059 0.147941
H17   H     H_    0.504409 0.223941 0.576318 0.147328
H18   H     H_    0.502577 0.776059 0.574600 0.147491
H19   H     H_    0.002541 0.723939 0.574555 0.147361
H20   H     H_    0.001767 0.276057 0.573801 0.147384
C57   C     C_3   0.764255 0.964894 0.783082 -0.262534
C58   C     C_3   0.764258 0.034057 0.784911 -0.262402
C59   C     C_3   0.264256 0.465259 0.783746 -0.262854
C60   C     C_3   0.264257 0.534444 0.784259 -0.262053
C61   C     C_3   0.735734 0.965942 0.714989 -0.264234
C62   C     C_3   0.735737 0.035105 0.716818 -0.263786
C63   C     C_3   0.235735 0.465552 0.715641 -0.263989
C64   C     C_3   0.235736 0.534738 0.716153 -0.264086
H21   H     H_    0.724123 0.938393 0.685761 0.178720
H22   H     H_    0.724129 0.063548 0.689071 0.178849
H23   H     H_    0.224124 0.437673 0.686940 0.178746
H24   H     H_    0.224127 0.562868 0.687867 0.178783
H25   H     H_    0.775865 0.936453 0.810832 0.181823
H26   H     H_    0.775870 0.061605 0.814141 0.181811
H27   H     H_    0.275866 0.437130 0.812034 0.181535
H28   H     H_    0.275869 0.562322 0.812962 0.182102
C65   C     C_1   0.625046 0.000001 0.625037 -0.129865
C66   C     C_1   0.125046 0.499999 0.625037 -0.129868
C67   C     C_1   0.874937 0.999999 0.874948 -0.128282
C68   C     C_1   0.374938 0.499999 0.874947 -0.128276
C69   C     C_3   0.736702 0.998975 0.775375 0.412582
C70   C     C_3   0.236701 0.499711 0.775387 0.412552
C71   C     C_3   0.708483 0.999997 0.708560 0.028828
C72   C     C_3   0.208483 0.499998 0.708560 0.028843
C73   C     C_3   0.791508 0.000002 0.791342 0.028561
C74   C     C_3   0.291508 0.499999 0.791342 0.028571
C75   C     C_3   0.763296 0.001024 0.724530 0.418340
C76   C     C_3   0.263296 0.500286 0.724517 0.418350
C77   C     C_1   0.662688 0.999999 0.662704 0.059697
C78   C     C_1   0.162688 0.499999 0.662704 0.059679
C79   C     C_1   0.837298 0.000000 0.837235 0.062727
C80   C     C_1   0.337298 0.499999 0.837235 0.062742
C81   C     C_3   0.235865 0.034199 0.255647 -0.207338
C82   C     C_3   0.235864 0.965230 0.254629 -0.207378
C83   C     C_3   0.735865 0.534184 0.255673 -0.207498
C84   C     C_3   0.735864 0.465216 0.254603 -0.207165
C85   C     C_3   0.263963 0.034397 0.244329 0.088288
C86   C     C_3   0.263962 0.966200 0.243322 0.088113
C87   C     C_3   0.763963 0.534411 0.244355 0.088299
C88   C     C_3   0.763962 0.466215 0.243297 0.087993
H29   H     H_    0.224135 0.062313 0.260522 0.161490
H30   H     H_    0.224133 0.936638 0.258666 0.161507
H31   H     H_    0.724135 0.562285 0.260568 0.161348
H32   H     H_    0.724133 0.436612 0.258619 0.161714
C89   C     C_1   0.374947 0.000001 0.374939 -0.164492
C90   C     C_1   0.874947 0.500000 0.374939 -0.164451
C91   C     C_1   0.125049 0.000001 0.124974 -0.133613
C92   C     C_1   0.625049 0.500001 0.124974 -0.133584
C93   C     C_3   0.263859 0.999420 0.303040 -0.194622
C94   C     C_3   0.763859 0.499391 0.303040 -0.194577
C95   C     C_3   0.291504 0.000006 0.291121 0.119739
C96   C     C_3   0.791504 0.500006 0.291121 0.119722
C97   C     C_3   0.208478 0.000010 0.207799 0.021320
C98   C     C_3   0.708478 0.500010 0.207799 0.021306
C99   C     C_3   0.236421 0.000585 0.196923 0.379146
C100  C     C_3   0.736421 0.500614 0.196924 0.379134
C101  C     C_1   0.337311 0.000002 0.337211 -0.016963
C102  C     C_1   0.837311 0.500002 0.337211 -0.016936
C103  C     C_1   0.162690 0.000004 0.162392 0.034394
C104  C     C_1   0.662690 0.500004 0.162392 0.034428
H33   H     H_    0.275558 0.998937 0.347383 0.156541
H34   H     H_    0.775558 0.498884 0.347383 0.156579
O17   O     O_R   0.534970 0.500000 0.595520 -0.579541
O18   O     O_R   0.034970 0.000000 0.595520 -0.579554
O19   O     O_R   0.464980 0.500000 0.525470 -0.580401
O20   O     O_R   0.964980 1.000000 0.525470 -0.580404
C105  C     C_R   0.499966 0.500000 0.580301 0.817622
C106  C     C_R   0.999966 0.000000 0.580301 0.817630
O21   O     O_R   0.534980 0.439530 0.535070 -0.580171
O22   O     O_R   0.534980 0.560470 0.535070 -0.581119
O23   O     O_R   0.034980 0.939530 0.535070 -0.580827
O24   O     O_R   0.034980 0.060470 0.535070 -0.580630
O25   O     O_R   0.465000 0.439530 0.465010 -0.575025
O26   O     O_R   0.465000 0.560470 0.465010 -0.574221
O27   O     O_R   0.965000 0.939530 0.465010 -0.574471
O28   O     O_R   0.965000 0.060470 0.465010 -0.574609
C107  C     C_R   0.499989 0.419705 0.500035 0.827191
C108  C     C_R   0.499990 0.580295 0.500039 0.825427
C109  C     C_R   0.999989 0.919705 0.500038 0.826181
C110  C     C_R   0.999990 0.080294 0.500037 0.826584
Cu5   Cu    Cu3+1 0.541430 0.500000 0.541530 0.979389
Cu6   Cu    Cu3+1 0.041430 0.000000 0.541530 0.979111
Cu7   Cu    Cu3+1 0.458550 0.500000 0.458570 1.006071
Cu8   Cu    Cu3+1 0.958550 1.000000 0.458570 1.006126
O29   O     O_R   0.535000 0.500000 0.474630 -0.586900
O30   O     O_R   0.035000 0.000000 0.474630 -0.587133
O31   O     O_R   0.465020 0.500000 0.404580 -0.558025
O32   O     O_R   0.965020 1.000000 0.404580 -0.557994
C111  C     C_R   0.500015 0.499994 0.419845 0.822676
C112  C     C_R   0.000015 0.000000 0.419844 0.822838
O33   O     O_R   0.000030 0.965010 0.060550 -0.577282
O34   O     O_R   0.000030 0.034990 0.060550 -0.577227
O35   O     O_R   0.500030 0.465010 0.060550 -0.576902
O36   O     O_R   0.500030 0.534990 0.060550 -0.577669
C113  C     C_R   0.000051 1.000000 0.080352 0.818089
C114  C     C_R   0.500050 0.499999 0.080351 0.818135
O37   O     O_R   0.939530 0.965000 0.939580 -0.576016
O38   O     O_R   0.939530 0.035000 0.939580 -0.575480
O39   O     O_R   0.439530 0.465000 0.939580 -0.575984
O40   O     O_R   0.439530 0.535000 0.939580 -0.575575
C115  C     C_R   0.919737 1.000000 0.919788 0.823512
C116  C     C_R   0.419737 0.500000 0.919788 0.823536
Cu9   Cu    Cu3+1 0.999990 0.958550 0.000050 0.997467
Cu10  Cu    Cu3+1 0.999990 0.041450 0.000050 0.998541
Cu11  Cu    Cu3+1 0.499990 0.458550 0.000050 0.998186
Cu12  Cu    Cu3+1 0.499990 0.541450 0.000050 0.997685
O41   O     O_R   0.999960 0.964990 0.939550 -0.576274
O42   O     O_R   0.999960 0.035010 0.939550 -0.575731
O43   O     O_R   0.499960 0.464990 0.939550 -0.576118
O44   O     O_R   0.499960 0.535010 0.939550 -0.575898
O45   O     O_R   0.060450 0.965000 0.060520 -0.578353
O46   O     O_R   0.060450 0.035000 0.060520 -0.577882
O47   O     O_R   0.560450 0.465000 0.060520 -0.578085
O48   O     O_R   0.560450 0.535000 0.060520 -0.578121
C117  C     C_R   0.999969 0.000000 0.919739 0.836023
C118  C     C_R   0.499969 0.500000 0.919739 0.836037
C119  C     C_R   0.080245 0.000000 0.080316 0.820432
C120  C     C_R   0.580245 0.500000 0.080316 0.820469
C121  C     C_3   0.020341 0.034179 0.784419 -0.186620
C122  C     C_3   0.019302 0.965228 0.783381 -0.187162
C123  C     C_3   0.519913 0.534430 0.783991 -0.186744
C124  C     C_3   0.519734 0.465471 0.783814 -0.187021
C125  C     C_3   0.480202 0.534532 0.716241 -0.194287
C126  C     C_3   0.480024 0.465573 0.716064 -0.194303
C127  C     C_3   0.980634 0.034778 0.716674 -0.194297
C128  C     C_3   0.979596 0.965826 0.715636 -0.194287
H35   H     H_    0.463637 0.562681 0.687952 0.149611
H36   H     H_    0.463313 0.437510 0.687631 0.149533
H37   H     H_    0.964422 0.063132 0.688738 0.149627
H38   H     H_    0.962537 0.937975 0.686854 0.149537
H39   H     H_    0.037401 0.062029 0.813204 0.154156
H40   H     H_    0.035515 0.936875 0.811319 0.153722
H41   H     H_    0.536624 0.562491 0.812426 0.154069
H42   H     H_    0.536300 0.437323 0.812105 0.153814
C129  C     C_1   0.499926 0.500001 0.625125 -0.163295
C130  C     C_1   0.999926 0.000002 0.625125 -0.163303
C131  C     C_1   0.000035 0.000001 0.874945 -0.142511
C132  C     C_1   0.500035 0.500001 0.874945 -0.142513
C133  C     C_3   0.538997 0.499901 0.775278 0.208020
C134  C     C_3   0.038993 0.999414 0.775274 0.208051
C135  C     C_3   0.499821 0.500002 0.708547 0.134590
C136  C     C_3   0.999821 0.000005 0.708548 0.134587
C137  C     C_3   0.000119 0.000001 0.791509 0.133069
C138  C     C_3   0.500119 0.500001 0.791509 0.133070
C139  C     C_3   0.960944 0.000591 0.724784 0.195350
C140  C     C_3   0.460940 0.500102 0.724780 0.195348
C141  C     C_1   0.499857 0.500001 0.662733 -0.041684
C142  C     C_1   0.999857 0.000004 0.662733 -0.041683
C143  C     C_1   0.000099 0.000001 0.837335 -0.028657
C144  C     C_1   0.500100 0.500001 0.837335 -0.028658
C145  C     C_3   0.018419 0.964853 0.254282 -0.208550
C146  C     C_3   0.020604 0.033924 0.256464 -0.208663
C147  C     C_3   0.524381 0.468649 0.260234 -0.208721
C148  C     C_3   0.514225 0.537003 0.250096 -0.208441
C149  C     C_3   0.485226 0.463722 0.248687 0.341312
C150  C     C_3   0.475335 0.530287 0.238812 0.339380
C151  C     C_3   0.979015 0.967006 0.242484 0.340145
C152  C     C_3   0.981142 0.034271 0.244609 0.340623
H43   H     H_    0.033510 0.935814 0.257853 0.170885
H44   H     H_    0.037498 0.061949 0.261838 0.170717
H45   H     H_    0.544404 0.442777 0.268728 0.170477
H46   H     H_    0.525853 0.567600 0.250213 0.171144
C153  C     C_1   0.499992 0.499954 0.375057 -0.104644
C154  C     C_1   0.999991 0.000006 0.375055 -0.104638
C155  C     C_1   0.000020 0.000000 0.125093 -0.158110
C156  C     C_1   0.500016 0.499993 0.125090 -0.158119
C157  C     C_3   0.538742 0.505711 0.302847 -0.269373
C158  C     C_3   0.039154 0.998767 0.303258 -0.269422
C159  C     C_3   0.499413 0.499844 0.291073 -0.043125
C160  C     C_3   0.999412 0.000027 0.291070 -0.043076
C161  C     C_3   0.999666 0.000016 0.208109 0.078395
C162  C     C_3   0.499663 0.499912 0.208106 0.078365
C163  C     C_3   0.960086 0.001271 0.195761 0.007946
C164  C     C_3   0.460495 0.494068 0.196170 0.008217
C165  C     C_1   0.499810 0.499907 0.337253 0.104749
C166  C     C_1   0.999810 0.000014 0.337253 0.104737
C167  C     C_1   0.999931 0.000005 0.162627 0.012998
C168  C     C_1   0.499926 0.499969 0.162622 0.013032
H47   H     H_    0.570987 0.510509 0.346913 0.178637
H48   H     H_    0.071737 0.997735 0.347662 0.178644
N1    N     N_R   0.722863 0.997828 0.804873 0.132193
O49   O     O_R   0.750330 0.997038 0.862263 -0.332327
O50   O     O_R   0.683288 0.997586 0.774387 -0.340491
N2    N     N_R   0.222863 0.499389 0.804899 0.132208
O51   O     O_R   0.250330 0.499166 0.862299 -0.332035
O52   O     O_R   0.183288 0.499322 0.774415 -0.340440
C169  C     C_3   0.279722 0.073536 0.238246 -0.789008
H49   H     H_    0.252792 0.092296 0.200127 0.246210
H50   H     H_    0.298475 0.092492 0.279172 0.224645
H51   H     H_    0.299519 0.064622 0.231031 0.256846
C170  C     C_3   0.279719 0.927724 0.236092 -0.788753
H52   H     H_    0.252788 0.909304 0.197423 0.246173
H53   H     H_    0.299516 0.937434 0.229153 0.256865
H54   H     H_    0.298471 0.908120 0.276448 0.224686
C171  C     C_3   0.779722 0.573567 0.238301 -0.788977
H55   H     H_    0.752792 0.592334 0.200196 0.246218
H56   H     H_    0.798475 0.592506 0.279241 0.224631
H57   H     H_    0.799519 0.564673 0.231079 0.256855
C172  C     C_3   0.779719 0.427756 0.236039 -0.788551
H58   H     H_    0.752788 0.409345 0.197356 0.246179
H59   H     H_    0.799516 0.437485 0.229107 0.256871
H60   H     H_    0.798471 0.408136 0.276380 0.224736
N3    N     N_R   0.222376 0.001226 0.139542 0.126702
O53   O     O_R   0.249647 0.001671 0.136735 -0.347917
O54   O     O_R   0.182749 0.001355 0.091017 -0.355192
N4    N     N_R   0.722375 0.501287 0.139544 0.126711
O55   O     O_R   0.749647 0.501755 0.136737 -0.347861
O56   O     O_R   0.682749 0.501423 0.091019 -0.355176
C173  C     C_3   0.916246 0.001265 0.696022 -0.806709
H61   H     H_    0.894316 0.001596 0.647239 0.236483
H62   H     H_    0.910335 0.973050 0.709403 0.243687
H63   H     H_    0.911187 0.029646 0.710254 0.243886
C174  C     C_3   0.416237 0.500217 0.696014 -0.806720
H64   H     H_    0.394304 0.500274 0.647228 0.236479
H65   H     H_    0.410679 0.471931 0.709747 0.243734
H66   H     H_    0.410825 0.528532 0.709893 0.243837
C175  C     C_3   0.583707 0.499785 0.804083 -0.832997
H67   H     H_    0.605620 0.499729 0.852866 0.246908
H68   H     H_    0.589129 0.471469 0.790221 0.236623
H69   H     H_    0.589275 0.528074 0.790366 0.236778
C176  C     C_3   0.083698 0.998740 0.804075 -0.833085
H70   H     H_    0.105609 0.998410 0.852856 0.246896
H71   H     H_    0.088767 0.970358 0.789860 0.236547
H72   H     H_    0.089619 0.026956 0.790711 0.236837
N5    N     N_R   0.469352 0.423363 0.246770 0.136364
O57   O     O_R   0.459280 0.395047 0.209343 -0.338739
O58   O     O_R   0.465329 0.415291 0.282350 -0.350845
N6    N     N_R   0.448414 0.564261 0.225865 0.136859
O59   O     O_R   0.430578 0.588462 0.180688 -0.335514
O60   O     O_R   0.442179 0.570749 0.259234 -0.346162
N7    N     N_R   0.956205 0.930132 0.233640 0.136685
O61   O     O_R   0.941266 0.904047 0.191356 -0.336692
O62   O     O_R   0.950792 0.922934 0.267832 -0.348019
N8    N     N_R   0.960707 0.072515 0.238140 0.136535
O63   O     O_R   0.947446 0.099493 0.197532 -0.337757
O64   O     O_R   0.955763 0.080044 0.272799 -0.349125
C177  C     C_3   0.915281 0.002689 0.135217 -0.692296
H73   H     H_    0.893519 0.003379 0.140414 0.252875
H74   H     H_    0.910584 0.031130 0.111230 0.245760
H75   H     H_    0.908798 0.974602 0.109445 0.246428
C178  C     C_3   0.416153 0.487474 0.136092 -0.692948
H76   H     H_    0.414792 0.458739 0.115355 0.245202
H77   H     H_    0.394635 0.484163 0.141533 0.252758
H78   H     H_    0.406434 0.514671 0.107166 0.247097
C179  C     C_3   0.494793 0.279671 0.411131 -0.823606
H79   H     H_    0.493437 0.252796 0.387893 0.238712
H80   H     H_    0.466239 0.298981 0.378818 0.248539
H81   H     H_    0.522672 0.298977 0.431793 0.241275
C180  C     C_3   0.496930 0.720338 0.413189 -0.839059
H82   H     H_    0.496133 0.747217 0.390485 0.238911
H83   H     H_    0.524984 0.701035 0.434739 0.238614
H84   H     H_    0.468479 0.701030 0.380252 0.248338
C181  C     C_3   0.996966 0.779667 0.413214 -0.832990
H85   H     H_    0.996179 0.752790 0.390519 0.238882
H86   H     H_    0.968518 0.798976 0.380267 0.248844
H87   H     H_    0.025024 0.798972 0.434781 0.239304
C182  C     C_3   0.997870 0.220335 0.414088 -0.830307
H88   H     H_    0.997319 0.247212 0.391621 0.238784
H89   H     H_    0.025996 0.201031 0.436026 0.239677
H90   H     H_    0.969472 0.201025 0.380885 0.249075
N9    N     N_R   0.777157 0.002169 0.695059 0.130106
O65   O     O_R   0.749705 0.002965 0.637671 -0.341669
O66   O     O_R   0.816736 0.002402 0.725566 -0.357897
N10   N     N_R   0.277157 0.500607 0.695032 0.130094
O67   O     O_R   0.249705 0.500830 0.637634 -0.341704
O68   O     O_R   0.316736 0.500672 0.725537 -0.357941

loop_
_geom_bond_atom_site_label_1
_geom_bond_atom_site_label_2
_geom_bond_distance
_ccdc_geom_bond_type
C58   C73   1.546750 S    
C59   C63   1.561500 S    
N9    O65   1.300200 A    
C27   C31   1.538643 S    
C84   C98   1.546912 S    
C139  C173  1.519769 S    
C171  H55   1.109659 S    
C85   C99   1.533220 S    
C124  C138  1.542433 S    
C21   C107  1.435628 S    
C178  H76   1.109580 S    
C177  H73   1.109650 S    
C11   C39   1.539587 S    
C45   C179  1.519829 S    
O34   C113  1.285804 A    
C113  C155  1.433210 S    
C147  C162  1.547629 S    
Cu12  O48   1.946751 S    
C69   C71   1.530537 S    
O38   C115  1.286346 A    
C32   C44   1.539474 S    
C148  C150  1.542306 S    
C127  H37   1.110133 S    
C60   C64   1.561499 S    
C34   C42   1.552672 S    
C83   C94   1.557438 S    
C24   C56   1.205791 T    
O9    C3    1.287201 A    
C152  C160  1.534743 S    
O10   C4    1.287209 A    
O8    Cu2   1.944697 S    
N6    O59   1.300227 A    
C42   C46   1.542553 S    
C170  H53   1.109665 S    
C114  C156  1.433216 S    
C81   C93   1.557439 S    
O39   C116  1.286340 A    
C179  H80   1.109777 S    
Cu9   Cu10  2.651401 S    
O6    C4    1.287311 A    
C82   C86   1.550049 S    
C121  C127  1.555908 S    
C182  H89   1.109771 S    
O20   C106  1.287435 A    
C156  C168  1.204320 T    
C163  C177  1.520849 S    
O22   C108  1.287293 A    
N8    O63   1.300231 A    
C99   N3    1.458172 S    
C34   C38   1.539598 S    
C30   C42   1.539467 S    
C58   C62   1.561498 S    
C176  H72   1.109756 S    
Cu1   O13   1.946642 S    
C98   C100  1.531731 S    
C38   C54   1.467305 S    
C93   H33   1.109975 S    
C180  H82   1.109678 S    
O22   Cu5   1.945014 S    
C147  C157  1.560080 S    
C180  H84   1.109777 S    
C123  C138  1.542432 S    
O18   Cu6   1.946204 S    
Cu6   O30   1.946502 S    
C81   C85   1.550047 S    
C13   C45   1.542560 S    
C162  C164  1.539072 S    
O5    Cu1   1.944684 S    
O37   Cu9   1.946745 S    
C121  C137  1.542433 S    
C62   C75   1.539822 S    
C82   H30   1.110121 S    
C23   C55   1.205794 T    
C178  H78   1.109585 S    
O26   C108  1.287267 A    
C177  H75   1.109592 S    
C157  C159  1.549250 S    
C161  C167  1.464456 S    
C1    C65   1.434527 S    
C118  C132  1.436003 S    
O39   Cu11  1.946745 S    
C140  C174  1.519763 S    
C106  C130  1.436162 S    
O35   Cu11  1.946389 S    
C125  C135  1.542513 S    
C97   C103  1.466078 S    
C92   C120  1.434518 S    
C131  C143  1.205992 T    
O8    C6    1.287318 A    
C86   C99   1.533218 S    
C7    C89   1.434453 S    
C57   C69   1.539726 S    
C95   C101  1.466641 S    
C70   C72   1.530536 S    
C73   C75   1.530511 S    
C33   C37   1.539598 S    
O23   Cu6   1.945012 S    
C81   H29   1.110121 S    
C151  N7    1.457525 S    
N5    O57   1.300218 A    
C35   H15   1.110043 S    
C14   C30   1.539459 S    
C63   H23   1.110093 S    
O24   Cu6   1.945014 S    
C62   C71   1.546830 S    
Cu8   O32   1.946560 S    
C146  C158  1.560079 S    
C39   C55   1.467302 S    
O46   C119  1.286382 A    
C9    C13   1.552647 S    
O21   Cu5   1.945012 S    
C100  N4    1.458168 S    
C123  C133  1.544465 S    
C172  H59   1.109664 S    
C127  C139  1.544527 S    
C152  N8    1.457533 S    
C10   C26   1.551306 S    
C122  H40   1.110132 S    
C11   H7    1.110045 S    
C36   C40   1.539598 S    
C171  H56   1.109671 S    
C124  C133  1.544466 S    
C97   C99   1.531732 S    
C66   C78   1.205217 T    
C175  H68   1.109751 S    
O34   Cu10  1.946380 S    
C87   C100  1.533219 S    
C38   C46   1.530841 S    
C57   H25   1.110098 S    
C2    C66   1.434527 S    
C57   C73   1.546748 S    
C91   C103  1.205194 T    
O38   Cu10  1.946741 S    
C134  C136  1.532992 S    
Cu5   Cu7   2.653620 S    
C27   C35   1.551314 S    
C28   C36   1.551310 S    
C85   C95   1.538350 S    
O19   Cu7   1.946499 S    
C149  C159  1.534723 S    
O20   Cu8   1.946499 S    
C75   N9    1.457054 S    
Cu10  O42   1.946636 S    
C91   C119  1.434521 S    
C145  C161  1.547614 S    
N1    O49   1.300215 A    
C169  H51   1.109665 S    
O41   C117  1.286990 A    
Cu11  O47   1.946747 S    
N10   O67   1.300202 A    
C174  H65   1.109773 S    
N4    O56   1.300167 A    
O6    Cu1   1.944697 S    
C10   C14   1.552649 S    
N2    O51   1.300215 A    
N7    O62   1.300197 A    
O36   Cu12  1.946380 S    
O9    Cu3   1.944342 S    
C117  C131  1.436003 S    
C92   C104  1.205194 T    
C81   C97   1.546914 S    
C85   C169  1.520123 S    
O4    Cu4   1.946927 S    
C124  C126  1.555905 S    
C84   C88   1.550048 S    
C59   H27   1.110095 S    
C137  C139  1.532977 S    
C90   C102  1.205001 T    
C88   C96   1.538350 S    
C9    C37   1.539584 S    
C46   C180  1.519802 S    
C181  H87   1.109769 S    
C157  H47   1.110011 S    
C39   C47   1.530839 S    
C178  H77   1.109671 S    
C162  C168  1.464460 S    
C41   H9    1.110174 S    
O23   C109  1.287292 A    
O24   C110  1.287291 A    
Cu3   O15   1.946533 S    
C32   C52   1.466538 S    
C9    H5    1.110045 S    
C121  C134  1.544463 S    
C5    C19   1.435798 S    
C6    C20   1.435804 S    
C94   H34   1.109971 S    
C151  C160  1.534745 S    
C40   C48   1.530837 S    
C152  C163  1.536002 S    
O11   C5    1.287211 A    
O26   Cu7   1.945009 S    
O12   Cu4   1.944336 S    
C148  C162  1.547604 S    
C89   C101  1.205001 T    
Cu5   O29   1.946502 S    
O5    C3    1.287325 A    
C121  H39   1.110130 S    
C83   H31   1.110118 S    
N6    O60   1.300169 A    
C169  H49   1.109658 S    
Cu11  O43   1.946627 S    
C17   C49   1.205939 T    
C164  C178  1.520837 S    
C74   C76   1.530517 S    
O25   Cu7   1.945017 S    
O28   C110  1.287265 A    
C138  C144  1.467580 S    
C58   H26   1.110099 S    
C63   C72   1.546833 S    
C182  H88   1.109674 S    
C153  C165  1.204342 T    
C146  C161  1.547622 S    
C86   C95   1.538349 S    
C67   C115  1.434373 S    
C181  H85   1.109677 S    
N8    O64   1.300186 A    
O1    C1    1.286995 A    
O18   C106  1.287637 A    
C73   C79   1.466079 S    
C72   C78   1.466225 S    
C174  H66   1.109773 S    
C47   C181  1.519811 S    
C15   C31   1.539467 S    
O30   C112  1.286709 A    
C21   C53   1.205788 T    
C176  H71   1.109753 S    
C124  H42   1.110132 S    
O19   C105  1.287438 A    
C151  C163  1.535996 S    
C13   C29   1.539471 S    
C41   C45   1.542571 S    
C180  H83   1.109770 S    
C24   C110  1.435634 S    
O28   Cu8   1.945009 S    
N9    O66   1.300267 A    
C82   C93   1.557438 S    
Cu9   O41   1.946627 S    
C150  N6    1.457491 S    
C76   N10   1.457057 S    
C96   C102  1.466641 S    
C63   C76   1.539821 S    
C149  C164  1.535997 S    
C93   C95   1.545694 S    
C128  C139  1.544526 S    
C94   C96   1.545701 S    
C177  H74   1.109593 S    
O1    Cu1   1.946886 S    
C135  C141  1.467724 S    
O2    Cu2   1.946886 S    
C40   C56   1.467298 S    
O14   C8    1.286988 A    
O4    C2    1.286917 A    
Cu10  O46   1.946751 S    
C31   C51   1.466531 S    
C172  H58   1.109658 S    
C18   C50   1.205932 T    
C25   C29   1.538642 S    
C149  N5    1.457500 S    
C26   C34   1.551317 S    
O43   C118  1.286992 A    
C179  H79   1.109676 S    
C126  C140  1.544525 S    
C13   H1    1.110176 S    
C28   C32   1.538644 S    
O33   Cu9   1.946389 S    
C154  C166  1.204338 T    
C15   H3    1.110175 S    
N3    O53   1.300242 A    
C29   C49   1.466544 S    
C68   C116  1.434373 S    
O7    Cu2   1.944684 S    
C37   C53   1.467295 S    
C170  H52   1.109660 S    
C86   C170  1.520120 S    
C170  H54   1.109670 S    
C158  H48   1.110022 S    
C23   C109  1.435638 S    
C14   C46   1.542544 S    
C59   C74   1.546750 S    
C43   H11   1.110173 S    
C71   C77   1.466228 S    
O40   C116  1.286345 A    
Cu2   Cu4   2.653071 S    
C60   H28   1.110099 S    
C122  C134  1.544460 S    
C11   C15   1.552651 S    
C126  C135  1.542517 S    
C60   C70   1.539727 S    
C36   H16   1.110041 S    
C4    C18   1.435794 S    
C12   C16   1.552646 S    
C64   H24   1.110098 S    
C182  H90   1.109782 S    
C22   C54   1.205794 T    
C28   H20   1.110059 S    
O36   C114  1.285822 A    
Cu1   Cu3   2.653071 S    
C130  C142  1.206072 T    
C147  H45   1.110042 S    
O3    C1    1.286917 A    
Cu6   Cu8   2.653620 S    
C84   H32   1.110122 S    
C105  C129  1.436158 S    
O47   C120  1.286381 A    
C125  C140  1.544530 S    
C127  C136  1.542512 S    
C137  C143  1.467573 S    
C84   C94   1.557438 S    
C159  C165  1.465631 S    
N7    O61   1.300228 A    
C160  C166  1.465623 S    
C132  C144  1.205991 T    
C161  C163  1.539080 S    
C150  C164  1.535976 S    
C175  H67   1.109692 S    
O42   C117  1.286996 A    
O32   C112  1.286537 A    
O11   Cu4   1.944342 S    
O44   C118  1.286991 A    
C74   C80   1.466079 S    
C148  C157  1.560056 S    
C30   C50   1.466528 S    
C125  H35   1.110134 S    
C65   C77   1.205217 T    
C158  C160  1.549244 S    
C173  H61   1.109669 S    
Cu4   O16   1.946533 S    
C10   H6    1.110044 S    
C83   C98   1.546915 S    
C11   C27   1.551303 S    
C88   C100  1.533219 S    
C12   C28   1.551302 S    
C64   C72   1.546831 S    
C145  H43   1.110049 S    
C70   N2    1.456982 S    
C169  H50   1.109669 S    
Cu11  Cu12  2.651401 S    
O12   C6    1.287205 A    
C19   C51   1.205936 T    
C44   C48   1.542562 S    
N10   O68   1.300264 A    
C37   C45   1.530837 S    
C174  H64   1.109669 S    
C15   C47   1.542549 S    
C61   C75   1.539820 S    
C176  H70   1.109689 S    
N2    O52   1.300234 A    
C83   C87   1.550049 S    
O31   C111  1.286543 A    
C146  C152  1.542339 S    
C134  C176  1.519660 S    
C155  C167  1.204323 T    
C128  H38   1.110131 S    
O21   C107  1.287290 A    
C136  C142  1.467728 S    
O45   C119  1.286381 A    
C67   C79   1.205125 T    
C69   N1    1.456984 S    
C16   C48   1.542553 S    
C123  H41   1.110133 S    
C111  C153  1.432953 S    
Cu2   O14   1.946642 S    
C112  C154  1.432969 S    
N5    O58   1.300210 A    
O13   C7    1.286991 A    
C133  C175  1.519657 S    
O33   C113  1.285814 A    
C145  C158  1.560075 S    
C12   C40   1.539585 S    
C181  H86   1.109775 S    
C98   C104  1.466081 S    
C133  C135  1.532992 S    
O2    C2    1.286995 A    
C25   C33   1.551306 S    
O17   Cu5   1.946204 S    
C44   H12   1.110175 S    
C33   H13   1.110042 S    
C172  H60   1.109671 S    
Cu7   O31   1.946560 S    
C61   H21   1.110100 S    
C35   C39   1.539602 S    
C147  C149  1.542343 S    
C25   H17   1.110060 S    
C61   C71   1.546828 S    
C16   H4    1.110179 S    
C171  H57   1.109668 S    
C27   H19   1.110059 S    
O29   C111  1.286693 A    
C175  H69   1.109751 S    
C173  H62   1.109773 S    
O48   C120  1.286382 A    
O27   C109  1.287268 A    
O10   Cu3   1.944336 S    
C128  C136  1.542512 S    
O35   C114  1.285799 A    
C129  C141  1.206075 T    
C88   C172  1.520121 S    
C173  H63   1.109768 S    
C82   C97   1.546913 S    
Cu9   O45   1.946747 S    
C138  C140  1.532975 S    
C12   H8    1.110045 S    
N3    O54   1.300169 A    
C10   C38   1.539589 S    
C145  C151  1.542330 S    
O7    C5    1.287312 A    
N1    O50   1.300235 A    
C68   C80   1.205128 T    
O17   C105  1.287634 A    
O27   Cu8   1.945017 S    
O3    Cu3   1.946927 S    
C8    C90   1.434453 S    
C3    C17   1.435807 S    
O40   Cu12  1.946741 S    
C42   H10   1.110174 S    
C126  H36   1.110133 S    
C58   C69   1.539725 S    
C26   C30   1.538646 S    
C179  H81   1.109772 S    
C33   C41   1.552672 S    
N4    O55   1.300247 A    
O25   C107  1.287266 A    
C14   H2    1.110180 S    
C122  C137  1.542435 S    
C35   C43   1.552669 S    
C16   C32   1.539464 S    
C146  H44   1.110044 S    
O15   C7    1.286908 A    
O16   C8    1.286910 A    
C22   C108  1.435644 S    
C20   C52   1.205936 T    
C48   C182  1.519817 S    
C59   C70   1.539726 S    
C43   C47   1.542562 S    
C9    C25   1.551301 S    
O37   C115  1.286342 A    
C34   H14   1.110043 S    
C62   H22   1.110097 S    
C60   C74   1.546750 S    
C36   C44   1.552669 S    
C123  C125  1.555907 S    
C122  C128  1.555906 S    
C26   H18   1.110059 S    
C150  C159  1.534717 S    
C87   C96   1.538350 S    
Cu12  O44   1.946636 S    
C29   C41   1.539477 S    
C64   C76   1.539821 S    
C87   C171  1.520123 S    
C148  H46   1.110039 S    
C57   C61   1.561499 S    
C31   C43   1.539469 S    
