data_mof_unit_30872.cif
_audit_creation_date              2012-12-10T16:53:06-0500
_audit_creation_method            fapswitch 2.2
_symmetry_space_group_name_H-M    P1
_symmetry_Int_Tables_number       1
_space_group_crystal_system       triclinic
_cell_length_a                    10.777901
_cell_length_b                    10.921906
_cell_length_c                    9.717245
_cell_angle_alpha                 88.697294
_cell_angle_beta                  89.825378
_cell_angle_gamma                 90.490706
_cell_volume                      1143.524046

loop_
_atom_site_label
_atom_site_type_symbol
_atom_type_description
_atom_site_fract_x
_atom_site_fract_y
_atom_site_fract_z
_atom_type_partial_charge
C1    C     C_R   0.503019 0.265385 0.501408 0.871614
C2    C     C_R   0.066340 0.605079 0.570852 0.096941
C3    C     C_R   0.129030 0.512041 0.500040 -0.090638
C4    C     C_R   0.063583 0.425250 0.425301 -0.201969
C5    C     C_R   0.935586 0.425478 0.424884 -0.188451
C6    C     C_R   0.871193 0.512586 0.499071 -0.088622
C7    C     C_2   0.541669 0.937435 0.390572 0.416950
C8    C     C_2   0.497024 0.867120 0.495499 -0.397678
C9    C     C_2   0.527796 0.070625 0.390222 -0.186866
C10   C     C_2   0.514423 0.133487 0.506042 -0.398447
C11   C     C_2   0.430503 0.426489 0.926991 0.208658
C12   C     C_R   0.262712 0.503772 0.500116 0.773540
C13   C     C_2   0.413236 0.450835 0.078863 -0.055899
C14   C     C_R   0.501960 0.734739 0.498388 0.868019
C15   C     C_R   0.737354 0.504084 0.499701 0.793592
C16   C     C_R   0.130801 0.700010 0.637785 -0.172102
C17   C     C_R   0.066458 0.791935 0.704152 -0.132609
C18   C     C_R   0.937422 0.792315 0.703446 -0.116729
C19   C     C_R   0.871898 0.700740 0.636429 -0.154349
C20   C     C_R   0.935103 0.605415 0.570238 0.094837
Cu1   Cu    Cu3+1 0.500020 0.500020 0.638630 0.930956
Cu2   Cu    Cu3+1 0.499980 0.499980 0.361370 0.986508
H1    H     H_    0.111987 0.355243 0.369414 0.148437
H2    H     H_    0.518087 0.089523 0.607075 0.155148
H3    H     H_    0.533382 0.576670 0.890788 0.198771
H4    H     H_    0.330108 0.418239 0.131124 0.174751
H5    H     H_    0.581170 0.520589 0.104570 0.211157
H6    H     H_    0.230933 0.705879 0.637442 0.149451
H7    H     H_    0.116996 0.864091 0.754818 0.139854
H8    H     H_    0.887845 0.864764 0.753559 0.148570
H9    H     H_    0.771901 0.707151 0.634958 0.149228
H10   H     H_    0.886312 0.355510 0.368919 0.156089
H11   H     H_    0.451014 0.906844 0.582936 0.119552
H12   H     H_    0.532930 0.118333 0.290969 0.199603
N1    N     N_2   0.498640 0.498660 0.846910 -0.310371
N2    N     N_2   0.498610 0.498630 0.153040 -0.288134
O1    O     O_R   0.500020 0.321960 0.617040 -0.601665
O2    O     O_R   0.499980 0.321920 0.382900 -0.574027
O3    O     O_R   0.319670 0.500020 0.617100 -0.598222
O4    O     O_R   0.319630 0.499980 0.382950 -0.577495
O5    O     O_R   0.500020 0.678080 0.617100 -0.601802
O6    O     O_R   0.499980 0.678040 0.382960 -0.502997
O7    O     O_R   0.680370 0.500020 0.617050 -0.578835
O8    O     O_R   0.680330 0.499980 0.382900 -0.563565
C21   C     C_3   0.371436 0.311053 0.869911 -0.304023
C22   C     C_3   0.284697 0.239005 0.967726 -0.937947
H13   H     H_    0.335041 0.208019 0.061688 0.265327
H14   H     H_    0.203662 0.295460 0.995987 0.257298
H15   H     H_    0.249382 0.156419 0.915331 0.257883
H16   H     H_    0.316432 0.333786 0.777351 0.243919
H17   H     H_    0.447122 0.247769 0.842522 0.220841
Cl1   Cl    Cl    0.618846 0.877339 0.246491 -0.614053

loop_
_geom_bond_atom_site_label_1
_geom_bond_atom_site_label_2
_ccdc_geom_bond_type
C13   N2    D    
C12   O4    A    
C16   H6    S    
Cu1   N1    S    
H5    N2    S    
C2    C16   A    
C9    C10   D    
C19   C20   A    
Cu1   O3    S    
C1    O1    A    
C14   O6    A    
C5    H10   S    
Cu2   O4    S    
C19   H9    S    
C12   O3    A    
C11   N1    D    
C2    C3    A    
C15   O7    A    
C7    C8    D    
Cu1   O7    S    
C21   C22   S    
C11   C13   S    
C22   H15   S    
Cu2   O6    S    
Cu2   O8    S    
C6    C20   A    
H3    N1    S    
C14   O5    A    
Cu1   O5    S    
C21   H16   S    
C7    Cl1   S    
C17   C18   A    
C8    H11   S    
C5    C6    A    
C22   H14   S    
C13   H4    S    
C11   C21   S    
C21   H17   S    
C18   H8    S    
C2    C20   A    
C3    C4    A    
Cu2   O2    S    
C17   H7    S    
Cu2   N2    S    
Cu1   O1    S    
C18   C19   A    
C7    C9    S    
C4    H1    S    
C15   O8    A    
C22   H13   S    
C16   C17   A    
C8    C14   S    
C3    C12   S    
C10   H2    S    
C6    C15   S    
Cu1   Cu2   S    
C1    O2    A    
C1    C10   S    
C9    H12   S    
C4    C5    A    
