data_mof_unit_27798.cif
_audit_creation_date              2012-12-10T19:54:22-0500
_audit_creation_method            fapswitch 2.2
_symmetry_space_group_name_H-M    P1
_symmetry_Int_Tables_number       1
_space_group_crystal_system       triclinic
_cell_length_a                    15.691027
_cell_length_b                    14.970707
_cell_length_c                    14.177663
_cell_angle_alpha                 88.898853
_cell_angle_beta                  90.468409
_cell_angle_gamma                 89.544965
_cell_volume                      3329.5792532

loop_
_atom_site_label
_atom_site_type_symbol
_atom_type_description
_atom_site_fract_x
_atom_site_fract_y
_atom_site_fract_z
_atom_type_partial_charge
C1    C     C_R   0.498123 0.327724 0.500968 0.877625
C2    C     C_R   0.497833 0.672142 0.499097 0.885339
C3    C     C_R   0.456974 0.183371 0.577485 -0.090453
C4    C     C_R   0.446573 0.817237 0.430971 -0.092606
C5    C     C_R   0.497143 0.231436 0.503443 -0.104106
C6    C     C_R   0.496978 0.768153 0.497197 -0.099803
C7    C     C_R   0.539609 0.187335 0.431469 -0.222706
C8    C     C_R   0.549118 0.810823 0.562352 -0.214043
C9    C     C_R   0.542223 0.095625 0.431365 -0.199534
C10   C     C_R   0.551483 0.902515 0.563362 -0.198449
C11   C     C_R   0.503846 0.047454 0.504111 0.093261
C12   C     C_R   0.503052 0.951880 0.498023 0.092563
C13   C     C_R   0.430795 0.535672 0.104204 -0.287689
C14   C     C_R   0.576353 0.503147 0.895614 -0.283118
C15   C     C_R   0.432005 0.534234 0.203374 0.018100
C16   C     C_R   0.575088 0.502694 0.796445 0.006183
C17   C     C_R   0.567277 0.464124 0.205772 0.023908
C18   C     C_R   0.424764 0.498378 0.794973 0.040343
C19   C     C_R   0.568260 0.463042 0.106647 -0.282950
C20   C     C_R   0.423183 0.497598 0.894097 -0.298078
C21   C     C_R   0.499618 0.499728 0.053501 0.140815
C22   C     C_R   0.499697 0.500083 0.946771 0.140106
C23   C     C_R   0.337988 0.499463 0.499587 0.916812
C24   C     C_R   0.662180 0.499674 0.500436 0.910991
C25   C     C_3   0.970945 0.449253 0.425907 0.022781
C26   C     C_3   0.030321 0.536747 0.574825 0.016414
C27   C     C_3   0.027005 0.533917 0.419382 -0.297453
C28   C     C_3   0.974217 0.452124 0.581432 -0.301582
C29   C     C_1   0.249471 0.496472 0.498467 -0.186991
C30   C     C_1   0.751075 0.497368 0.501686 -0.188149
C31   C     C_3   0.028930 0.408496 0.503900 0.018243
C32   C     C_3   0.972515 0.577554 0.496906 0.018537
C33   C     C_3   0.083692 0.492705 0.498247 0.106648
C34   C     C_3   0.917377 0.493450 0.502449 0.109951
C35   C     C_1   0.174384 0.494043 0.497631 -0.083976
C36   C     C_1   0.826386 0.495202 0.502709 -0.065187
C37   C     C_R   0.462722 0.089774 0.579108 0.175689
C38   C     C_R   0.451737 0.910835 0.429778 0.178897
H1    H     H_    0.052426 0.566270 0.354540 0.127349
H2    H     H_    0.948900 0.419678 0.646265 0.131791
H3    H     H_    0.620314 0.435453 0.245400 0.132379
H4    H     H_    0.365234 0.496828 0.756274 0.145336
H5    H     H_    0.622081 0.432310 0.072383 0.131377
H6    H     H_    0.362123 0.493584 0.928710 0.129763
H7    H     H_    0.571001 0.223965 0.375139 0.160924
H8    H     H_    0.588087 0.772959 0.612642 0.158314
H9    H     H_    0.574001 0.061813 0.374404 0.144780
H10   H     H_    0.591079 0.935334 0.615027 0.143464
H11   H     H_    0.376497 0.565754 0.068026 0.127802
H12   H     H_    0.637261 0.507223 0.931484 0.131491
H13   H     H_    0.378272 0.560307 0.241364 0.150861
H14   H     H_    0.634662 0.505066 0.758827 0.130296
N1    N     N_R   0.500000 0.499980 0.252470 -0.094282
N2    N     N_R   0.500000 0.500020 0.747530 -0.090297
O1    O     O_R   0.500010 0.369070 0.579480 -0.605353
O2    O     O_R   0.499990 0.630930 0.420520 -0.607600
O3    O     O_R   0.500010 0.369060 0.420520 -0.624513
O4    O     O_R   0.499990 0.630940 0.579480 -0.619991
O5    O     O_R   0.376780 0.500000 0.579460 -0.624577
O6    O     O_R   0.623220 0.500000 0.420540 -0.619469
O7    O     O_R   0.376780 0.499990 0.420510 -0.621845
O8    O     O_R   0.623220 0.500010 0.579490 -0.633933
Zn1   Zn    Zn3+2 0.500000 0.500010 0.606140 0.950183
Zn2   Zn    Zn3+2 0.500000 0.499990 0.393860 0.952352
C39   C     C_R   0.933061 0.397986 0.345728 0.124078
C40   C     C_R   0.946504 0.424723 0.251593 -0.156987
C41   C     C_R   0.909749 0.376981 0.178050 -0.141878
C42   C     C_R   0.859483 0.302416 0.197962 -0.119244
C43   C     C_R   0.846048 0.275304 0.291483 -0.142956
C44   C     C_R   0.882755 0.322793 0.365166 -0.134197
H15   H     H_    0.984953 0.482410 0.234738 0.115753
H16   H     H_    0.920118 0.397904 0.105576 0.121055
H17   H     H_    0.830965 0.265669 0.140945 0.118643
H18   H     H_    0.807106 0.217567 0.306897 0.123959
H19   H     H_    0.871771 0.301236 0.437385 0.127323
C45   C     C_R   0.069477 0.587357 0.654826 0.126643
C46   C     C_R   0.118286 0.663648 0.635251 -0.136200
C47   C     C_R   0.157230 0.709716 0.708556 -0.136479
C48   C     C_R   0.147656 0.680018 0.801878 -0.113507
C49   C     C_R   0.099002 0.604298 0.821952 -0.149552
C50   C     C_R   0.059962 0.558006 0.748764 -0.165740
H20   H     H_    0.126528 0.687085 0.563204 0.120193
H21   H     H_    0.195010 0.768278 0.692971 0.125728
H22   H     H_    0.177979 0.715604 0.858613 0.119310
H23   H     H_    0.091764 0.581281 0.894260 0.120582
H24   H     H_    0.023127 0.499165 0.765667 0.115642
C51   C     C_R   0.937652 0.671506 0.497117 0.121948
C52   C     C_R   0.955962 0.732355 0.423577 -0.163335
C53   C     C_R   0.923108 0.819428 0.425026 -0.134512
C54   C     C_R   0.871848 0.846255 0.499675 -0.109104
C55   C     C_R   0.853606 0.786130 0.573225 -0.140770
C56   C     C_R   0.886561 0.699131 0.572184 -0.137314
H25   H     H_    0.995585 0.712956 0.365241 0.116661
H26   H     H_    0.937370 0.866130 0.368213 0.127650
H27   H     H_    0.846358 0.913625 0.500573 0.122008
H28   H     H_    0.813970 0.806947 0.631068 0.124289
H29   H     H_    0.872192 0.653203 0.629735 0.127582
C57   C     C_R   0.066001 0.315380 0.504271 0.114424
C58   C     C_R   0.052678 0.255931 0.580443 -0.180018
C59   C     C_R   0.089323 0.170433 0.580614 -0.130801
C60   C     C_R   0.139121 0.143640 0.504774 -0.124655
C61   C     C_R   0.152339 0.202300 0.428560 -0.153241
C62   C     C_R   0.115956 0.287870 0.428213 -0.139164
H30   H     H_    0.014726 0.275556 0.640024 0.119575
H31   H     H_    0.079291 0.124996 0.639705 0.128646
H32   H     H_    0.167502 0.077506 0.505118 0.127809
H33   H     H_    0.191087 0.181601 0.369949 0.133509
H34   H     H_    0.127013 0.332899 0.368942 0.131944
N3    N     N_2   0.428913 0.037904 0.655555 -0.306284
H35   H     H_    0.439542 0.063797 0.721310 0.223144
C63   C     C_3   0.342562 0.007028 0.642865 -0.799834
H36   H     H_    0.321297 0.972170 0.708282 0.234708
H37   H     H_    0.339508 0.958395 0.585048 0.254826
H38   H     H_    0.298663 0.064186 0.627667 0.239636
N4    N     N_2   0.407218 0.964055 0.360250 -0.304907
H39   H     H_    0.408021 0.939143 0.293124 0.224698
C64   C     C_3   0.324181 0.996972 0.387180 -0.799921
H40   H     H_    0.293410 0.032062 0.326000 0.233617
H41   H     H_    0.330418 0.045964 0.444341 0.254473
H42   H     H_    0.282725 0.940928 0.410088 0.239699
C65   C     C_R   0.401442 0.229346 0.645909 0.149539
C66   C     C_R   0.427356 0.238929 0.740178 -0.126728
C67   C     C_R   0.373886 0.281538 0.803973 -0.133334
C68   C     C_R   0.295127 0.316307 0.773686 -0.145915
C69   C     C_R   0.269853 0.308867 0.679459 -0.110688
C70   C     C_R   0.322674 0.265381 0.615710 -0.142429
H43   H     H_    0.488723 0.213347 0.764102 0.109100
H44   H     H_    0.393847 0.288383 0.876714 0.134243
H45   H     H_    0.254181 0.349997 0.822986 0.121926
H46   H     H_    0.209443 0.336958 0.655840 0.147156
H47   H     H_    0.302436 0.259836 0.542876 0.128730
C71   C     C_R   0.380596 0.772841 0.373147 0.155820
C72   C     C_R   0.389070 0.766833 0.274956 -0.130930
C73   C     C_R   0.323014 0.731627 0.220665 -0.169745
C74   C     C_R   0.249407 0.699619 0.264284 -0.130225
C75   C     C_R   0.241496 0.703291 0.362220 -0.130926
C76   C     C_R   0.306740 0.739888 0.416598 -0.165035
H48   H     H_    0.446080 0.790729 0.240468 0.116081
H49   H     H_    0.329290 0.728215 0.144853 0.127347
H50   H     H_    0.198671 0.671665 0.222238 0.115836
H51   H     H_    0.184466 0.678534 0.395845 0.124454
H52   H     H_    0.299216 0.743870 0.492298 0.113631

loop_
_geom_bond_atom_site_label_1
_geom_bond_atom_site_label_2
_ccdc_geom_bond_type
C25   C31   S    
C51   C52   A    
C23   C29   S    
C26   C32   S    
C60   C61   A    
C17   N1    A    
C61   C62   A    
C63   H36   S    
C76   H52   S    
C54   C55   A    
C74   C75   A    
C4    C71   S    
C14   H12   S    
C46   C47   A    
C27   C33   S    
C23   O5    A    
C59   H31   S    
C75   H51   S    
C1    C5    S    
C15   N1    A    
C19   C21   A    
N3    C63   S    
C48   H22   S    
N1    Zn2   S    
N2    Zn1   S    
C28   H2    S    
C39   C44   A    
C57   C58   A    
C66   H43   S    
C70   H47   S    
C18   C20   A    
C41   H16   S    
C31   C57   S    
C53   H26   S    
C11   C37   A    
C18   H4    S    
C17   C19   A    
C55   H28   S    
C47   H21   S    
C58   C59   A    
C27   H1    S    
C71   C72   A    
N4    C64   S    
O1    Zn1   S    
C26   C45   S    
O2    Zn2   S    
C62   H34   S    
C15   H13   S    
C37   N3    S    
C50   H24   S    
C25   C34   S    
C58   H30   S    
C28   C34   S    
C72   H48   S    
C21   C22   S    
C2    C6    S    
C69   H46   S    
C20   H6    S    
C19   H5    S    
C56   H29   S    
C24   C30   S    
C43   H18   S    
C74   H50   S    
C41   C42   A    
C67   C68   A    
C60   H32   S    
C25   C39   S    
C45   C46   A    
C4    C6    A    
C64   H42   S    
C73   H49   S    
C5    C7    A    
C47   C48   A    
C42   C43   A    
C6    C8    A    
C42   H17   S    
C32   C51   S    
C32   C34   S    
O7    Zn2   S    
C49   H23   S    
C1    O3    A    
C26   C33   S    
C40   H15   S    
C24   O6    A    
O8    Zn1   S    
C31   C33   S    
C13   C21   A    
C61   H33   S    
C63   H37   S    
C9    C11   A    
C65   C66   A    
C10   C12   A    
C13   H11   S    
C4    C38   A    
C9    H9    S    
C13   C15   A    
C10   H10   S    
C69   C70   A    
C14   C16   A    
C53   C54   A    
C7    H7    S    
C55   C56   A    
C51   C56   A    
O3    Zn2   S    
O4    Zn1   S    
C7    C9    A    
C52   H25   S    
C24   O8    A    
C27   C32   S    
C26   C28   S    
C28   C31   S    
C16   H14   S    
C20   C22   A    
C49   C50   A    
C3    C5    A    
C54   H27   S    
C45   C50   A    
C11   C12   S    
C2    O4    A    
C73   C74   A    
C25   C27   S    
C29   C35   T    
O5    Zn1   S    
C30   C36   T    
O6    Zn2   S    
C14   C22   A    
C16   N2    A    
C64   H41   S    
C1    O1    A    
C65   C70   A    
C2    O2    A    
C64   H40   S    
C38   N4    S    
C67   H44   S    
C72   C73   A    
C46   H20   S    
C59   C60   A    
C33   C35   S    
C68   H45   S    
C40   C41   A    
C63   H38   S    
C34   C36   S    
C12   C38   A    
C43   C44   A    
C17   H3    S    
C18   N2    A    
C48   C49   A    
C3    C65   S    
C23   O7    A    
C52   C53   A    
C3    C37   A    
C8    C10   A    
C39   C40   A    
C44   H19   S    
C75   C76   A    
C71   C76   A    
C8    H8    S    
N4    H39   S    
C66   C67   A    
N3    H35   S    
C57   C62   A    
C68   C69   A    
