data_mof_unit_59386.cif
_audit_creation_date              2012-12-11T14:06:33-0500
_audit_creation_method            fapswitch 2.2
_symmetry_space_group_name_H-M    P1
_symmetry_Int_Tables_number       1
_space_group_crystal_system       triclinic
_cell_length_a                    6.925846
_cell_length_b                    17.354746
_cell_length_c                    24.125235
_cell_angle_alpha                 104.474183
_cell_angle_beta                  90.524299
_cell_angle_gamma                 89.994186
_cell_volume                      2807.60177255

loop_
_atom_site_label
_atom_site_type_symbol
_atom_type_description
_atom_site_fract_x
_atom_site_fract_y
_atom_site_fract_z
_atom_type_partial_charge
O1    O     O_R   0.494290 0.391990 0.999150 -0.534223
O2    O     O_R   0.827170 0.534410 0.082350 -0.499745
O3    O     O_R   0.994360 0.608010 0.000850 -0.564242
C1    C     C_R   0.658969 0.550566 0.106105 0.863237
O4    O     O_R   0.824210 0.388010 0.004470 -0.512479
O5    O     O_R   0.991370 0.460560 0.922410 -0.557205
C2    C     C_R   0.654319 0.354990 0.001497 0.684993
O6    O     O_R   0.497270 0.539440 0.077590 -0.518157
O7    O     O_3   0.659770 0.523970 0.973170 -0.386364
V1    V     V_3+5 0.935840 0.495550 0.004980 1.707063
O8    O     O_R   0.320910 0.465590 0.917650 -0.514058
C3    C     C_R   0.151016 0.450264 0.893916 0.795920
O9    O     O_R   0.323870 0.611990 0.995530 -0.520707
C4    C     C_R   0.154006 0.645321 0.999541 0.711338
V2    V     V_3+5 0.435470 0.504450 0.995020 1.694394
O10   O     O_3   0.161670 0.476030 0.026830 -0.338813
C5    C     C_2   0.137560 0.728915 0.995866 0.412822
C6    C     C_2   0.977906 0.774889 0.013385 -0.326537
C7    C     C_R   0.088231 0.247106 0.626687 0.743643
N1    N     N_R   0.089634 0.328176 0.648524 -0.529576
C8    C     C_R   0.083117 0.378550 0.612869 0.733116
C9    C     C_R   0.077379 0.348043 0.553017 -0.025368
C10   C     C_R   0.069491 0.264990 0.530015 -0.091757
C11   C     C_R   0.070965 0.213807 0.567067 -0.276396
C12   C     C_R   0.076790 0.398627 0.515749 -0.072914
C13   C     C_R   0.068331 0.367318 0.456537 -0.064748
C14   C     C_R   0.058034 0.284744 0.433038 -0.035259
C15   C     C_R   0.057562 0.233261 0.469851 -0.099673
C16   C     C_R   0.043818 0.150349 0.446636 -0.294486
C17   C     C_R   0.042880 0.099740 0.484196 0.597671
C18   C     C_R   0.053503 0.131134 0.543539 0.621154
C19   C     C_R   0.046430 0.252470 0.373468 0.726239
N2    N     N_R   0.028780 0.171854 0.351247 -0.536363
C20   C     C_R   0.027228 0.120833 0.386536 0.801720
O11   O     O_2   0.103121 0.199065 0.662670 -0.451474
O12   O     O_2   0.080623 0.457973 0.635261 -0.455274
H1    H     H_    0.081851 0.462671 0.532159 0.207201
H2    H     H_    0.065801 0.408210 0.429222 0.225087
O13   O     O_2   0.053410 0.301427 0.337989 -0.454733
O14   O     O_2   0.007007 0.041984 0.363551 -0.426670
C21   C     C_R   0.151589 0.091802 0.258551 0.697098
C22   C     C_R   0.134185 0.063640 0.199123 -0.270520
H3    H     H_    0.246196 0.025183 0.176331 0.182435
C23   C     C_R   0.975629 0.084697 0.169139 -0.290676
C24   C     C_R   0.832074 0.135950 0.200463 -0.179449
C25   C     C_R   0.847632 0.161379 0.260678 0.623399
C26   C     C_R   0.008333 0.140647 0.289876 0.083090
C27   C     C_R   0.266163 0.402005 0.734677 0.600063
C28   C     C_R   0.285606 0.430443 0.794120 0.538905
C29   C     C_R   0.135909 0.419675 0.830499 -0.276987
C30   C     C_R   0.966791 0.380033 0.805818 -0.265410
H4    H     H_    0.849894 0.372132 0.833436 0.211343
C31   C     C_R   0.945466 0.350634 0.746142 -0.075442
C32   C     C_R   0.098932 0.360917 0.709993 0.085086
C33   C     C_R   0.557794 0.878101 0.614273 0.779470
N3    N     N_R   0.538263 0.827738 0.649317 -0.522788
C34   C     C_R   0.547004 0.746972 0.628066 0.616923
C35   C     C_R   0.571214 0.712654 0.568409 -0.072005
C36   C     C_R   0.578699 0.764209 0.531221 0.007187
C37   C     C_R   0.568582 0.848124 0.553995 -0.115598
C38   C     C_R   0.579243 0.628794 0.544579 -0.110790
C39   C     C_R   0.575008 0.597304 0.484415 -0.101312
C40   C     C_R   0.593475 0.648779 0.447136 -0.118847
C41   C     C_R   0.596587 0.732086 0.471095 0.000573
C42   C     C_R   0.615467 0.783771 0.434664 -0.051720
C43   C     C_R   0.605923 0.866077 0.457447 -0.078728
C44   C     C_R   0.572982 0.898722 0.515624 -0.039483
C45   C     C_R   0.612264 0.620228 0.386517 0.769876
N4    N     N_R   0.627160 0.672030 0.352220 -0.502989
C46   C     C_R   0.634633 0.752331 0.375312 0.663505
O15   O     O_2   0.570641 0.956883 0.638242 -0.444958
O16   O     O_2   0.528712 0.700510 0.664921 -0.494466
O17   O     O_2   0.618247 0.541558 0.361695 -0.452482
O18   O     O_2   0.658052 0.801799 0.340683 -0.499492
H5    H     H_    0.611811 0.905566 0.429038 0.213092
C47   C     C_R   0.472876 0.653317 0.255467 -0.209718
C48   C     C_R   0.484921 0.623966 0.195387 0.536147
C49   C     C_R   0.649824 0.582356 0.169670 -0.394129
C50   C     C_R   0.804047 0.571003 0.205239 0.499111
C51   C     C_R   0.793508 0.599741 0.264706 0.612441
C52   C     C_R   0.630482 0.641417 0.290479 0.017591
C53   C     C_R   0.332661 0.849712 0.737065 -0.197709
C54   C     C_R   0.314397 0.879834 0.797045 0.601553
C55   C     C_R   0.469114 0.920194 0.830426 -0.282561
C56   C     C_R   0.641223 0.930972 0.802909 -0.299936
H6    H     H_    0.762185 0.962328 0.827221 0.210766
C57   C     C_R   0.660489 0.902274 0.743847 0.726048
C58   C     C_R   0.509105 0.860614 0.710244 0.093564
C59   C     C_2   0.643027 0.270125 0.002121 0.347700
C60   C     C_2   0.472482 0.229866 0.997863 0.311274
O19   O     O_R   0.618210 0.960470 0.922400 -0.550281
O20   O     O_R   0.291310 0.111960 0.995450 -0.516603
O21   O     O_R   0.124210 0.039530 0.077580 -0.555263
C61   C     C_R   0.461191 0.144989 0.998443 0.716463
O22   O     O_R   0.288310 0.965490 0.917650 -0.508672
O23   O     O_R   0.121180 0.892010 0.999220 -0.504447
C62   C     C_R   0.456777 0.949933 0.893917 0.818706
O24   O     O_R   0.621230 0.107990 0.000760 -0.518976
O25   O     O_3   0.455770 0.976060 0.026840 -0.380925
V3    V     V_3+5 0.179680 0.004440 0.995020 1.670658
O26   O     O_R   0.791670 0.888040 0.004570 -0.528324
C63   C     C_R   0.961812 0.855667 0.003473 0.794019
O27   O     O_R   0.794680 0.034510 0.082370 -0.545523
C64   C     C_R   0.963876 0.051978 0.105831 0.796683
V4    V     V_3+5 0.680070 0.995560 0.005010 1.619295
O28   O     O_3   0.953840 0.023940 0.973160 -0.359538
F1    F     F_    0.283139 0.756692 0.968568 -0.628900
F2    F     F_    0.710133 0.209330 0.291177 -0.588977
F3    F     F_    0.411760 0.414350 0.700667 -0.620283
F4    F     F_    0.449924 0.469681 0.815784 -0.625647
C65   C     C_2   0.760553 0.310748 0.723303 0.985375
O29   O     O_2   0.713118 0.303476 0.673315 -0.524337
O30   O     O_R   0.637858 0.282390 0.759548 -0.657640
H7    H     H_    0.516343 0.256798 0.739293 0.315349
C66   C     C_2   0.594825 0.572303 0.581571 0.930803
O31   O     O_2   0.742281 0.570840 0.609563 -0.488682
O32   O     O_R   0.443047 0.519969 0.583319 -0.643835
H8    H     H_    0.472956 0.483320 0.609038 0.363024
C67   C     C_2   0.541825 0.510511 0.461718 0.892289
O33   O     O_2   0.395567 0.487108 0.433860 -0.513014
O34   O     O_R   0.674458 0.455926 0.473436 -0.665559
H9    H     H_    0.633644 0.398727 0.456408 0.315754
C68   C     C_2   0.525985 0.984792 0.532189 0.962376
O35   O     O_2   0.386094 0.008278 0.562101 -0.465926
O36   O     O_R   0.632945 0.038251 0.509981 -0.629301
H10   H     H_    0.584057 0.094912 0.523186 0.293889
C69   C     C_2   0.293447 0.694735 0.280757 1.044402
O37   O     O_2   0.248183 0.695873 0.329827 -0.526820
O38   O     O_R   0.174160 0.731995 0.248262 -0.597932
H11   H     H_    0.056010 0.757170 0.269984 0.324034
C70   C     C_2   0.825986 0.751576 0.049492 0.726650
O39   O     O_2   0.871885 0.724588 0.089970 -0.544946
O40   O     O_R   0.631228 0.763555 0.038635 -0.606027
H12   H     H_    0.542553 0.746553 0.066649 0.314405
F5    F     F_    0.334435 0.635495 0.161826 -0.603350
F6    F     F_    0.964384 0.530410 0.182750 -0.578913
F7    F     F_    0.942923 0.586263 0.297762 -0.581039
C71   C     C_2   0.166450 0.807424 0.703221 1.038795
O41   O     O_2   0.141068 0.810347 0.653554 -0.535654
O42   O     O_R   0.037155 0.764585 0.728303 -0.587403
H13   H     H_    0.930061 0.738697 0.701046 0.337493
F8    F     F_    0.146124 0.869657 0.822894 -0.630911
F9    F     F_    0.828524 0.915045 0.719144 -0.622077
F10   F     F_    0.813116 0.232906 0.007023 -0.627461
F11   F     F_    0.302399 0.267092 0.992970 -0.648570
F12   F     F_    0.029334 0.019511 0.464008 -0.574384
F13   F     F_    0.038613 0.080177 0.577799 -0.533104
F14   F     F_    0.310121 0.072364 0.285588 -0.601722
C72   C     C_2   0.672633 0.168705 0.171713 0.895084
O43   O     O_2   0.703217 0.190005 0.127956 -0.549917
O44   O     O_R   0.488888 0.178233 0.195939 -0.607061
H14   H     H_    0.392953 0.201548 0.172630 0.303969

loop_
_geom_bond_atom_site_label_1
_geom_bond_atom_site_label_2
_ccdc_geom_bond_type
C57   C58   A    
O26   C63   A    
O23   C63   A    
O32   H8    S    
C21   C22   A    
O19   V4    S    
C65   O29   D    
C1    O6    A    
C23   C64   S    
C68   O35   D    
C8    O12   S    
C56   H6    S    
C27   C32   A    
C50   F6    S    
C33   C37   A    
C13   C14   A    
C16   C17   A    
O24   V4    S    
C20   O14   S    
C55   C62   S    
C15   C16   A    
O38   H11   S    
C60   F11   S    
C5    F1    S    
O5    C3    A    
C17   C18   A    
N3    C58   S    
C61   O24   A    
C51   F7    S    
C2    C59   S    
N3    C34   A    
C6    C63   S    
C19   O13   S    
C12   H1    S    
C40   C45   A    
O8    V2    S    
C55   C56   A    
O27   V4    S    
O25   V3    S    
C37   C44   A    
C45   N4    A    
C66   O32   S    
C9    C12   A    
C25   F2    S    
C46   O18   S    
V1    O10   S    
O44   H14   S    
C60   C61   S    
O1    V2    S    
O7    V1    S    
C18   F13   S    
C31   C65   S    
C35   C38   A    
C56   C57   A    
C43   C44   A    
C36   C37   A    
O1    C2    A    
C8    C9    A    
C4    C5    S    
C6    C70   S    
N4    C46   A    
C22   C23   A    
O21   C64   A    
C17   F12   S    
C34   C35   A    
C67   O34   S    
O26   V4    S    
O25   V4    S    
O34   H9    S    
C30   H4    S    
N4    C52   S    
C47   C48   A    
N1    C32   S    
C59   C60   D    
O4    C2    A    
C49   C50   A    
C13   H2    S    
C29   C30   A    
C45   O17   S    
C48   C49   A    
C16   C20   A    
C53   C54   A    
O19   C62   A    
C50   C51   A    
C30   C31   A    
O2    C1    A    
C69   O38   S    
C1    C49   S    
C39   C40   A    
C54   C55   A    
C10   C11   A    
C33   N3    A    
O20   C61   A    
C5    C6    D    
C21   C26   A    
C24   C25   A    
C65   O30   S    
C10   C15   A    
O42   H13   S    
O21   V3    S    
C39   C67   S    
O3    C4    A    
C71   O42   S    
C27   C28   A    
C42   C43   A    
O6    V2    S    
O9    V2    S    
O36   H10   S    
N2    C26   S    
C35   C36   A    
C22   H3    S    
C70   O39   D    
O2    V1    S    
C14   C15   A    
C23   C24   A    
O20   V3    S    
O30   H7    S    
C25   C26   A    
C14   C19   A    
O22   V3    S    
C51   C52   A    
C70   O40   S    
C44   C68   S    
C47   C52   A    
O5    V1    S    
C54   F8    S    
C3    C29   S    
C67   O33   D    
O22   C62   A    
C31   C32   A    
C69   O37   D    
C59   F10   S    
V4    O28   S    
V3    O28   S    
C41   C42   A    
C7    N1    A    
C72   O44   S    
C7    C11   A    
C12   C13   A    
C11   C18   A    
O4    V1    S    
C53   C71   S    
O3    V1    S    
C38   C66   S    
C72   O43   D    
C19   N2    A    
C66   O31   D    
O40   H12   S    
C21   F14   S    
C53   C58   A    
C43   H5    S    
O23   V3    S    
N2    C20   A    
C27   F3    S    
C24   C72   S    
C34   O16   S    
O7    V2    S    
C38   C39   A    
C68   O36   S    
C71   O41   D    
C40   C41   A    
C36   C41   A    
N1    C8    A    
C28   C29   A    
O27   C64   A    
C47   C69   S    
C9    C10   A    
C7    O11   S    
C48   F5    S    
C57   F9    S    
C42   C46   A    
O9    C4    A    
C33   O15   S    
V2    O10   S    
O8    C3    A    
C28   F4    S    
