data_mof_unit_64519.cif
_audit_creation_date              2012-12-10T19:52:24-0500
_audit_creation_method            fapswitch 2.2
_symmetry_space_group_name_H-M    P1
_symmetry_Int_Tables_number       1
_space_group_crystal_system       triclinic
_cell_length_a                    18.277379
_cell_length_b                    18.277932
_cell_length_c                    31.873674
_cell_angle_alpha                 89.999943
_cell_angle_beta                  89.999338
_cell_angle_gamma                 89.999599
_cell_volume                      10648.1240283

loop_
_atom_site_label
_atom_site_type_symbol
_atom_type_description
_atom_site_fract_x
_atom_site_fract_y
_atom_site_fract_z
_atom_type_partial_charge
C1    C     C_R   0.641225 0.500020 1.000000 0.936855
C2    C     C_1   0.500031 0.499648 0.163342 0.072227
C3    C     C_3   0.990578 0.191879 0.749901 -0.295077
C4    C     C_1   0.999934 0.999649 0.336657 0.072227
C5    C     C_1   0.000027 0.999647 0.663342 0.072228
C6    C     C_1   0.499964 0.499321 0.663343 0.038908
C7    C     C_1   0.500020 0.499318 0.336657 0.038906
C8    C     C_1   0.999964 0.999320 0.163343 0.038907
C9    C     C_1   0.000017 0.999317 0.836657 0.038907
C10   C     C_1   0.717646 0.500055 1.000000 -0.181613
C11   C     C_1   0.282354 0.500056 0.000000 -0.181747
C12   C     C_1   0.217646 0.000055 0.500000 -0.181595
C13   C     C_R   0.358775 0.500020 0.000000 0.936670
C14   C     C_1   0.782354 0.000056 0.500000 -0.181764
C15   C     C_1   0.782388 0.500047 0.000000 -0.180306
C16   C     C_1   0.217612 0.500047 1.000000 -0.180395
C17   C     C_1   0.282388 0.000047 0.500000 -0.180290
C18   C     C_1   0.717612 0.000047 0.500000 -0.180410
C19   C     C_R   0.500000 0.358652 0.500000 0.932812
C20   C     C_R   0.000000 0.858652 0.000000 0.932813
C21   C     C_R   0.499999 0.499878 0.581391 0.904524
C22   C     C_R   0.500001 0.499878 0.418609 0.904563
C23   C     C_R   0.999999 0.999878 0.081391 0.904524
C24   C     C_R   0.141225 0.000020 0.500000 0.936871
C25   C     C_R   0.000001 0.999878 0.918609 0.904566
C26   C     C_R   0.500000 0.641068 0.500000 0.938859
C27   C     C_R   1.000000 0.141067 1.000000 0.938861
C28   C     C_R   0.000000 0.641156 0.000000 0.931224
C29   C     C_R   0.500000 0.141156 0.500000 0.931224
C30   C     C_R   0.858810 0.500017 0.000000 0.930762
C31   C     C_R   0.141190 0.500017 1.000000 0.930809
C32   C     C_R   0.358810 0.000017 0.500000 0.930765
C33   C     C_R   0.641190 0.000017 0.500000 0.930806
C34   C     C_R   0.500000 0.499994 0.918609 0.902469
C35   C     C_R   0.858775 0.000020 0.500000 0.936655
C36   C     C_R   0.500000 0.499994 0.081390 0.902506
C37   C     C_R   0.999999 0.999994 0.418610 0.902468
C38   C     C_R   1.000000 0.999994 0.581390 0.902509
C39   C     C_R   1.000000 0.358791 0.000000 0.930391
C40   C     C_R   0.500000 0.858791 0.500000 0.930391
C41   C     C_1   0.500000 0.282265 0.500000 -0.188002
C42   C     C_1   0.000000 0.782265 0.000000 -0.188001
C43   C     C_1   0.000000 0.717544 0.000000 -0.183749
C44   C     C_1   0.500000 0.217544 0.500000 -0.183749
C45   C     C_1   0.500000 0.717542 0.500000 -0.182326
C46   C     C_3   0.507469 0.567816 0.736387 0.388439
C47   C     C_1   1.000000 0.217542 1.000000 -0.182324
C48   C     C_1   1.000000 0.282315 1.000000 -0.180012
C49   C     C_1   0.500000 0.782315 0.500000 -0.180014
C50   C     C_3   0.556267 0.457204 0.735920 -0.281670
C51   C     C_3   0.562518 0.467037 0.264092 -0.281963
C52   C     C_3   0.435810 0.470446 0.735901 -0.281918
C53   C     C_3   0.441522 0.460290 0.264085 -0.281644
C54   C     C_3   0.056250 0.957181 0.235921 -0.281639
C55   C     C_3   0.062294 0.966615 0.764092 -0.281957
C56   C     C_3   0.935798 0.970470 0.235901 -0.281945
C57   C     C_3   0.496195 0.568119 0.263615 0.388436
C58   C     C_3   0.941255 0.960685 0.764085 -0.281652
C59   C     C_3   0.563036 0.526423 0.763467 0.445906
C60   C     C_3   0.557831 0.536430 0.236546 0.445786
C61   C     C_3   0.444211 0.539487 0.763449 0.445795
C62   C     C_3   0.438475 0.529775 0.236539 0.445885
C63   C     C_3   0.063044 0.026397 0.263467 0.445888
C64   C     C_3   0.058075 0.036039 0.736546 0.445787
C65   C     C_3   0.944224 0.039508 0.263448 0.445805
C66   C     C_3   0.938677 0.030188 0.736539 0.445887
C67   C     C_1   0.499970 0.499917 0.874146 -0.164403
C68   C     C_3   0.007494 0.067813 0.236386 0.388435
C69   C     C_1   0.500014 0.499917 0.125854 -0.164409
C70   C     C_1   0.999968 0.999917 0.374146 -0.164402
C71   C     C_1   0.000013 0.999917 0.625854 -0.164410
C72   C     C_1   0.499992 0.499624 0.625854 -0.180630
C73   C     C_1   0.500005 0.499622 0.374146 -0.180634
C74   C     C_1   0.999992 0.999623 0.125854 -0.180629
C75   C     C_1   0.000004 0.999622 0.874146 -0.180634
C76   C     C_3   0.492279 0.429749 0.764033 -0.242319
C77   C     C_3   0.503934 0.429435 0.235965 -0.242300
C78   C     C_3   0.992250 0.929751 0.264033 -0.242315
C79   C     C_3   0.996654 0.068142 0.763615 0.388441
C80   C     C_3   0.003458 0.929409 0.735965 -0.242302
C81   C     C_3   0.499899 0.499207 0.791220 -0.013192
C82   C     C_3   0.500050 0.499204 0.208780 -0.013188
C83   C     C_3   0.999896 0.999206 0.291220 -0.013193
C84   C     C_3   0.000044 0.999203 0.708780 -0.013189
C85   C     C_3   0.499916 0.498970 0.708763 -0.000991
C86   C     C_3   0.500045 0.498964 0.291237 -0.000976
C87   C     C_3   0.999916 0.998968 0.208763 -0.000992
C88   C     C_3   0.000039 0.998963 0.791237 -0.000974
C89   C     C_3   0.680418 0.564555 0.749290 -0.298500
C90   C     C_1   0.499936 0.499649 0.836657 0.072227
C91   C     C_3   0.667360 0.593297 0.250743 -0.298654
C92   C     C_3   0.337871 0.602109 0.749246 -0.298787
C93   C     C_3   0.323291 0.574100 0.250719 -0.298672
C94   C     C_3   0.180435 0.064504 0.249290 -0.298425
C95   C     C_3   0.167982 0.092171 0.750742 -0.298648
C96   C     C_3   0.837898 0.102157 0.249247 -0.298851
C97   C     C_3   0.823792 0.075283 0.750719 -0.298666
C98   C     C_3   0.520903 0.690975 0.750099 -0.295098
C99   C     C_3   0.489290 0.691812 0.249901 -0.295073
C100  C     C_3   0.020944 0.190969 0.250100 -0.295082
H1    H     H_    0.601605 0.423028 0.723566 0.161723
H2    H     H_    0.507097 0.372778 0.223556 0.176002
H3    H     H_    0.986019 0.873348 0.276441 0.175975
H4    H     H_    0.006238 0.872733 0.723556 0.176006
H5    H     H_    0.659197 0.598106 0.722822 0.190000
H6    H     H_    0.700294 0.510779 0.737682 0.162709
H7    H     H_    0.728040 0.593963 0.762734 0.191051
H8    H     H_    0.695774 0.543495 0.262342 0.162756
H9    H     H_    0.640919 0.622899 0.277214 0.189754
H10   H     H_    0.709526 0.630114 0.237309 0.191140
H11   H     H_    0.306805 0.553890 0.737684 0.162826
H12   H     H_    0.612846 0.440775 0.276458 0.161805
H13   H     H_    0.365847 0.630196 0.722750 0.189603
H14   H     H_    0.297760 0.641170 0.762667 0.191147
H15   H     H_    0.346269 0.606418 0.277210 0.189889
H16   H     H_    0.300558 0.521444 0.262292 0.162732
H17   H     H_    0.277315 0.606039 0.237288 0.191059
H18   H     H_    0.159225 0.098086 0.222833 0.190042
H19   H     H_    0.200285 0.010728 0.237667 0.162679
H20   H     H_    0.228075 0.093879 0.262738 0.191039
H21   H     H_    0.196058 0.042182 0.762347 0.162753
H22   H     H_    0.141739 0.121959 0.777210 0.189767
H23   H     H_    0.384149 0.446927 0.723529 0.161885
H24   H     H_    0.210397 0.128700 0.737307 0.191137
H25   H     H_    0.806809 0.053943 0.237697 0.162847
H26   H     H_    0.865878 0.130216 0.222742 0.189564
H27   H     H_    0.797808 0.141242 0.262664 0.191154
H28   H     H_    0.846980 0.107453 0.777208 0.189879
H29   H     H_    0.800713 0.022779 0.762294 0.162724
H30   H     H_    0.778026 0.107520 0.737286 0.191059
H31   H     H_    0.569880 0.681927 0.770040 0.199592
H32   H     H_    0.470760 0.693073 0.769721 0.199725
H33   H     H_    0.527170 0.745385 0.735124 0.186478
H34   H     H_    0.394418 0.428598 0.276444 0.161780
H35   H     H_    0.439684 0.685525 0.230125 0.199642
H36   H     H_    0.539267 0.691057 0.230108 0.199677
H37   H     H_    0.486258 0.746505 0.264869 0.186426
H38   H     H_    0.069846 0.181862 0.270093 0.199562
H39   H     H_    0.970745 0.193136 0.269672 0.199743
H40   H     H_    0.027328 0.245368 0.235128 0.186471
H41   H     H_    0.940922 0.185931 0.730132 0.199646
H42   H     H_    0.040540 0.190781 0.730101 0.199672
H43   H     H_    0.987928 0.246591 0.764869 0.186425
H44   H     H_    0.101576 0.922988 0.223567 0.161725
H45   H     H_    0.112445 0.940015 0.776457 0.161800
H46   H     H_    0.884127 0.946970 0.223528 0.161882
H47   H     H_    0.893940 0.929310 0.776445 0.161784
H48   H     H_    0.486070 0.373344 0.776441 0.175976
O1    O     O_R   0.607370 0.439420 0.000000 -0.619774
O2    O     O_R   0.392710 0.560580 0.000000 -0.617511
O3    O     O_R   0.107290 0.060580 0.500000 -0.617652
O4    O     O_R   0.892710 0.060580 0.500000 -0.617497
O5    O     O_R   0.500000 0.439420 0.938390 -0.620314
O6    O     O_R   0.500000 0.439420 0.061610 -0.620348
O7    O     O_R   0.000000 0.939420 0.438390 -0.620312
O8    O     O_R   0.000000 0.939420 0.561610 -0.620351
O9    O     O_R   0.500000 0.560580 0.938390 -0.611511
O10   O     O_R   0.500000 0.560580 0.061610 -0.611524
O11   O     O_R   0.000000 0.060580 0.438390 -0.611512
O12   O     O_R   0.392630 0.439420 0.000000 -0.619868
O13   O     O_R   0.000000 0.060580 0.561610 -0.611525
O14   O     O_R   0.560550 0.392540 0.500000 -0.619683
O15   O     O_R   0.439450 0.392540 0.500000 -0.619648
O16   O     O_R   0.060550 0.892540 0.000000 -0.619692
O17   O     O_R   0.939450 0.892540 0.000000 -0.619639
O18   O     O_R   0.560580 0.499860 0.561610 -0.616987
O19   O     O_R   0.560580 0.499860 0.438390 -0.617835
O20   O     O_R   0.439420 0.499860 0.561610 -0.618074
O21   O     O_R   0.439420 0.499860 0.438390 -0.617277
O22   O     O_R   0.060580 0.999860 0.061610 -0.616987
O23   O     O_R   0.107370 0.939420 0.500000 -0.619757
O24   O     O_R   0.060580 0.999860 0.938390 -0.617804
O25   O     O_R   0.939420 0.999860 0.061610 -0.618074
O26   O     O_R   0.939420 0.999860 0.938390 -0.617311
O27   O     O_R   0.560630 0.607160 0.500000 -0.618141
O28   O     O_R   0.439370 0.607160 0.500000 -0.618369
O29   O     O_R   0.060630 0.107160 0.000000 -0.618120
O30   O     O_R   0.939370 0.107160 0.000000 -0.618391
O31   O     O_R   0.000000 0.607310 0.965210 -0.620241
O32   O     O_R   0.000000 0.607310 0.034790 -0.620239
O33   O     O_R   0.500000 0.107310 0.465210 -0.620241
O34   O     O_R   0.892630 0.939420 0.500000 -0.619886
O35   O     O_R   0.500000 0.107310 0.534790 -0.620238
O36   O     O_R   0.892680 0.500000 0.965220 -0.618718
O37   O     O_R   0.892680 0.500000 0.034780 -0.619200
O38   O     O_R   0.107320 0.500000 0.965220 -0.619243
O39   O     O_R   0.107320 0.500000 0.034780 -0.618748
O40   O     O_R   0.392680 0.000000 0.465220 -0.618718
O41   O     O_R   0.392680 0.000000 0.534780 -0.619187
O42   O     O_R   0.607320 0.000000 0.465220 -0.619246
O43   O     O_R   0.607320 0.000000 0.534780 -0.618758
O44   O     O_3   0.627736 0.555196 0.781089 -0.606258
O45   O     O_R   0.000000 0.392690 0.965220 -0.618620
O46   O     O_3   0.616929 0.575456 0.218937 -0.606058
O47   O     O_3   0.387290 0.581632 0.781052 -0.605964
O48   O     O_3   0.375413 0.561992 0.218922 -0.606197
O49   O     O_3   0.127756 0.055146 0.281090 -0.606262
O50   O     O_3   0.117435 0.074664 0.718937 -0.606067
O51   O     O_3   0.887320 0.081678 0.281051 -0.605958
O52   O     O_3   0.875833 0.062829 0.718922 -0.606192
O53   O     O_3   0.515208 0.637857 0.718250 -0.617669
O54   O     O_3   0.492268 0.638477 0.281752 -0.617662
O55   O     O_3   0.015268 0.137850 0.218251 -0.617663
O56   O     O_R   0.000000 0.392690 0.034780 -0.618665
O57   O     O_3   0.993202 0.138525 0.781752 -0.617664
O58   O     O_R   0.500000 0.892690 0.465220 -0.618623
O59   O     O_R   0.500000 0.892690 0.534780 -0.618664
O60   O     O_R   0.607290 0.560580 0.000000 -0.617638
Zn1   Zn    Zn3+2 0.500000 0.419100 0.000000 0.974008
Zn2   Zn    Zn3+2 0.000000 0.500000 0.046450 0.977434
Zn3   Zn    Zn3+2 0.500000 0.000000 0.453550 0.977438
Zn4   Zn    Zn3+2 0.500000 0.000000 0.546450 0.977437
Zn5   Zn    Zn3+2 0.000000 0.919100 0.500000 0.974007
Zn6   Zn    Zn3+2 0.500000 0.580900 0.000000 0.985460
Zn7   Zn    Zn3+2 0.000000 0.080900 0.500000 0.985459
Zn8   Zn    Zn3+2 0.580910 0.499830 0.500000 0.973438
Zn9   Zn    Zn3+2 0.419090 0.499830 0.500000 0.973043
Zn10  Zn    Zn3+2 0.080910 0.999830 0.000000 0.973459
Zn11  Zn    Zn3+2 0.919090 0.999830 0.000000 0.973019
Zn12  Zn    Zn3+2 0.000000 0.500000 0.953550 0.977441

loop_
_geom_bond_atom_site_label_1
_geom_bond_atom_site_label_2
_ccdc_geom_bond_type
C95   H24   S    
O45   Zn12  S    
O21   Zn9   S    
C51   H12   S    
C100  O55   S    
C64   O50   S    
C46   C59   S    
C96   O51   S    
C11   C13   S    
C37   O7    A    
C98   O53   S    
C54   H44   S    
C3    H41   S    
C27   O30   A    
C62   O48   S    
O29   Zn10  S    
C80   C84   S    
C92   O47   S    
C94   H19   S    
C4    C70   T    
C77   H2    S    
C36   O6    A    
C57   C62   S    
C7    C73   T    
O14   Zn8   S    
C16   C31   S    
C6    C72   T    
O12   Zn1   S    
C39   O45   A    
C98   H33   S    
O9    Zn6   S    
C6    C85   S    
C29   O33   A    
C80   H4    S    
C50   C59   S    
C26   O27   A    
C91   H10   S    
C52   C85   S    
C100  H39   S    
O1    Zn1   S    
C97   H30   S    
O6    Zn1   S    
C52   C61   S    
C9    C88   S    
C54   C87   S    
O31   Zn12  S    
C52   H23   S    
C65   C83   S    
C7    C86   S    
C54   C63   S    
C25   O26   A    
C27   C47   S    
C56   C65   S    
C20   O16   A    
C56   C78   S    
C57   C86   S    
C93   H15   S    
C55   C88   S    
O7    Zn5   S    
C1    O60   A    
C14   C18   T    
C64   C84   S    
O22   Zn10  S    
C100  H40   S    
C50   C85   S    
C91   H9    S    
C65   O51   S    
C94   H20   S    
O58   Zn3   S    
C58   C66   S    
C46   O53   S    
C4    C83   S    
C57   O54   S    
C99   H36   S    
O34   Zn5   S    
C96   H25   S    
C1    O1    A    
C53   C86   S    
C38   O8    A    
O20   Zn9   S    
C2    C69   T    
C92   H13   S    
C61   O47   S    
C13   O12   A    
C26   C45   S    
C36   O10   A    
O43   Zn4   S    
C46   C85   S    
C95   H21   S    
O13   Zn7   S    
C40   O59   A    
O3    Zn7   S    
C37   C70   S    
C56   C87   S    
C68   O55   S    
C56   H46   S    
C97   O52   S    
C59   O44   S    
C38   C71   S    
C3    H42   S    
C60   C82   S    
O19   Zn8   S    
C97   H28   S    
C78   C83   S    
C51   C86   S    
C79   C88   S    
C28   O31   A    
O26   Zn11  S    
C38   O13   A    
C99   H35   S    
O4    Zn7   S    
C40   O58   A    
O11   Zn7   S    
C32   O40   A    
C21   C72   S    
C60   O46   S    
C3    O57   S    
C30   O37   A    
C27   O29   A    
O30   Zn11  S    
C68   C87   S    
C3    H43   S    
C14   C35   S    
C5    C84   S    
C58   H47   S    
C57   C60   S    
C46   C61   S    
O35   Zn4   S    
C79   O57   S    
O38   Zn12  S    
C67   C90   T    
C21   O18   A    
C63   O49   S    
C96   H27   S    
C63   C83   S    
C33   O42   A    
C35   O34   A    
C19   O14   A    
O23   Zn5   S    
C98   H31   S    
C53   C77   S    
O42   Zn3   S    
C51   C77   S    
C66   C79   S    
C24   O3    A    
C50   C76   S    
C53   C62   S    
C47   C48   T    
O39   Zn2   S    
C26   O28   A    
C65   C68   S    
C55   C64   S    
C89   H7    S    
C8    C74   T    
C45   C49   T    
C96   H26   S    
C31   O39   A    
C19   O15   A    
O32   Zn2   S    
C28   O32   A    
C100  H38   S    
C22   O19   A    
O15   Zn9   S    
C25   O24   A    
C24   O23   A    
O28   Zn9   S    
C99   O54   S    
O59   Zn4   S    
C41   C44   T    
C2    C82   S    
C93   O48   S    
C35   O4    A    
C81   C90   S    
C23   C74   S    
C89   H5    S    
O24   Zn10  S    
C36   C69   S    
C95   H22   S    
C15   C30   S    
C30   O36   A    
C1    C10   S    
C34   O5    A    
O16   Zn10  S    
C91   O46   S    
C63   C68   S    
O60   Zn6   S    
C29   O35   A    
C78   H3    S    
C21   O20   A    
C91   H8    S    
C11   C16   T    
C53   H34   S    
C59   C81   S    
C52   C76   S    
O41   Zn4   S    
C58   C88   S    
C76   C81   S    
C13   O2    A    
C20   C42   S    
C92   H11   S    
C23   O25   A    
C58   C80   S    
O10   Zn6   S    
C12   C24   S    
C28   C43   S    
C93   H17   S    
C33   O43   A    
C10   C15   T    
C8    C87   S    
O27   Zn8   S    
C94   O49   S    
O56   Zn2   S    
C97   H29   S    
O40   Zn3   S    
C29   C44   S    
C61   C81   S    
C12   C17   T    
O5    Zn1   S    
C55   C80   S    
C94   H18   S    
C37   O11   A    
O33   Zn3   S    
C23   O22   A    
C77   C82   S    
C95   O50   S    
C31   O38   A    
C64   C79   S    
C89   O44   S    
C32   O41   A    
O2    Zn6   S    
C62   C82   S    
O25   Zn11  S    
C18   C33   S    
C22   O21   A    
C55   H45   S    
O17   Zn11  S    
C66   C84   S    
C34   C67   S    
C89   H6    S    
C34   O9    A    
C19   C41   S    
O36   Zn12  S    
C76   H48   S    
C50   H1    S    
C5    C71   T    
C42   C43   T    
C98   H32   S    
O8    Zn5   S    
C17   C32   S    
O37   Zn2   S    
C99   H37   S    
C51   C60   S    
C9    C75   T    
C22   C73   S    
C25   C75   S    
C39   O56   A    
C92   H14   S    
C93   H16   S    
C66   O52   S    
C40   C49   S    
O18   Zn8   S    
C39   C48   S    
C54   C78   S    
C20   O17   A    
