data_mof_unit_17596.cif
_audit_creation_date              2012-12-11T16:09:25-0500
_audit_creation_method            fapswitch 2.2
_symmetry_space_group_name_H-M    P1
_symmetry_Int_Tables_number       1
_space_group_crystal_system       triclinic
_cell_length_a                    6.953931
_cell_length_b                    21.359862
_cell_length_c                    23.605659
_cell_angle_alpha                 90.084211
_cell_angle_beta                  90.19399
_cell_angle_gamma                 89.930526
_cell_volume                      3506.24027299

loop_
_atom_site_label
_atom_site_type_symbol
_atom_type_description
_atom_site_fract_x
_atom_site_fract_y
_atom_site_fract_z
_atom_type_partial_charge
O1    O     O_R   0.494270 0.443530 0.442350 -0.536525
O2    O     O_R   0.824060 0.436290 0.557250 -0.538450
O3    O     O_R   0.994370 0.556470 0.557650 -0.534269
C1    C     C_R   0.655538 0.421154 0.576650 0.726460
O4    O     O_R   0.823990 0.436120 0.442760 -0.538346
O5    O     O_R   0.994300 0.556300 0.442340 -0.527488
C2    C     C_R   0.655028 0.420926 0.423302 0.727278
O6    O     O_R   0.494350 0.443700 0.557660 -0.535615
O7    O     O_3   0.660800 0.539430 0.500000 -0.363279
V1    V     V_3+5 0.935650 0.492690 0.500000 1.439148
O8    O     O_R   0.324020 0.563710 0.442750 -0.536715
C3    C     C_R   0.154792 0.578845 0.423350 0.722072
O9    O     O_R   0.324090 0.563880 0.557240 -0.537127
C4    C     C_R   0.155415 0.579057 0.576634 0.725997
V2    V     V_3+5 0.435660 0.507310 0.500000 1.439788
O10   O     O_3   0.160640 0.460570 0.500000 -0.370895
C5    C     C_3   0.971036 0.731330 0.784937 0.025008
C6    C     C_3   0.151612 0.692346 0.770570 -0.149868
H1    H     H_    0.186796 0.645343 0.787767 0.144804
H2    H     H_    0.415613 0.754861 0.800666 0.149605
C7    C     C_1   0.145761 0.624800 0.622078 -0.181725
C8    C     C_1   0.073621 0.874503 0.877101 -0.149016
C9    C     C_3   0.939350 0.746511 0.721657 -0.182909
C10   C     C_3   0.121638 0.708476 0.707504 0.151053
C11   C     C_3   0.065045 0.806141 0.728795 -0.154421
C12   C     C_3   0.094816 0.790311 0.791970 0.090992
C13   C     C_3   0.247221 0.767486 0.713891 -0.119670
C14   C     C_3   0.276699 0.752122 0.777570 -0.144236
C15   C     C_1   0.135751 0.662666 0.660434 -0.028187
C16   C     C_1   0.082795 0.836530 0.838820 0.017227
H3    H     H_    0.362180 0.782225 0.684264 0.116610
H4    H     H_    0.029586 0.853149 0.711677 0.133628
H5    H     H_    0.799807 0.743964 0.698762 0.124308
C17   C     C_3   0.259980 0.806875 0.248726 -0.279962
C18   C     C_3   0.895282 0.792805 0.242451 -0.153069
C19   C     C_3   0.896502 0.740010 0.291137 0.101922
H6    H     H_    0.236832 0.789442 0.339988 0.163105
H7    H     H_    0.258825 0.856372 0.263015 0.198167
H8    H     H_    0.782739 0.781531 0.210612 0.133092
C20   C     C_1   0.142808 0.624770 0.378171 -0.151093
C21   C     C_3   0.088942 0.792270 0.208459 0.142657
C22   C     C_3   0.259238 0.762234 0.300539 -0.346856
C23   C     C_3   0.105528 0.709788 0.293536 0.195696
C24   C     C_3   0.147309 0.677697 0.235465 -0.363157
C25   C     C_3   0.120870 0.724740 0.185775 -0.349551
C26   C     C_1   0.127861 0.662945 0.340225 -0.025711
C27   C     C_1   0.082619 0.837584 0.160256 -0.050597
C28   C     C_1   0.074756 0.875011 0.121529 -0.153280
H9    H     H_    0.250341 0.723167 0.158203 0.174525
H10   H     H_    0.996238 0.710239 0.159166 0.176304
H11   H     H_    0.297076 0.659405 0.235157 0.194626
H12   H     H_    0.396973 0.800420 0.225190 0.187013
H13   H     H_    0.403733 0.740716 0.304914 0.167810
H14   H     H_    0.052632 0.636428 0.228754 0.162071
C29   C     C_3   0.497330 0.231477 0.687577 -0.021868
C30   C     C_3   0.818560 0.266358 0.724238 -0.381182
C31   C     C_3   0.805054 0.217741 0.772968 -0.318918
H15   H     H_    0.580031 0.208035 0.653187 0.164043
H16   H     H_    0.909798 0.306368 0.738092 0.169651
H17   H     H_    0.889556 0.244195 0.687148 0.159475
H18   H     H_    0.870802 0.172880 0.759311 0.190922
H19   H     H_    0.894057 0.233436 0.809396 0.186610
C32   C     C_1   0.572585 0.123828 0.877217 -0.136179
C33   C     C_3   0.616538 0.290242 0.706492 0.243828
C34   C     C_3   0.472494 0.184931 0.738697 -0.139836
C35   C     C_3   0.592446 0.207726 0.791321 0.089053
C36   C     C_3   0.504717 0.272585 0.809051 -0.133799
C37   C     C_3   0.524405 0.320923 0.759717 -0.361932
C38   C     C_1   0.580961 0.161629 0.838851 -0.048507
C39   C     C_1   0.634715 0.337039 0.659830 -0.054684
C40   C     C_1   0.646005 0.375244 0.621847 -0.185908
H20   H     H_    0.380743 0.340622 0.749196 0.140715
H21   H     H_    0.613805 0.361660 0.772896 0.173412
H22   H     H_    0.347885 0.265435 0.816344 0.111964
H23   H     H_    0.318625 0.185281 0.751987 0.124297
C41   C     C_3   0.457991 0.308718 0.250246 -0.332377
C42   C     C_3   0.814083 0.290496 0.257399 -0.323038
C43   C     C_3   0.803493 0.242089 0.207598 0.031151
H24   H     H_    0.447343 0.283837 0.159865 0.153282
H25   H     H_    0.483921 0.355918 0.231919 0.146244
H26   H     H_    0.935853 0.277912 0.285943 0.116701
H27   H     H_    0.844213 0.338510 0.241420 0.154205
H28   H     H_    0.913905 0.205289 0.215686 0.123385
C44   C     C_1   0.574634 0.124322 0.121332 -0.178538
C45   C     C_3   0.623881 0.291434 0.291562 0.255846
C46   C     C_3   0.441053 0.259835 0.201536 -0.321945
C47   C     C_3   0.601524 0.209405 0.206379 0.277512
C48   C     C_3   0.574762 0.176417 0.264459 -0.381687
C49   C     C_3   0.586781 0.224362 0.314100 -0.335288
C50   C     C_1   0.585726 0.162540 0.159490 -0.081288
C51   C     C_1   0.635586 0.337405 0.339156 -0.087527
C52   C     C_1   0.644932 0.375219 0.377690 -0.187594
H29   H     H_    0.450089 0.223461 0.338470 0.149955
H30   H     H_    0.704256 0.210419 0.343641 0.146853
H31   H     H_    0.433033 0.152287 0.265631 0.155447
H32   H     H_    0.319480 0.311016 0.273655 0.140281
H33   H     H_    0.297675 0.236869 0.203699 0.139509
H34   H     H_    0.687187 0.139827 0.270234 0.146261
O11   O     O_R   0.724990 0.055630 0.941600 -0.536975
O12   O     O_R   0.395220 0.063160 0.056480 -0.537979
O13   O     O_R   0.225040 0.942970 0.056870 -0.535839
C53   C     C_R   0.564172 0.078366 0.075949 0.730849
O14   O     O_R   0.395270 0.063000 0.941990 -0.535589
O15   O     O_R   0.225080 0.942800 0.941570 -0.536146
C54   C     C_R   0.563756 0.078176 0.922624 0.729896
O16   O     O_R   0.724940 0.055790 0.056910 -0.536905
O17   O     O_3   0.558580 0.959880 0.999250 -0.366711
V3    V     V_3+5 0.283680 0.006590 0.999220 1.454594
O18   O     O_R   0.895380 0.935350 0.941950 -0.533682
C55   C     C_R   0.064065 0.920241 0.922537 0.724871
O19   O     O_R   0.895330 0.935520 0.056440 -0.535330
C56   C     C_R   0.064461 0.920403 0.075856 0.723475
V4    V     V_3+5 0.783690 0.991900 0.999180 1.459212
O20   O     O_3   0.058660 0.038680 0.999200 -0.369108
C57   C     C_2   0.839478 0.858598 0.261665 0.745303
O21   O     O_2   0.940779 0.888132 0.294592 -0.565241
O22   O     O_R   0.671367 0.885840 0.240317 -0.682976
H35   H     H_    0.648554 0.929552 0.255699 0.293646
C58   C     C_3   0.837596 0.767146 0.349926 -0.764655
H36   H     H_    0.834874 0.730318 0.383062 0.226984
H37   H     H_    0.937076 0.803777 0.365313 0.233639
H38   H     H_    0.691125 0.787832 0.347694 0.197194
C59   C     C_2   0.749934 0.687774 0.278259 0.704720
O23   O     O_2   0.673218 0.683118 0.231730 -0.592846
O24   O     O_R   0.706920 0.643469 0.319994 -0.663115
H39   H     H_    0.608910 0.611441 0.306833 0.287523
C60   C     C_2   0.516332 0.118034 0.721101 0.750632
O25   O     O_2   0.395525 0.077278 0.728348 -0.557570
O26   O     O_R   0.692109 0.102878 0.695941 -0.673277
H40   H     H_    0.702685 0.056772 0.686175 0.301144
C61   C     C_2   0.814557 0.709473 0.823581 0.727515
O27   O     O_2   0.727906 0.661212 0.812533 -0.558323
O28   O     O_R   0.767829 0.744257 0.871773 -0.668057
H41   H     H_    0.659103 0.724816 0.894174 0.294772
C62   C     C_3   0.301562 0.248228 0.661056 -0.834270
H42   H     H_    0.213430 0.275773 0.691011 0.217029
H43   H     H_    0.320772 0.275759 0.621636 0.225336
H44   H     H_    0.222477 0.204784 0.649763 0.227032
C63   C     C_2   0.586710 0.298271 0.863994 0.781343
O29   O     O_2   0.486666 0.299241 0.906500 -0.556770
O30   O     O_R   0.774263 0.321719 0.866140 -0.668535
H45   H     H_    0.810957 0.337510 0.905221 0.304368
C64   C     C_3   0.858634 0.273070 0.151056 -0.793362
H46   H     H_    0.006934 0.292084 0.154088 0.207842
H47   H     H_    0.856414 0.238432 0.115973 0.222583
H48   H     H_    0.760117 0.312290 0.140547 0.224313

loop_
_geom_bond_atom_site_label_1
_geom_bond_atom_site_label_2
_ccdc_geom_bond_type
C43   C47   S    
C62   H44   S    
C47   C48   S    
C5    C61   S    
C44   C53   S    
O2    C1    A    
O19   C56   A    
C17   C22   S    
C10   C13   S    
C31   C35   S    
C1    O6    A    
C45   C51   S    
C59   O23   D    
C42   C43   S    
O13   C56   A    
C20   C26   T    
C5    C9    S    
C6    C10   S    
C5    C12   S    
C33   C37   S    
C4    C7    S    
V4    O20   S    
C22   H13   S    
O5    C3    A    
C59   O24   S    
C35   C38   S    
C57   O21   D    
C49   H30   S    
C30   C31   S    
C64   H47   S    
C6    H1    S    
V3    O20   S    
H6    C22   S    
C19   C58   S    
C46   H33   S    
C10   C15   S    
O17   V4    S    
O8    V2    S    
C43   H28   S    
C32   C38   T    
C57   O22   S    
O17   V3    S    
C30   C33   S    
C18   C57   S    
O14   V3    S    
O1    V2    S    
C33   C39   S    
C32   C54   S    
C36   C63   S    
O7    V1    S    
O18   V4    S    
C11   H4    S    
C35   C36   S    
C48   H31   S    
C42   C45   S    
O1    C2    A    
O9    C4    A    
C49   H29   S    
C17   C21   S    
C44   C50   T    
C29   C34   S    
C58   H37   S    
O11   C54   A    
O12   V3    S    
V2    O10   S    
O16   V4    S    
C13   H3    S    
C36   C37   S    
C62   H42   S    
C19   C59   S    
C6    C14   S    
O19   V4    S    
C64   H48   S    
C51   C52   T    
O4    C2    A    
C45   C49   S    
C46   C47   S    
H2    C14   S    
C9    H5    S    
C11   C12   S    
C7    C15   T    
C30   H17   S    
C18   C19   S    
C3    C20   S    
C18   H8    S    
C23   C24   S    
C60   O26   S    
O5    V1    S    
C8    C55   S    
C27   C28   T    
C25   H9    S    
C37   H20   S    
C29   C33   S    
O12   C53   A    
C5    C6    S    
C21   C27   S    
O14   C54   A    
C36   H22   S    
C58   H36   S    
C39   C40   T    
O3    C4    A    
C24   H11   S    
C28   C56   S    
C12   C16   S    
O6    V2    S    
O9    V2    S    
O24   H39   S    
C29   H15   S    
C22   C23   S    
C31   H19   S    
C60   O25   D    
O2    V1    S    
C41   C46   S    
O15   V3    S    
C24   C25   S    
O26   H40   S    
C58   H38   S    
C62   H43   S    
C8    C16   T    
C17   H7    S    
C12   C14   S    
C34   C60   S    
C41   H25   S    
C61   O28   S    
O11   V4    S    
C63   O29   D    
C31   H18   S    
C11   C13   S    
C17   H12   S    
C34   H23   S    
C30   H16   S    
C37   H21   S    
O4    V1    S    
C34   C35   S    
O3    V1    S    
V1    O10   S    
C43   C64   S    
C41   H32   S    
O15   C55   A    
C63   O30   S    
O28   H41   S    
C42   H27   S    
O13   V3    S    
C29   C62   S    
C2    C52   S    
C1    C40   S    
C53   O16   A    
C9    C11   S    
O7    V2    S    
C61   O27   D    
C18   C21   S    
C23   C26   S    
O30   H45   S    
C9    C10   S    
C24   H14   S    
C48   C49   S    
C42   H26   S    
C47   C50   S    
O18   C55   A    
C13   C14   S    
C21   C25   S    
C19   C23   S    
C25   H10   S    
O22   H35   S    
C41   C45   S    
H24   C46   S    
C48   H34   S    
C64   H46   S    
O8    C3    A    
