data_mof_unit_67104.cif
_audit_creation_date              2012-12-11T17:44:23-0500
_audit_creation_method            fapswitch 2.2
_symmetry_space_group_name_H-M    P1
_symmetry_Int_Tables_number       1
_space_group_crystal_system       triclinic
_cell_length_a                    8.298646
_cell_length_b                    12.808834
_cell_length_c                    15.020853
_cell_angle_alpha                 96.096263
_cell_angle_beta                  97.891468
_cell_angle_gamma                 98.349845
_cell_volume                      1551.75646653

loop_
_atom_site_label
_atom_site_type_symbol
_atom_type_description
_atom_site_fract_x
_atom_site_fract_y
_atom_site_fract_z
_atom_type_partial_charge
Ba1   Ba    Ba6+2 0.843760 0.550230 0.455610 1.669141
Ba2   Ba    Ba6+2 0.346080 0.449860 0.544400 1.660569
C1    C     C_3   0.601740 0.935877 0.228966 -0.409782
C2    C     C_3   0.600643 0.828141 0.262581 0.374396
C3    C     C_3   0.409289 0.283486 0.267042 0.294878
C4    C     C_3   0.347497 0.247486 0.166780 -0.424363
C5    C     C_3   0.129382 0.230412 0.792296 0.367075
C6    C     C_3   0.138158 0.198504 0.887365 -0.373028
C7    C     C_3   0.650046 0.187020 0.822388 0.398353
C8    C     C_3   0.646349 0.128646 0.905673 0.323090
C9    C     C_R   0.368456 0.560354 0.167469 -0.013336
C10   C     C_R   0.113545 0.461857 0.203500 0.020952
C11   C     C_R   0.924053 0.471557 0.764304 -0.273063
C12   C     C_3   0.086561 0.858028 0.214391 0.876410
C13   C     C_R   0.827370 0.432015 0.826095 -0.027298
C14   C     C_R   0.892644 0.439727 0.918010 -0.145494
C15   C     C_R   0.057359 0.488694 0.951012 0.003682
C16   C     C_R   0.149827 0.535385 0.887501 -0.085942
C17   C     C_R   0.131103 0.495945 0.045094 -0.051183
C18   C     C_R   0.295029 0.554748 0.074440 -0.121173
C19   C     C_R   0.375612 0.608058 0.010048 0.388141
C20   C     C_R   0.305265 0.593131 0.919269 -0.084832
C21   C     C_R   0.044700 0.449415 0.111343 -0.199017
C22   C     C_R   0.275733 0.513120 0.229324 0.149070
C23   C     C_3   0.150072 0.962512 0.179899 -0.109459
C24   C     C_R   0.083369 0.526526 0.793409 0.063974
C25   C     C_R   0.773705 0.181775 0.533748 -0.273393
C26   C     C_R   0.416747 0.822588 0.484102 -0.216202
C27   C     C_R   0.396095 0.989380 0.430101 -0.117996
C28   C     C_R   0.326959 0.884916 0.433981 0.005622
C29   C     C_R   0.582307 0.854393 0.519886 -0.013167
C30   C     C_R   0.652624 0.962902 0.521298 -0.041267
C31   C     C_R   0.555273 0.031664 0.477569 -0.035817
C32   C     C_R   0.617754 0.141316 0.484581 0.043756
C33   C     C_R   0.874194 0.114642 0.571528 -0.014640
C34   C     C_3   0.217059 0.789074 0.663206 0.307262
C35   C     C_R   0.812326 0.006140 0.567595 -0.099328
C36   C     C_3   0.180064 0.899158 0.691660 -0.297747
C37   C     C_3   0.929911 0.222201 0.352494 0.265631
C38   C     C_3   0.970519 0.110739 0.344643 -0.347356
C39   C     C_3   0.650025 0.792300 0.743406 0.687086
C40   C     C_3   0.628814 0.908802 0.747265 -0.302708
H1    H     H_    0.693726 0.836900 0.324741 0.079147
H2    H     H_    0.277555 0.942993 0.746244 0.112551
H3    H     H_    0.175751 0.943983 0.632594 0.118067
H4    H     H_    0.060291 0.893114 0.717192 0.131974
H5    H     H_    0.798173 0.218692 0.357347 0.001198
H6    H     H_    0.006385 0.266257 0.415271 0.075727
H7    H     H_    0.899414 0.064974 0.282077 0.116916
H8    H     H_    0.940316 0.070230 0.403066 0.098923
H9    H     H_    0.102977 0.113837 0.340282 0.125814
H10   H     H_    0.531327 0.739670 0.719607 0.016866
H11   H     H_    0.607848 0.999009 0.286487 0.081251
H12   H     H_    0.751367 0.960538 0.762378 0.087822
H13   H     H_    0.555695 0.927594 0.801563 0.070482
H14   H     H_    0.561646 0.926849 0.683785 0.012589
H15   H     H_    0.475956 0.802244 0.278917 -0.070895
H16   H     H_    0.488451 0.934944 0.180886 0.118915
H17   H     H_    0.305053 0.308439 0.298292 0.074001
H18   H     H_    0.511646 0.351529 0.273726 0.089810
H19   H     H_    0.230880 0.190226 0.158263 0.116898
H20   H     H_    0.323838 0.316691 0.131365 0.075076
H21   H     H_    0.440695 0.209064 0.135186 0.137227
H22   H     H_    0.707438 0.953627 0.192188 0.136319
H23   H     H_    0.230688 0.297296 0.792394 0.112685
H24   H     H_    0.010354 0.258328 0.774105 -0.066961
H25   H     H_    0.259043 0.173885 0.908556 0.144318
H26   H     H_    0.123676 0.266791 0.935994 0.091896
H27   H     H_    0.038209 0.131227 0.888859 0.105758
H28   H     H_    0.777791 0.227614 0.825962 -0.081025
H29   H     H_    0.619474 0.128844 0.759940 -0.063064
H30   H     H_    0.735319 0.071494 0.902995 -0.049510
H31   H     H_    0.520039 0.083982 0.903420 0.015472
H32   H     H_    0.922513 0.404045 0.093881 0.115724
H33   H     H_    0.870527 0.465726 0.693743 0.079680
H34   H     H_    0.810349 0.408697 0.961825 0.123399
H35   H     H_    0.377062 0.630361 0.873810 0.126940
H36   H     H_    0.320980 0.037612 0.394058 0.079653
H37   H     H_    0.888527 0.957106 0.601852 0.099152
H38   H     H_    0.821216 0.265755 0.538134 0.054106
H39   H     H_    0.194121 0.815182 0.227621 -0.214775
H40   H     H_    0.353097 0.749530 0.499617 -0.033594
H41   H     H_    0.050873 0.012103 0.172620 0.078268
H42   H     H_    0.254304 0.007581 0.230067 0.063408
H43   H     H_    0.335636 0.798697 0.639033 -0.080928
H44   H     H_    0.121815 0.748402 0.607143 0.105283
O1    O     O_2   0.827930 0.435360 0.277760 -0.468717
O2    O     O_3   0.767070 0.770077 0.687690 -0.643731
O3    O     O_3   0.018122 0.883221 0.293160 -0.626304
O4    O     O_2   0.361790 0.564680 0.722290 -0.477448
O5    O     O_3   0.089410 0.561080 0.608830 -0.509264
O6    O     O_3   0.564100 0.365890 0.666740 -0.461476
O7    O     O_3   0.230656 0.734715 0.738911 -0.652364
O8    O     O_3   0.601940 0.368260 0.453780 -0.466888
O9    O     O_3   0.133140 0.308990 0.620990 -0.489269
O10   O     O_2   0.212252 0.121503 0.566699 -0.468367
O11   O     O_3   0.145690 0.142899 0.731261 -0.606361
O12   O     O_3   0.100310 0.439010 0.391180 -0.496532
O13   O     O_3   0.587770 0.631830 0.546230 -0.503915
O14   O     O_2   0.332600 0.233710 0.456170 -0.465770
O15   O     O_3   0.465889 0.199113 0.307284 -0.664858
O16   O     O_2   0.500761 0.452699 0.823223 -0.492136
O17   O     O_3   0.532045 0.255545 0.820640 -0.582720
O18   O     O_3   0.625610 0.634200 0.333270 -0.482796
O19   O     O_2   0.714457 0.565288 0.178459 -0.457309
O20   O     O_3   0.959075 0.264763 0.273081 -0.650309
O21   O     O_3   0.641616 0.756862 0.194782 -0.526567
O22   O     O_2   0.857120 0.766320 0.543890 -0.453014
O23   O     O_3   0.056570 0.691100 0.379020 -0.497396
O24   O     O_2   0.015935 0.877591 0.460077 -0.486226
P1    P     P_3+3 0.998770 0.403620 0.291990 0.992868
P2    P     P_3+3 0.687370 0.751000 0.571300 0.931940
P3    P     P_3+3 0.109561 0.831590 0.387813 0.940741
P4    P     P_3+3 0.190950 0.596470 0.708020 0.958805
P5    P     P_3+3 0.090109 0.171021 0.620688 0.952426
P6    P     P_3+3 0.585121 0.626101 0.215950 1.087989
P7    P     P_3+3 0.506513 0.234461 0.425032 0.940376
P8    P     P_3+3 0.609147 0.376279 0.784912 0.973244
O25   O     O_3   0.706094 0.776743 0.833641 -0.675870
C41   C     C_3   0.756872 0.676959 0.837470 0.220254
H45   H     H_    0.737766 0.649976 0.903476 0.074209
H46   H     H_    0.686961 0.615049 0.782937 0.045614
H47   H     H_    0.890522 0.685424 0.833424 0.031220
N1    N     N_3   0.205171 0.942106 0.092301 -0.538050
H48   H     H_    0.269101 0.013472 0.078229 0.172173
H49   H     H_    0.101315 0.921807 0.042075 0.203884
O26   O     O_3   0.956558 0.801735 0.148014 -0.626649
C42   C     C_3   0.999331 0.706953 0.109572 0.262645
H50   H     H_    0.026210 0.655563 0.162883 0.031088
H51   H     H_    0.106148 0.723782 0.073130 -0.024829
H52   H     H_    0.893479 0.663819 0.059710 0.098477
O27   O     O_3   0.689667 0.203000 0.984882 -0.648172
C43   C     C_3   0.721012 0.148801 0.060794 0.143951
H53   H     H_    0.615871 0.085525 0.064715 0.012916
H54   H     H_    0.738246 0.206758 0.122945 0.105283
H55   H     H_    0.836543 0.114434 0.059950 0.043458
O28   O     O_3   0.348171 0.512325 0.317057 -0.689784
C44   C     C_3   0.328174 0.606438 0.368173 0.515260
H56   H     H_    0.247841 0.593842 0.418739 0.081634
H57   H     H_    0.308131 0.673353 0.328593 -0.270067
H58   H     H_    0.437241 0.633211 0.415533 0.074505
O29   O     O_3   0.528559 0.671641 0.032884 -0.627324
C45   C     C_3   0.515907 0.777351 0.015914 0.194510
H59   H     H_    0.418446 0.808141 0.049952 0.030716
H60   H     H_    0.492561 0.785085 0.942721 0.049243
H61   H     H_    0.635273 0.829289 0.042906 0.126989

loop_
_geom_bond_atom_site_label_1
_geom_bond_atom_site_label_2
_ccdc_geom_bond_type
Ba1   O1    S    
C45   H61   S    
C37   O20   S    
Ba2   P4    S    
C39   C40   S    
O19   P6    D    
C17   C18   A    
C16   C24   A    
C42   H50   S    
Ba1   O13   S    
C5    C6    S    
C1    H22   S    
C35   H37   S    
C10   C21   A    
C6    H27   S    
C4    H19   S    
C37   H5    S    
Ba2   O9    S    
C33   C35   A    
C19   O29   S    
Ba1   P2    S    
C3    C4    S    
C8    H31   S    
O1    P1    D    
C13   C14   A    
C27   C31   A    
C9    C22   A    
Ba1   Ba2   S    
Ba2   O4    S    
O6    P8    S    
C36   H3    S    
C40   H14   S    
O18   P6    S    
C34   O7    S    
C27   H36   S    
C11   H33   S    
O9    P5    S    
Ba1   O8    S    
C2    H15   S    
C23   H42   S    
C29   P2    S    
O10   P5    D    
C33   P5    S    
O11   P5    S    
C7    C8    S    
C39   H10   S    
O16   P8    D    
C41   H47   S    
O23   P3    S    
Ba1   O23   S    
C32   P7    S    
Ba2   O14   S    
Ba1   O5    S    
C16   C20   A    
C19   C20   A    
C43   H54   S    
C41   H46   S    
C31   C32   A    
C3    O15   S    
O20   P1    S    
C25   C32   A    
C2    O21   S    
O3    P3    S    
C9    C18   A    
C3    H17   S    
C26   H40   S    
Ba2   O8    S    
C7    H28   S    
C25   H38   S    
C37   C38   S    
C14   C15   A    
C25   C33   A    
C12   O26   S    
O22   P2    D    
C4    H21   S    
C17   C21   A    
C24   P4    S    
C12   O3    S    
C36   H2    S    
C27   C28   A    
C40   H13   S    
C43   H55   S    
C29   C30   A    
O24   P3    D    
C7    O17   S    
C15   C16   A    
C30   C35   A    
C39   O25   S    
Ba2   O6    S    
C9    P6    S    
Ba1   O18   S    
C44   H57   S    
Ba2   O13   S    
C6    H26   S    
C11   C13   A    
C43   H53   S    
C22   O28   S    
C11   C24   A    
O17   P8    S    
C21   H32   S    
C15   C17   A    
C1    C2    S    
C42   H52   S    
C41   H45   S    
N1    H49   S    
C45   H60   S    
C39   O2    S    
O12   P1    S    
C5    O11   S    
C3    H18   S    
C14   H34   S    
C5    H23   S    
C26   C29   A    
C7    H29   S    
C20   H35   S    
C44   H58   S    
C42   H51   S    
Ba1   O12   S    
O25   C41   S    
C13   P8    S    
C2    H1    S    
C34   H43   S    
C38   H9    S    
O28   C44   S    
C10   C22   A    
O5    P4    S    
C34   H44   S    
C30   C31   A    
C4    H20   S    
C34   C36   S    
C45   H59   S    
O15   P7    S    
Ba1   P1    S    
C5    H24   S    
C1    H11   S    
C38   H7    S    
C38   H8    S    
O13   P2    S    
C26   C28   A    
O8    P7    S    
O27   C43   S    
O7    P4    S    
O4    P4    D    
C12   C23   S    
Ba2   O5    S    
C23   N1    S    
C8    O27   S    
O21   P6    S    
C36   H4    S    
C44   H56   S    
Ba1   O22   S    
O2    P2    S    
C1    H16   S    
C18   C19   A    
Ba2   O12   S    
C6    H25   S    
C23   H41   S    
O29   C45   S    
N1    H48   S    
O14   P7    D    
C12   H39   S    
C10   P1    S    
C40   H12   S    
O26   C42   S    
C37   H6    S    
C28   P3    S    
C8    H30   S    
