data_mof_unit_14052.cif
_audit_creation_date              2012-12-11T16:18:14-0500
_audit_creation_method            fapswitch 2.2
_symmetry_space_group_name_H-M    P1
_symmetry_Int_Tables_number       1
_space_group_crystal_system       triclinic
_cell_length_a                    14.034199
_cell_length_b                    14.042812
_cell_length_c                    30.138288
_cell_angle_alpha                 97.364335
_cell_angle_beta                  97.192434
_cell_angle_gamma                 61.21348
_cell_volume                      5148.89460804

loop_
_atom_site_label
_atom_site_type_symbol
_atom_type_description
_atom_site_fract_x
_atom_site_fract_y
_atom_site_fract_z
_atom_type_partial_charge
C1    C     C_R   0.385809 0.710445 0.442124 0.564352
C2    C     C_R   0.755937 0.281808 0.372277 -0.115529
C3    C     C_3   0.671433 0.551080 0.822652 -0.309103
C4    C     C_3   0.005664 0.060080 0.682812 -0.301777
C5    C     C_3   0.152037 0.729429 0.773429 -0.302669
C6    C     C_3   0.468286 0.496923 0.307975 -0.301133
C7    C     C_3   0.897679 0.504868 0.211589 -0.315746
C8    C     C_R   0.776899 0.264808 0.327182 -0.116958
C9    C     C_R   0.399225 0.381315 0.426277 0.545219
C10   C     C_R   0.802778 0.334911 0.308684 0.033687
C11   C     C_R   0.816222 0.416650 0.335865 -0.121754
C12   C     C_R   0.796505 0.433084 0.381124 -0.142043
C13   C     C_R   0.827892 0.407475 0.157577 0.142095
C14   C     C_R   0.857659 0.394602 0.113795 -0.158295
C15   C     C_R   0.872813 0.213087 0.103842 0.125352
C16   C     C_R   0.844065 0.226070 0.147900 -0.150252
C17   C     C_R   0.397620 0.363470 0.220154 0.149275
C18   C     C_R   0.825756 0.320651 0.175067 0.036563
C19   C     C_1   0.814047 0.324163 0.221783 -0.006080
C20   C     C_1   0.808749 0.327760 0.261380 -0.038417
C21   C     C_R   0.709346 0.405642 0.442145 0.538349
C22   C     C_R   0.887346 0.295388 0.087598 0.010696
C23   C     C_R   0.366248 0.762608 0.400127 0.021052
C24   C     C_R   0.436504 0.799949 0.388306 0.133683
C25   C     C_R   0.434089 0.819046 0.343067 0.172416
C26   C     C_R   0.357483 0.806121 0.311489 0.035841
C27   C     C_R   0.281767 0.779971 0.324426 -0.180891
C28   C     C_R   0.408232 0.372541 0.267640 0.123586
C29   C     C_R   0.286033 0.758250 0.368290 -0.183716
C30   C     C_R   0.333646 0.778918 0.145902 0.146384
C31   C     C_R   0.309144 0.808647 0.101298 0.146449
C32   C     C_R   0.305300 0.982132 0.127514 -0.148517
C33   C     C_R   0.389800 0.711419 0.568355 0.546355
C34   C     C_R   0.329178 0.953785 0.171480 0.112209
C35   C     C_R   0.341643 0.852914 0.180748 0.024149
C36   C     C_1   0.350401 0.832244 0.226552 0.003086
C37   C     C_1   0.354398 0.819899 0.265311 0.004821
C38   C     C_R   0.293679 0.911672 0.092588 -0.018204
C39   C     C_R   0.333981 0.362417 0.291919 0.059083
C40   C     C_R   0.376536 0.373826 0.597071 -0.004542
C41   C     C_R   0.463314 0.334913 0.630030 -0.161021
C42   C     C_R   0.444428 0.346696 0.675082 0.112271
C43   C     C_R   0.337165 0.391250 0.687404 0.035711
C44   C     C_R   0.248676 0.424704 0.654566 0.126719
C45   C     C_R   0.402903 0.384053 0.552857 0.569690
C46   C     C_R   0.268193 0.420130 0.609251 0.142920
C47   C     C_R   0.227076 0.439439 0.843123 0.144411
C48   C     C_R   0.221573 0.413567 0.885921 0.100535
C49   C     C_R   0.390274 0.241500 0.875954 0.118498
C50   C     C_R   0.311513 0.347345 0.198084 0.004650
C51   C     C_R   0.400601 0.274010 0.835437 0.112878
C52   C     C_R   0.314935 0.368408 0.817748 0.007047
C53   C     C_1   0.315276 0.387774 0.772297 0.002359
C54   C     C_1   0.321026 0.394075 0.733598 -0.003632
C55   C     C_R   0.298203 0.309366 0.901084 -0.012505
C56   C     C_1   0.763289 0.376497 0.612462 -0.030495
C57   C     C_R   0.713089 0.407860 0.568580 0.544642
C58   C     C_R   0.793662 0.427249 0.728864 -0.145344
C59   C     C_R   0.807108 0.415782 0.775091 0.138738
C60   C     C_R   0.877764 0.220229 0.759506 -0.115474
C61   C     C_1   0.301801 0.329388 0.150151 -0.036118
C62   C     C_R   0.863650 0.231436 0.713108 0.150454
C63   C     C_R   0.820411 0.336487 0.697831 0.007434
C64   C     C_R   0.849791 0.311344 0.790424 0.017906
C65   C     C_1   0.875572 0.295571 0.837650 -0.038454
C66   C     C_1   0.794231 0.355464 0.650864 -0.075439
C67   C     C_1   0.904829 0.283095 0.876789 -0.017573
C68   C     C_1   0.376215 0.757588 0.613801 -0.019951
C69   C     C_1   0.369194 0.366973 0.379963 -0.009709
C70   C     C_R   0.262249 0.811024 0.717210 -0.082116
C71   C     C_R   0.249640 0.826880 0.763468 0.156805
C72   C     C_1   0.350760 0.362235 0.339982 0.003870
C73   C     C_R   0.420225 0.835827 0.776411 -0.149540
C74   C     C_R   0.432156 0.818946 0.730249 -0.125472
C75   C     C_R   0.352472 0.807829 0.700581 0.001166
C76   C     C_R   0.329127 0.840691 0.793297 0.039400
C77   C     C_1   0.314103 0.868190 0.840586 -0.080337
C78   C     C_1   0.365859 0.784856 0.653207 -0.068200
C79   C     C_1   0.294575 0.899750 0.879149 -0.042854
C80   C     C_R   0.949195 0.273693 0.047841 0.549132
C81   C     C_R   0.246038 0.350132 0.269426 0.117668
C82   C     C_R   0.275438 0.270636 0.065320 0.535272
C83   C     C_1   0.291677 0.306896 0.110648 -0.022532
C84   C     C_R   0.261329 0.953442 0.048357 0.534797
C85   C     C_R   0.952262 0.269076 0.922015 0.537635
C86   C     C_R   0.276645 0.266931 0.939538 0.556998
C87   C     C_R   0.261744 0.950334 0.922934 0.537725
C88   C     C_R   0.236342 0.341682 0.222551 -0.163980
C89   C     C_3   0.091722 0.443853 0.315049 -0.313674
C90   C     C_3   0.804159 0.127042 0.043723 -0.287716
C91   C     C_3   0.405049 0.651560 0.050419 -0.295314
C92   C     C_3   0.249599 0.670584 0.158549 -0.286369
C93   C     C_3   0.621085 0.739107 0.423064 -0.264462
C94   C     C_R   0.760756 0.369304 0.399173 0.018357
C95   C     C_3   0.442729 0.011222 0.221947 -0.287772
C96   C     C_3   0.599636 0.763666 0.306563 -0.316493
C97   C     C_3   0.168147 0.545715 0.950583 -0.296267
C98   C     C_3   0.054745 0.522718 0.799628 -0.311089
C99   C     C_3   0.105348 0.385571 0.667544 -0.311140
C100  C     C_3   0.120269 0.579714 0.577003 -0.271070
C101  C     C_3   0.580873 0.237406 0.821684 -0.299029
C102  C     C_3   0.453833 0.047494 0.867440 -0.258834
C103  C     C_3   0.550188 0.406445 0.728840 -0.305314
C104  C     C_3   0.560119 0.270811 0.179113 -0.307187
Cr1   Cr    Cr6+3 0.581000 0.584320 0.508140 1.014967
Cr2   Cr    Cr6+3 0.339110 0.576430 0.496080 1.010570
Cr3   Cr    Cr6+3 0.579910 0.339270 0.495810 1.014984
Cr4   Cr    Cr6+3 0.082090 0.079210 0.982490 1.023115
Cr5   Cr    Cr6+3 0.082460 0.324610 0.994920 1.001245
Cr6   Cr    Cr6+3 0.323630 0.087860 0.996130 1.016077
H1    H     H_    0.839048 0.160789 0.161405 0.099008
H2    H     H_    0.042709 0.503088 0.289630 0.123434
H3    H     H_    0.133474 0.479535 0.339843 0.157190
H4    H     H_    0.036165 0.429395 0.333100 0.141517
H5    H     H_    0.916943 0.048549 0.095334 0.240819
H6    H     H_    0.729166 0.148263 0.060260 0.127332
H7    H     H_    0.827876 0.049056 0.022780 0.133888
H8    H     H_    0.786911 0.191481 0.021397 0.152306
H9    H     H_    0.244617 0.770125 0.039883 0.255781
H10   H     H_    0.445288 0.689666 0.035167 0.127566
H11   H     H_    0.391829 0.594114 0.024712 0.132270
H12   H     H_    0.767291 0.200765 0.306269 0.103462
H13   H     H_    0.459240 0.604469 0.078583 0.183833
H14   H     H_    0.406331 0.640602 0.181504 0.239891
H15   H     H_    0.269349 0.585824 0.163510 0.159693
H16   H     H_    0.195792 0.695214 0.127246 0.176249
H17   H     H_    0.205869 0.725054 0.187530 0.123215
H18   H     H_    0.221889 0.771838 0.300033 0.117016
H19   H     H_    0.230334 0.731220 0.376438 0.143149
H20   H     H_    0.493759 0.899115 0.426033 0.240391
H21   H     H_    0.653403 0.724584 0.458463 0.163657
H22   H     H_    0.632337 0.660612 0.405135 0.165497
H23   H     H_    0.170275 0.329385 0.205029 0.106593
H24   H     H_    0.668474 0.768917 0.407533 0.105850
H25   H     H_    0.282568 0.110369 0.200269 0.247944
H26   H     H_    0.481810 0.022560 0.194610 0.127879
H27   H     H_    0.493034 0.927541 0.233023 0.169944
H28   H     H_    0.438896 0.070286 0.250860 0.158169
H29   H     H_    0.292700 0.061569 0.120688 0.132831
H30   H     H_    0.530229 0.897138 0.352816 0.252870
H31   H     H_    0.650346 0.796744 0.296136 0.127940
H32   H     H_    0.571800 0.727954 0.276058 0.158626
H33   H     H_    0.650863 0.698114 0.329213 0.132713
H34   H     H_    0.910736 0.140041 0.771551 0.126340
H35   H     H_    0.074032 0.475064 0.915933 0.285595
H36   H     H_    0.218382 0.486737 0.975947 0.153814
H37   H     H_    0.094492 0.611689 0.966070 0.134834
H38   H     H_    0.215616 0.582569 0.940213 0.145033
H39   H     H_    0.114465 0.603772 0.847763 0.271172
H40   H     H_    0.996079 0.599718 0.784414 0.126162
H41   H     H_    0.011097 0.502086 0.821947 0.170563
H42   H     H_    0.086725 0.457162 0.772168 0.155636
H43   H     H_    0.122665 0.519440 0.695592 0.246567
H44   H     H_    0.018015 0.426094 0.674584 0.146219
H45   H     H_    0.201105 0.801608 0.694089 0.112842
H46   H     H_    0.153978 0.329597 0.694165 0.140782
H47   H     H_    0.114842 0.337642 0.634577 0.152842
H48   H     H_    0.128763 0.427852 0.574419 0.257876
H49   H     H_    0.063193 0.604164 0.546578 0.128156
H50   H     H_    0.072302 0.614260 0.607032 0.154000
H51   H     H_    0.176744 0.614418 0.577508 0.181323
H52   H     H_    0.546480 0.303098 0.621272 0.141408
H53   H     H_    0.479876 0.194088 0.777458 0.267030
H54   H     H_    0.607775 0.232441 0.857954 0.138349
H55   H     H_    0.551497 0.321926 0.812810 0.153376
H56   H     H_    0.503321 0.814624 0.717731 0.116872
H57   H     H_    0.651974 0.181115 0.802203 0.151290
H58   H     H_    0.549009 0.122388 0.889971 0.258070
H59   H     H_    0.469995 0.035955 0.831473 0.144226
H60   H     H_    0.369145 0.063161 0.870025 0.167834
H61   H     H_    0.510833 0.971349 0.883591 0.134078
H62   H     H_    0.605423 0.251506 0.697259 0.257922
H63   H     H_    0.619001 0.376753 0.754888 0.145065
H64   H     H_    0.476254 0.469251 0.745224 0.155001
H65   H     H_    0.569646 0.443888 0.703349 0.152766
H66   H     H_    0.759264 0.507930 0.717092 0.111063
H67   H     H_    0.803083 0.499559 0.401227 0.111287
H68   H     H_    0.495590 0.429665 0.208121 0.252733
H69   H     H_    0.614984 0.228070 0.208036 0.124510
H70   H     H_    0.607728 0.286511 0.156953 0.150150
H71   H     H_    0.529193 0.217407 0.159608 0.159969
H72   H     H_    0.787535 0.570303 0.794563 0.238084
H73   H     H_    0.606802 0.579798 0.794737 0.136990
H74   H     H_    0.656757 0.620720 0.847915 0.142371
H75   H     H_    0.666694 0.487072 0.838996 0.153170
H76   H     H_    0.853384 0.151415 0.650670 0.255920
H77   H     H_    0.018051 0.988290 0.659146 0.139970
H78   H     H_    0.728922 0.230981 0.385170 0.135648
H79   H     H_    0.038602 0.030892 0.716723 0.171239
H80   H     H_    0.051286 0.098546 0.672104 0.143755
H81   H     H_    0.133637 0.872146 0.810110 0.260609
H82   H     H_    0.074457 0.742039 0.785014 0.150194
H83   H     H_    0.221370 0.668085 0.793550 0.167041
H84   H     H_    0.155700 0.698052 0.737593 0.148514
H85   H     H_    0.481630 0.846158 0.798954 0.101249
H86   H     H_    0.567904 0.347828 0.275424 0.257849
H87   H     H_    0.444236 0.549425 0.279666 0.133236
H88   H     H_    0.539868 0.498665 0.327705 0.157162
H89   H     H_    0.132339 0.299465 0.275720 0.252040
H90   H     H_    0.400333 0.530018 0.330300 0.161216
H91   H     H_    0.865090 0.459899 0.101629 0.132338
H92   H     H_    0.763817 0.574526 0.166519 0.242094
H93   H     H_    0.959946 0.496989 0.189869 0.137981
H94   H     H_    0.934628 0.436145 0.233512 0.161493
H95   H     H_    0.871173 0.582110 0.233280 0.128027
H96   H     H_    0.837207 0.470631 0.321661 0.099619
N1    N     N_2   0.169607 0.341843 0.293602 -0.504537
N2    N     N_2   0.139964 0.467147 0.666898 -0.527013
N3    N     N_2   0.179863 0.461935 0.575947 -0.498709
N4    N     N_2   0.495239 0.206893 0.811449 -0.517658
N5    N     N_2   0.469595 0.137051 0.889767 -0.473317
N6    N     N_2   0.533939 0.316057 0.708093 -0.518456
N7    N     N_2   0.470800 0.373287 0.194496 -0.514274
N8    N     N_2   0.777691 0.509527 0.805917 -0.513257
N9    N     N_2   0.890586 0.137108 0.682608 -0.522072
N10   N     N_2   0.155442 0.831651 0.779033 -0.535958
N11   N     N_2   0.496238 0.386057 0.291203 -0.524982
N12   N     N_2   0.891889 0.115128 0.077142 -0.480013
N13   N     N_2   0.804562 0.506222 0.184403 -0.514193
N14   N     N_2   0.301322 0.734402 0.065929 -0.503592
N15   N     N_2   0.349233 0.675197 0.155361 -0.496323
N16   N     N_2   0.507059 0.819730 0.421999 -0.511484
N17   N     N_2   0.333638 0.030088 0.206646 -0.499200
N18   N     N_2   0.507856 0.850446 0.329115 -0.510313
N19   N     N_2   0.135578 0.492664 0.911943 -0.517367
N20   N     N_2   0.142551 0.536381 0.825002 -0.523306
O1    O     O_R   0.688580 0.499770 0.460490 -0.532752
O2    O     O_R   0.346150 0.177650 0.050510 -0.515210
O3    O     O_R   0.314200 0.996600 0.036060 -0.501809
O4    O     O_R   0.480400 0.672610 0.462660 -0.470453
O5    O     O_R   0.168690 0.969990 0.933130 -0.510560
O6    O     O_R   0.991920 0.175870 0.937430 -0.500001
O7    O     O_R   0.974010 0.342590 0.941330 -0.513482
O8    O     O_R   0.182630 0.317940 0.955040 -0.506658
O9    O     O_R   0.347320 0.174720 0.953250 -0.476673
O10   O     O_R   0.315290 0.993890 0.945900 -0.500487
O11   O     O_3   0.162730 0.163890 0.991180 -0.243539
O12   O     O_R   0.348600 0.476260 0.536540 -0.479052
O13   O     O_R   0.315310 0.685650 0.451800 -0.528954
O14   O     O_R   0.346220 0.474990 0.446280 -0.499807
O15   O     O_R   0.492270 0.312460 0.441630 -0.507086
O16   O     O_R   0.669740 0.350480 0.455640 -0.500402
O17   O     O_R   0.691150 0.501150 0.557860 -0.506384
O18   O     O_R   0.482790 0.673890 0.552920 -0.490265
O19   O     O_R   0.317880 0.687030 0.549170 -0.523407
O20   O     O_R   0.494840 0.313840 0.539010 -0.523353
O21   O     O_R   0.672120 0.351750 0.545910 -0.499965
O22   O     O_3   0.500010 0.500010 0.500010 -0.246341
O23   O     O_R   0.167510 0.972920 0.030390 -0.506765
O24   O     O_R   0.990840 0.178580 0.027590 -0.456643
O25   O     O_R   0.972840 0.345510 0.038590 -0.529354
O26   O     O_R   0.181550 0.320660 0.045200 -0.496905

loop_
_geom_bond_atom_site_label_1
_geom_bond_atom_site_label_2
_ccdc_geom_bond_type
C102  H60   S    
C48   C55   A    
C97   N19   S    
C14   H91   S    
Cr5   O26   S    
C28   N11   S    
C48   N19   S    
C27   C29   A    
C62   N9    S    
Cr3   O20   S    
C19   C20   T    
C51   N4    S    
C103  H63   S    
C7    H95   S    
C9    O15   A    
C92   H15   S    
C79   C87   S    
H86   N11   S    
C59   N8    S    
C98   H42   S    
C53   C54   T    
C1    O13   A    
C3    N8    S    
C40   C46   A    
C89   H2    S    
C59   C64   A    
C86   O8    A    
C30   C35   A    
C85   O7    A    
C90   H8    S    
C4    H77   S    
C82   O26   A    
C36   C37   T    
Cr2   O14   S    
C9    C69   S    
C104  N7    S    
C34   C35   A    
Cr4   O6    S    
C30   C31   A    
C56   C66   T    
C102  N5    S    
C104  H69   S    
C21   C94   S    
C71   N10   S    
C6    N11   S    
C99   H44   S    
C100  N3    S    
C44   N2    S    
C56   C57   S    
C25   N18   S    
C60   C62   A    
C18   C19   S    
C41   C42   A    
C91   N14   S    
C101  H57   S    
C45   O12   A    
C7    H93   S    
C13   C14   A    
C96   H31   S    
C1    O4    A    
C15   C22   A    
C29   H19   S    
C35   C36   S    
C10   C20   S    
C49   C51   A    
C80   O25   A    
C39   C72   S    
H5    N12   S    
C33   O19   A    
C93   N16   S    
C11   H96   S    
C32   C38   A    
C93   H22   S    
C3    H74   S    
Cr1   O18   S    
C50   C88   A    
Cr6   O9    S    
C81   N1    S    
C7    N13   S    
Cr5   O8    S    
H48   N3    S    
C12   H67   S    
C63   C66   S    
C4    N9    S    
C80   O24   A    
C41   H52   S    
C99   H46   S    
H39   N20   S    
C97   H37   S    
H58   N5    S    
C12   C94   A    
C85   O6    A    
C58   H66   S    
C9    O14   A    
C17   N7    S    
C3    H75   S    
C103  H65   S    
H53   N4    S    
Cr6   O10   S    
C30   N15   S    
C98   H41   S    
C77   C79   T    
C73   C74   A    
C68   C78   T    
C40   C45   S    
C21   O1    A    
C89   H3    S    
Cr5   O11   S    
C67   C85   S    
C95   H27   S    
C74   C75   A    
C70   H45   S    
C90   H7    S    
C4    H80   S    
Cr3   O22   S    
H20   N16   S    
C24   C25   A    
C39   C81   A    
C32   H29   S    
C93   H24   S    
C61   C83   T    
C6    H88   S    
C103  N6    S    
H30   N18   S    
C44   C46   A    
C28   C39   A    
C65   C67   T    
C58   C59   A    
C49   C55   A    
C5    N10   S    
C82   O2    A    
C57   O21   A    
C103  H64   S    
C95   N17   S    
C87   O10   A    
C51   C52   A    
Cr4   O24   S    
C32   C34   A    
H92   N13   S    
C45   O20   A    
C69   C72   T    
C43   C44   A    
Cr1   O22   S    
C62   C63   A    
Cr6   O3    S    
H81   N10   S    
H43   N2    S    
C27   H18   S    
C100  H50   S    
C43   C54   S    
C47   C48   A    
C2    C94   A    
C23   C24   A    
H76   N9    S    
C49   N5    S    
C7    H94   S    
H89   N1    S    
C26   C27   A    
Cr3   O16   S    
C13   N13   S    
C15   N12   S    
C101  H55   S    
C84   O3    A    
C100  H51   S    
C13   C18   A    
C8    C10   A    
C40   C41   A    
C96   N18   S    
C1    C23   S    
C90   H6    S    
Cr2   O13   S    
C73   H85   S    
Cr2   O12   S    
H9    N14   S    
C97   H38   S    
C42   C43   A    
C92   H17   S    
C23   C29   A    
C71   C76   A    
C74   H56   S    
C70   C71   A    
C42   N6    S    
C52   C53   S    
C5    H83   S    
C31   N14   S    
C98   H40   S    
Cr3   O21   S    
C102  H61   S    
C89   H4    S    
C92   N15   S    
C95   H28   S    
H68   N7    S    
C38   C84   S    
C84   O23   A    
C17   C28   A    
Cr5   O25   S    
C101  H54   S    
C2    C8    A    
C58   C63   A    
C5    H82   S    
H62   N6    S    
C5    H84   S    
C92   H16   S    
C17   C50   A    
C88   H23   S    
C6    H87   S    
Cr6   O11   S    
C11   C12   A    
C26   C37   S    
C104  H70   S    
C47   C52   A    
C24   N16   S    
C101  N4    S    
C46   N3    S    
H25   N17   S    
C99   N2    S    
C86   O9    A    
C31   C38   A    
C60   C64   A    
Cr4   O23   S    
C4    H79   S    
C64   C65   S    
C14   C22   A    
C55   C86   S    
C99   H47   S    
C25   C26   A    
C22   C80   S    
C57   O17   A    
Cr6   O2    S    
Cr1   O4    S    
C96   H33   S    
C6    H90   S    
C76   C77   S    
C100  H49   S    
C8    H12   S    
C89   N1    S    
C47   N20   S    
H35   N19   S    
C102  H59   S    
C87   O5    A    
C95   H26   S    
C73   C76   A    
C104  H71   S    
C34   N17   S    
Cr1   O1    S    
Cr2   O19   S    
C75   C78   S    
C2    H78   S    
C90   N12   S    
C81   C88   A    
C10   C11   A    
C96   H32   S    
C97   H36   S    
C21   O16   A    
Cr4   O11   S    
C33   C68   S    
C16   C18   A    
C82   C83   S    
C91   H11   S    
C70   C75   A    
H72   N8    S    
C50   C61   S    
C91   H10   S    
Cr3   O15   S    
C33   O18   A    
C91   H13   S    
Cr2   O22   S    
C93   H21   S    
C3    H73   S    
Cr1   O17   S    
C60   H34   S    
C15   C16   A    
C16   H1    S    
H14   N15   S    
C98   N20   S    
Cr4   O5    S    
Cr5   O7    S    
