data_mof_unit_10972.cif
_audit_creation_date              2012-12-11T15:49:30-0500
_audit_creation_method            fapswitch 2.2
_symmetry_space_group_name_H-M    P1
_symmetry_Int_Tables_number       1
_space_group_crystal_system       triclinic
_cell_length_a                    8.243503
_cell_length_b                    18.997676
_cell_length_c                    27.057302
_cell_angle_alpha                 94.858697
_cell_angle_beta                  92.870134
_cell_angle_gamma                 85.531754
_cell_volume                      4205.28176633

loop_
_atom_site_label
_atom_site_type_symbol
_atom_type_description
_atom_site_fract_x
_atom_site_fract_y
_atom_site_fract_z
_atom_type_partial_charge
Ba1   Ba    Ba6+2 0.854000 0.466860 0.523710 1.643093
Ba2   Ba    Ba6+2 0.335820 0.533080 0.476290 1.640608
C1    C     C_3   0.706319 0.204343 0.658109 -0.359236
C2    C     C_3   0.666061 0.276712 0.638654 0.354675
C3    C     C_3   0.520161 0.632399 0.625744 0.292028
C4    C     C_3   0.523455 0.648858 0.681748 -0.349442
C5    C     C_3   0.065500 0.685764 0.339218 0.337073
C6    C     C_3   0.081628 0.706342 0.286687 -0.313118
C7    C     C_3   0.526124 0.723668 0.361268 0.361160
C8    C     C_3   0.485129 0.796020 0.341840 -0.364850
C9    C     C_R   0.996231 0.446697 0.180203 0.614294
C10   C     C_R   0.918722 0.570517 0.177435 0.571956
C11   C     C_2   0.760528 0.549978 0.272250 -0.081783
C12   C     C_3   0.127968 0.312957 0.659932 0.332117
C13   C     C_3   0.743373 0.572175 0.326655 -0.049697
C14   C     C_1   0.981098 0.490292 0.343345 0.033872
C15   C     C_2   0.019717 0.486364 0.295708 -0.104557
C16   C     C_2   0.901459 0.515689 0.256688 0.192837
C17   C     C_R   0.015501 0.502830 0.102374 -0.115494
C18   C     C_R   0.035647 0.441551 0.129084 -0.027358
C19   C     C_R   0.092530 0.376964 0.103587 0.164621
C20   C     C_R   0.956532 0.567312 0.126961 -0.018943
C21   C     C_2   0.850084 0.527488 0.360355 -0.291043
C22   C     C_2   0.348725 0.479658 0.640850 -0.283735
C23   C     C_3   0.114542 0.290929 0.712203 -0.311281
C24   C     C_R   0.163691 0.433865 0.976067 0.026483
C25   C     C_R   0.058781 0.557822 0.972562 0.019166
C26   C     C_R   0.130644 0.494449 0.948737 0.051471
C27   C     C_R   0.245251 0.373446 0.952201 -0.121581
C28   C     C_R   0.284790 0.370097 0.902517 -0.040089
C29   C     C_R   0.245197 0.428867 0.873815 -0.046511
C30   C     C_R   0.169949 0.491669 0.897330 -0.078269
C31   C     C_R   0.134208 0.551688 0.869616 -0.056817
C32   C     C_R   0.179156 0.548090 0.819070 0.592590
C33   C     C_R   0.278776 0.426750 0.822558 0.570914
C34   C     C_3   0.187280 0.317855 0.419069 0.315250
C35   C     C_2   0.430391 0.450615 0.727510 -0.083518
C36   C     C_3   0.448038 0.430137 0.672895 -0.046304
C37   C     C_1   0.210528 0.511441 0.656942 0.030147
C38   C     C_2   0.168060 0.511536 0.704054 -0.103394
C39   C     C_2   0.286848 0.482457 0.743170 0.197996
C40   C     C_R   0.117432 0.435618 0.026590 0.005305
C41   C     C_R   0.053686 0.499961 0.050979 0.046568
C42   C     C_R   0.027706 0.561648 0.024400 0.029065
C43   C     C_R   0.131129 0.374663 0.053584 -0.127169
C44   C     C_R   0.937596 0.628206 0.100819 -0.056317
C45   C     C_3   0.196675 0.238004 0.407050 -0.382266
C46   C     C_R   0.017829 0.615411 0.943511 -0.119920
C47   C     C_R   0.054325 0.613269 0.893546 -0.042739
C48   C     C_R   0.972887 0.625659 0.050999 -0.101913
C49   C     C_R   0.400496 0.299186 0.523339 -0.292659
C50   C     C_R   0.537975 0.276521 0.496831 0.067447
C51   C     C_R   0.589705 0.204443 0.491717 -0.123944
C52   C     C_R   0.501764 0.154242 0.512351 -0.018098
C53   C     C_R   0.358358 0.177796 0.537218 -0.137508
C54   C     C_R   0.306606 0.250099 0.541615 0.011344
C55   C     C_R   0.547687 0.034033 0.545067 -0.075994
C56   C     C_3   0.007611 0.682104 0.580139 0.312696
C57   C     C_R   0.598365 0.961928 0.539089 -0.076115
C58   C     C_R   0.657538 0.931206 0.493663 0.059318
C59   C     C_R   0.667009 0.974726 0.454597 -0.077050
C60   C     C_R   0.616533 0.046961 0.460613 -0.075470
C61   C     C_R   0.555740 0.077456 0.505899 0.062421
C62   C     C_R   0.846195 0.827498 0.461679 -0.133609
C63   C     C_R   0.891512 0.754417 0.457565 0.015332
C64   C     C_R   0.658802 0.733167 0.503565 0.040177
C65   C     C_R   0.612524 0.805608 0.508049 -0.118491
C66   C     C_R   0.704975 0.853796 0.486925 -0.010701
C67   C     C_3   0.995189 0.761915 0.592494 -0.380194
C68   C     C_R   0.793479 0.707697 0.476631 -0.285506
C69   C     C_3   0.671051 0.382044 0.376069 0.298264
C70   C     C_3   0.666092 0.365519 0.320052 -0.354334
H1    H     H_    0.709746 0.275008 0.600330 0.074830
H2    H     H_    0.276683 0.223047 0.375436 0.127896
H3    H     H_    0.246974 0.210563 0.439542 0.062847
H4    H     H_    0.073016 0.220405 0.397087 0.127834
H5    H     H_    0.885813 0.664478 0.569161 0.000242
H6    H     H_    0.090106 0.669265 0.548996 0.070303
H7    H     H_    0.906573 0.776422 0.621928 0.133615
H8    H     H_    0.954199 0.789626 0.559232 0.062519
H9    H     H_    0.116222 0.779714 0.605706 0.127915
H10   H     H_    0.795484 0.394617 0.388823 0.009740
H11   H     H_    0.584175 0.428466 0.384936 0.079876
H12   H     H_    0.839032 0.189636 0.657049 0.149639
H13   H     H_    0.757311 0.321195 0.309847 0.135977
H14   H     H_    0.693944 0.412659 0.301480 0.071920
H15   H     H_    0.542812 0.350494 0.306821 0.133667
H16   H     H_    0.531239 0.286759 0.637642 -0.061959
H17   H     H_    0.641037 0.163881 0.634563 0.067419
H18   H     H_    0.394351 0.621216 0.612843 0.018707
H19   H     H_    0.604308 0.584792 0.617341 0.070004
H20   H     H_    0.437376 0.695274 0.691574 0.137885
H21   H     H_    0.487150 0.602631 0.699929 0.073117
H22   H     H_    0.648309 0.660653 0.695647 0.136703
H23   H     H_    0.667619 0.204957 0.696882 0.127596
H24   H     H_    0.117633 0.338292 0.738929 0.123112
H25   H     H_    0.142769 0.635927 0.343853 0.091939
H26   H     H_    0.936195 0.677005 0.344154 -0.052081
H27   H     H_    0.197047 0.731552 0.283388 0.145987
H28   H     H_    0.083218 0.658125 0.260660 0.124335
H29   H     H_    0.978052 0.743970 0.276329 0.118194
H30   H     H_    0.660846 0.713460 0.361508 -0.066438
H31   H     H_    0.485095 0.725549 0.399898 0.076349
H32   H     H_    0.551516 0.836478 0.365055 0.067740
H33   H     H_    0.352588 0.810864 0.343403 0.150738
H34   H     H_    0.047533 0.362076 0.655913 0.090731
H35   H     H_    0.522080 0.795270 0.302876 0.119947
H36   H     H_    0.138072 0.462745 0.284854 0.125882
H37   H     H_    0.523567 0.431047 0.753748 0.119018
H38   H     H_    0.284783 0.327728 0.971895 0.065321
H39   H     H_    0.168090 0.322958 0.036644 0.069666
H40   H     H_    0.669096 0.570307 0.245772 0.116713
H41   H     H_    0.895507 0.678908 0.118983 0.121672
H42   H     H_    0.952326 0.663137 0.958495 0.065705
H43   H     H_    0.256218 0.323629 0.655010 -0.053438
H44   H     H_    0.047443 0.532729 0.714485 0.132385
H45   H     H_    0.959207 0.675738 0.034814 0.071221
H46   H     H_    0.835025 0.538136 0.399957 0.083936
H47   H     H_    0.379689 0.479687 0.602341 0.079489
H48   H     H_    0.506308 0.824205 0.528743 0.076134
H49   H     H_    0.592518 0.930283 0.570315 0.066181
H50   H     H_    0.504026 0.056045 0.580615 0.065457
H51   H     H_    0.697404 0.187684 0.471226 0.084711
H52   H     H_    0.710047 0.952577 0.419004 0.064089
H53   H     H_    0.997833 0.266914 0.715869 0.145839
H54   H     H_    0.622127 0.078684 0.429417 0.062518
H55   H     H_    0.923951 0.863596 0.447263 0.077536
H56   H     H_    0.283808 0.140072 0.551204 0.079863
H57   H     H_    0.829630 0.651555 0.474043 0.062731
H58   H     H_    0.359434 0.354820 0.526360 0.071196
H59   H     H_    0.216876 0.251931 0.721270 0.124726
H60   H     H_    0.311219 0.334714 0.427872 0.003089
H61   H     H_    0.110259 0.331239 0.451532 0.064609
N1    N     N_R   0.939629 0.510767 0.203976 -0.429144
N2    N     N_R   0.247580 0.485948 0.795850 -0.418673
O1    O     O_2   0.913240 0.537010 0.617740 -0.457860
O2    O     O_3   0.629062 0.322527 0.398297 -0.635122
O3    O     O_3   0.079573 0.258366 0.625480 -0.601856
O4    O     O_2   0.276450 0.462960 0.382230 -0.462105
O5    O     O_3   0.044470 0.462980 0.442430 -0.494511
O6    O     O_3   0.519740 0.589470 0.411120 -0.476050
O7    O     O_3   0.120844 0.350159 0.377403 -0.623026
O8    O     O_3   0.632420 0.583650 0.524140 -0.476927
O9    O     O_3   0.111040 0.625070 0.435230 -0.492416
O10   O     O_2   0.228956 0.750097 0.464615 -0.483063
O11   O     O_3   0.116752 0.740305 0.373177 -0.602836
O12   O     O_3   0.145240 0.536960 0.557560 -0.492658
O13   O     O_3   0.557280 0.416300 0.475860 -0.489135
O14   O     O_2   0.376710 0.670070 0.522470 -0.456958
O15   O     O_3   0.568696 0.690934 0.603407 -0.640300
O16   O     O_2   0.413985 0.534542 0.322130 -0.498048
O17   O     O_3   0.446812 0.671680 0.330896 -0.594856
O18   O     O_2   0.009971 0.393948 0.203345 -0.563030
O19   O     O_2   0.334393 0.371536 0.801398 -0.614973
O20   O     O_2   0.867550 0.627160 0.197828 -0.620490
O21   O     O_2   0.160346 0.600769 0.795930 -0.591142
O22   O     O_3   0.669960 0.410470 0.588880 -0.481436
O23   O     O_2   0.777920 0.465820 0.677514 -0.496174
O24   O     O_3   0.067446 0.649787 0.622483 -0.623022
O25   O     O_3   0.743138 0.328728 0.669616 -0.596317
O26   O     O_2   0.812980 0.329910 0.477500 -0.460319
O27   O     O_3   0.078660 0.374870 0.564770 -0.493745
O28   O     O_2   0.969650 0.249007 0.533489 -0.483862
P1    P     P_3+3 0.082480 0.557670 0.610090 0.996718
P2    P     P_3+3 0.635220 0.340300 0.462910 0.985955
P3    P     P_3+3 0.108047 0.282548 0.565775 0.943666
P4    P     P_3+3 0.107220 0.442270 0.389900 0.994537
P5    P     P_3+3 0.087345 0.717657 0.433190 0.944287
P6    P     P_3+3 0.661349 0.411622 0.653173 0.948231
P7    P     P_3+3 0.561268 0.671603 0.538952 0.950523
P8    P     P_3+3 0.529882 0.588779 0.346890 0.942902
N3    N     N_3   0.111515 0.312486 0.127982 -0.430341
H62   H     H_    0.038698 0.275790 0.108580 0.175375
H63   H     H_    0.232981 0.292414 0.125939 0.176144
C71   C     C_1   0.369964 0.304784 0.883112 0.360393
N4    N     N_1   0.438026 0.252512 0.867775 -0.268812
C72   C     C_1   0.002841 0.675837 0.868111 0.362450
N5    N     N_1   0.961370 0.725941 0.847928 -0.260340

loop_
_geom_bond_atom_site_label_1
_geom_bond_atom_site_label_2
_ccdc_geom_bond_type
C25   C46   A    
C57   H49   S    
C53   C54   A    
C7    O17   S    
O13   P2    S    
C5    H26   S    
C53   H56   S    
C48   H45   S    
Ba2   O9    S    
C17   C18   A    
C33   O19   D    
C34   H61   S    
C21   H46   S    
O2    P2    S    
C70   H13   S    
C5    C6    S    
C69   O2    S    
C38   H44   S    
C51   C52   A    
C50   C51   A    
C63   P5    S    
C35   C36   S    
C11   C16   D    
O9    P5    S    
C59   H52   S    
C3    C4    S    
Ba2   O4    S    
C62   C66   A    
C6    H27   S    
C45   H4    S    
C49   C54   A    
C11   H40   S    
O12   P1    S    
C34   H60   S    
O1    P1    D    
C28   C29   A    
C55   C57   A    
C52   C61   S    
C14   P4    S    
C31   C47   A    
C12   H43   S    
C10   C20   A    
O6    P8    S    
C22   C37   D    
O16   P8    D    
C34   C45   S    
Ba1   Ba2   S    
C34   O7    S    
C23   H53   S    
C56   H5    S    
O22   P6    S    
C55   H50   S    
O27   P3    S    
C25   C42   A    
C69   H11   S    
C12   O3    S    
Ba1   P1    S    
C17   C41   A    
C14   C15   D    
C4    H22   S    
C22   C36   S    
O25   P6    S    
Ba1   O1    S    
C65   H48   S    
C35   H37   S    
C3    H18   S    
C5    O11   S    
C4    H21   S    
Ba2   O14   S    
C13   C21   S    
C64   C65   A    
O7    P4    S    
C67   H8    S    
Ba1   O26   S    
C57   C58   A    
C10   N1    Am   
Ba2   O8    S    
C8    H35   S    
C19   C43   A    
C49   H58   S    
N3    H63   S    
C55   C61   A    
C47   C72   S    
C9    C18   A    
C65   C66   A    
C27   H38   S    
C26   C30   A    
O28   P3    D    
C67   H9    S    
O8    P7    S    
C51   H51   S    
C9    N1    Am   
C33   N2    Am   
C37   C38   D    
C60   H54   S    
O17   P8    S    
C9    O18   D    
C7    H30   S    
Ba2   O12   S    
C68   H57   S    
C3    O15   S    
C49   C50   A    
C58   C59   A    
C40   C43   A    
C41   C42   A    
C60   C61   A    
Ba1   O8    S    
C50   P2    S    
C71   N4    T    
Ba1   P2    S    
C7    H31   S    
C62   H55   S    
C17   C20   A    
C15   C16   S    
C1    C2    S    
C13   P8    S    
C56   C67   S    
C15   H36   S    
O4    P4    D    
C2    H1    S    
C3    H19   S    
Ba1   O5    S    
C24   C27   A    
C46   C47   A    
C20   C44   A    
Ba1   O27   S    
C14   C21   D    
C11   C13   S    
C29   C33   A    
Ba1   O12   S    
C40   C41   A    
O15   P7    S    
C10   O20   D    
O14   P7    D    
C23   H59   S    
C28   C71   S    
C39   N2    S    
C70   H15   S    
N3    H62   S    
C24   C40   A    
C36   P6    S    
C46   H42   S    
C7    C8    S    
C42   C48   A    
O11   P5    S    
C52   C53   A    
C38   C39   S    
C22   H47   S    
C5    H25   S    
C44   H41   S    
C64   P7    S    
C29   C30   A    
C45   H2    S    
C8    H33   S    
C2    O25   S    
C70   H14   S    
C43   H39   S    
O23   P6    D    
C2    H16   S    
C6    H29   S    
C32   O21   D    
C19   N3    S    
C44   C48   A    
C24   C26   A    
C1    H17   S    
C56   O24   S    
Ba2   O5    S    
C62   C63   A    
C69   H10   S    
Ba1   O22   S    
C6    H28   S    
C45   H3    S    
C69   C70   S    
C30   C31   A    
C64   C68   A    
C32   N2    Am   
O5    P4    S    
C4    H20   S    
C8    H32   S    
C31   C32   A    
C16   N1    S    
C12   C23   S    
C35   C39   D    
C59   C60   A    
C67   H7    S    
O3    P3    S    
C56   H6    S    
C27   C28   A    
C12   H34   S    
C18   C19   A    
C58   C66   S    
C23   H24   S    
C72   N5    T    
C54   P3    S    
C1    H12   S    
Ba2   O6    S    
O24   P1    S    
Ba1   O13   S    
C1    H23   S    
C37   P1    S    
Ba2   O13   S    
Ba2   P4    S    
O26   P2    D    
C63   C68   A    
C25   C26   A    
O10   P5    D    
