data_mof_unit_56032.cif
_audit_creation_date              2013-03-05T15:44:09-0500
_audit_creation_method            fapswitch 2.2
_symmetry_space_group_name_H-M    P1
_symmetry_Int_Tables_number       1
_space_group_crystal_system       monoclinic
_cell_length_a                    19.662612
_cell_length_b                    11.20141
_cell_length_c                    19.618003
_cell_angle_alpha                 90.0
_cell_angle_beta                  96.535144
_cell_angle_gamma                 90.0
_cell_volume                      4292.7692769

loop_
_atom_site_label
_atom_site_type_symbol
_atom_site_description
_atom_site_fract_x
_atom_site_fract_y
_atom_site_fract_z
_atom_type_partial_charge
O1    O     O_R   0.783100 0.287550 0.345460 -0.538480
O2    O     O_R   0.216900 0.287550 0.654540 -0.539064
O3    O     O_R   0.283100 0.787550 0.345460 -0.539064
O4    O     O_R   0.716900 0.787550 0.654540 -0.538480
O5    O     O_R   0.760020 0.037400 0.337700 -0.543587
O6    O     O_R   0.239980 0.037400 0.662300 -0.541724
O7    O     O_R   0.260020 0.537400 0.337700 -0.541724
O8    O     O_R   0.739980 0.537400 0.662300 -0.543587
C1    C     C_R   0.724904 0.953185 0.359801 0.578012
C2    C     C_R   0.275097 0.953187 0.640198 0.580569
C3    C     C_R   0.224903 0.453187 0.359802 0.580569
C4    C     C_R   0.775096 0.453186 0.640199 0.578012
O9    O     O_R   0.666600 0.921990 0.332020 -0.443436
O10   O     O_R   0.333400 0.921990 0.667980 -0.442573
O11   O     O_R   0.166600 0.421990 0.332020 -0.442573
O12   O     O_R   0.833400 0.421990 0.667980 -0.443437
O13   O     O_R   0.557260 0.082670 0.312540 -0.505036
O14   O     O_R   0.442740 0.082670 0.687460 -0.510129
O15   O     O_R   0.057260 0.582670 0.312540 -0.510128
O16   O     O_R   0.942740 0.582670 0.687460 -0.505036
C5    C     C_R   0.536643 0.180253 0.338684 0.542052
C6    C     C_R   0.463363 0.180253 0.661319 0.531846
C7    C     C_R   0.036637 0.680253 0.338681 0.531845
C8    C     C_R   0.963356 0.680253 0.661315 0.542053
O17   O     O_R   0.548410 0.285740 0.316480 -0.491633
O18   O     O_R   0.451590 0.285740 0.683520 -0.499771
O19   O     O_R   0.048410 0.785740 0.316480 -0.499771
O20   O     O_R   0.951590 0.785740 0.683520 -0.491632
O21   O     O_R   0.680500 0.375040 0.327000 -0.481195
O22   O     O_R   0.319500 0.375040 0.673000 -0.485216
O23   O     O_R   0.180500 0.875040 0.327000 -0.485216
O24   O     O_R   0.819500 0.875040 0.673000 -0.481195
C9    C     C_R   0.737946 0.357214 0.362778 0.568152
C10   C     C_R   0.262053 0.357218 0.637223 0.564938
C11   C     C_R   0.237947 0.857217 0.362777 0.564938
C12   C     C_R   0.762054 0.857214 0.637222 0.568152
O25   O     O_R   0.780350 0.286720 0.192720 -0.485476
O26   O     O_R   0.219650 0.286720 0.807280 -0.505145
O27   O     O_R   0.280350 0.786720 0.192720 -0.505145
O28   O     O_R   0.719650 0.786720 0.807280 -0.485475
O29   O     O_R   0.757470 0.036630 0.196110 -0.467583
O30   O     O_R   0.242530 0.036630 0.803890 -0.477532
O31   O     O_R   0.257470 0.536630 0.196110 -0.477532
O32   O     O_R   0.742530 0.536630 0.803890 -0.467583
C13   C     C_R   0.723270 0.951131 0.164645 0.577559
C14   C     C_R   0.278502 0.955757 0.837435 0.570364
C15   C     C_R   0.221498 0.455757 0.162565 0.570364
C16   C     C_R   0.776730 0.451131 0.835355 0.577560
O33   O     O_R   0.663840 0.921160 0.179280 -0.507557
O34   O     O_R   0.336160 0.921160 0.820720 -0.502325
O35   O     O_R   0.163840 0.421160 0.179280 -0.502324
O36   O     O_R   0.836160 0.421160 0.820720 -0.507558
O37   O     O_R   0.554710 0.081900 0.170950 -0.510234
O38   O     O_R   0.445290 0.081900 0.829050 -0.510020
O39   O     O_R   0.054710 0.581900 0.170950 -0.510019
O40   O     O_R   0.945290 0.581900 0.829050 -0.510235
C17   C     C_R   0.562438 0.182614 0.137259 0.590929
C18   C     C_R   0.469096 0.179384 0.858395 0.555146
C19   C     C_R   0.030903 0.679384 0.141605 0.555147
C20   C     C_R   0.937562 0.682614 0.862741 0.590930
O41   O     O_R   0.545650 0.284910 0.163740 -0.522029
O42   O     O_R   0.454350 0.284910 0.836260 -0.498817
O43   O     O_R   0.045650 0.784910 0.163740 -0.498817
O44   O     O_R   0.954350 0.784910 0.836260 -0.522029
O45   O     O_R   0.677950 0.374280 0.185410 -0.497868
O46   O     O_R   0.322050 0.374280 0.814590 -0.457576
O47   O     O_R   0.177950 0.874280 0.185410 -0.457576
O48   O     O_R   0.822050 0.874280 0.814590 -0.497868
C21   C     C_R   0.736720 0.360626 0.164543 0.582956
C22   C     C_R   0.262702 0.361917 0.834587 0.588399
C23   C     C_R   0.237297 0.861917 0.165413 0.588399
C24   C     C_R   0.763280 0.860626 0.835457 0.582956
Cr1   Cr    Cr6+3 0.765780 0.160710 0.267420 1.046396
Cr2   Cr    Cr6+3 0.234220 0.160710 0.732580 1.048576
Cr3   Cr    Cr6+3 0.265780 0.660710 0.267420 1.048576
Cr4   Cr    Cr6+3 0.734220 0.660710 0.732580 1.046396
Cr5   Cr    Cr6+3 0.612200 0.009560 0.248850 1.081352
Cr6   Cr    Cr6+3 0.387800 0.009560 0.751150 1.080026
Cr7   Cr    Cr6+3 0.112200 0.509560 0.248850 1.080026
Cr8   Cr    Cr6+3 0.887800 0.509560 0.751150 1.081352
Cr9   Cr    Cr6+3 0.616030 0.323720 0.248510 1.077036
Cr10  Cr    Cr6+3 0.383970 0.323720 0.751490 1.093006
Cr11  Cr    Cr6+3 0.116030 0.823720 0.248510 1.093006
Cr12  Cr    Cr6+3 0.883970 0.823720 0.751490 1.077036
O49   O     O_3   0.664670 0.164660 0.254930 -0.292459
O50   O     O_3   0.335330 0.164660 0.745070 -0.281900
O51   O     O_3   0.164670 0.664660 0.254930 -0.281900
O52   O     O_3   0.835330 0.664660 0.745070 -0.292460
C25   C     C_1   0.484473 0.171670 0.594132 0.038384
C26   C     C_1   0.515547 0.171671 0.405877 0.036275
C27   C     C_1   0.984453 0.671671 0.594122 0.036275
C28   C     C_1   0.015527 0.671670 0.405868 0.038384
C29   C     C_1   0.504927 0.167121 0.465023 0.021023
C30   C     C_1   0.495099 0.167120 0.534989 0.021649
C31   C     C_1   0.004901 0.667120 0.465011 0.021648
C32   C     C_1   0.995073 0.667121 0.534977 0.021023
C33   C     C_3   0.688954 0.467123 0.535189 -0.126045
C34   C     C_3   0.311044 0.467124 0.464814 -0.126901
C35   C     C_3   0.188956 0.967124 0.535186 -0.126901
C36   C     C_3   0.811046 0.967123 0.464811 -0.126045
H1    H     H_    0.689547 0.563530 0.534581 0.112600
H2    H     H_    0.310455 0.563532 0.465419 0.112440
H3    H     H_    0.189545 0.063532 0.534581 0.112440
H4    H     H_    0.810453 0.063530 0.465419 0.112600
C37   C     C_3   0.676483 0.427736 0.459933 -0.219527
C38   C     C_3   0.323513 0.427743 0.540070 -0.219494
C39   C     C_3   0.176486 0.927743 0.459930 -0.219495
C40   C     C_3   0.823517 0.927736 0.540067 -0.219527
H5    H     H_    0.639218 0.352517 0.453623 0.156777
H6    H     H_    0.360779 0.352526 0.546384 0.157027
H7    H     H_    0.139221 0.852526 0.453616 0.157027
H8    H     H_    0.860781 0.852517 0.546376 0.156777
H9    H     H_    0.653513 0.501952 0.427922 0.212834
H10   H     H_    0.346482 0.501961 0.572080 0.212609
H11   H     H_    0.153518 0.001961 0.427920 0.212609
H12   H     H_    0.846487 0.001952 0.572078 0.212834
H13   H     H_    0.336396 0.071788 0.549535 0.092362
H14   H     H_    0.663604 0.071779 0.450463 0.092046
H15   H     H_    0.836396 0.571779 0.549537 0.092046
H16   H     H_    0.163604 0.571788 0.450465 0.092362
H17   H     H_    0.283661 0.065234 0.433080 0.165267
H18   H     H_    0.716344 0.065230 0.566917 0.165242
H19   H     H_    0.783656 0.565230 0.433083 0.165242
H20   H     H_    0.216339 0.565234 0.566920 0.165267
C41   C     C_3   0.820209 0.482472 0.530940 -0.247972
C42   C     C_3   0.179789 0.482479 0.469062 -0.248405
C43   C     C_3   0.320211 0.982479 0.530938 -0.248405
C44   C     C_3   0.679791 0.982472 0.469060 -0.247972
C45   C     C_3   0.764579 0.287120 0.554457 0.067586
C46   C     C_3   0.235415 0.287125 0.445545 0.067789
C47   C     C_3   0.264584 0.787125 0.554455 0.067789
C48   C     C_3   0.735421 0.787120 0.445543 0.067586
C49   C     C_3   0.761531 0.422519 0.567886 0.045852
C50   C     C_3   0.238467 0.422523 0.432116 0.044982
C51   C     C_3   0.261533 0.922523 0.567884 0.044982
C52   C     C_3   0.738469 0.922519 0.432114 0.045852
H21   H     H_    0.716062 0.249257 0.567250 0.162436
H22   H     H_    0.283932 0.249260 0.432749 0.162609
H23   H     H_    0.216068 0.749260 0.567251 0.162609
H24   H     H_    0.783938 0.749257 0.432750 0.162435
C53   C     C_3   0.745307 0.386311 0.436090 -0.002191
C54   C     C_3   0.254690 0.386317 0.563911 -0.001208
C55   C     C_3   0.245310 0.886317 0.436088 -0.001208
C56   C     C_3   0.754693 0.886311 0.563910 -0.002192
C57   C     C_3   0.802006 0.479043 0.452985 -0.266596
C58   C     C_3   0.197991 0.479048 0.547017 -0.266408
C59   C     C_3   0.302009 0.979048 0.452983 -0.266408
C60   C     C_3   0.697994 0.979043 0.547015 -0.266596
C61   C     C_3   0.768146 0.271637 0.477026 -0.228659
C62   C     C_3   0.231852 0.271642 0.522976 -0.228370
C63   C     C_3   0.268148 0.771642 0.477024 -0.228370
C64   C     C_3   0.731854 0.771637 0.522974 -0.228659
H25   H     H_    0.734820 0.199725 0.457395 0.087360
H26   H     H_    0.265178 0.199730 0.542605 0.087239
H27   H     H_    0.234822 0.699730 0.457395 0.087239
H28   H     H_    0.765180 0.699725 0.542604 0.087360
H29   H     H_    0.821571 0.251123 0.467461 0.181790
H30   H     H_    0.178427 0.251126 0.532543 0.181933
H31   H     H_    0.321572 0.751126 0.467457 0.181933
H32   H     H_    0.678429 0.751123 0.532539 0.181790
H33   H     H_    0.868621 0.432093 0.542967 0.200392
H34   H     H_    0.131376 0.432104 0.457034 0.200474
H35   H     H_    0.368624 0.932104 0.542966 0.200474
H36   H     H_    0.631379 0.932093 0.457033 0.200392
H37   H     H_    0.848587 0.456814 0.428111 0.147669
H38   H     H_    0.151410 0.456815 0.571889 0.148084
H39   H     H_    0.348590 0.956815 0.428111 0.148084
H40   H     H_    0.651413 0.956814 0.571888 0.147669
C65   C     C_3   0.531394 0.297387 0.953430 -0.212669
C66   C     C_3   0.546836 0.303499 0.030847 -0.211203
C67   C     C_3   0.953164 0.803499 0.969153 -0.211203
C68   C     C_3   0.968606 0.797387 0.046570 -0.212669
H41   H     H_    0.498798 0.375684 0.937252 0.193065
H42   H     H_    0.598514 0.342747 0.044606 0.156227
H43   H     H_    0.901486 0.842747 0.955394 0.156227
H44   H     H_    0.001202 0.875684 0.062747 0.193065
H45   H     H_    0.579499 0.308875 0.929216 0.151824
H46   H     H_    0.509543 0.365292 0.051038 0.182757
H47   H     H_    0.990457 0.865293 0.948962 0.182757
H48   H     H_    0.920501 0.808876 0.070784 0.151823
H49   H     H_    0.434123 0.189870 0.082660 0.184685
H50   H     H_    0.590032 0.079680 0.907687 0.176020
H51   H     H_    0.909968 0.579681 0.092313 0.176020
H52   H     H_    0.065876 0.689869 0.917340 0.184686
C69   C     C_3   0.438691 0.141824 0.974887 0.093972
C70   C     C_3   0.586856 0.090264 0.022337 0.079279
C71   C     C_3   0.913144 0.590264 0.977663 0.079279
C72   C     C_3   0.061308 0.641824 0.025113 0.093972
C73   C     C_3   0.553065 0.076303 0.946340 -0.253315
C74   C     C_3   0.466109 0.135097 0.051197 -0.237756
C75   C     C_3   0.033891 0.635097 0.948803 -0.237756
C76   C     C_3   0.946934 0.576303 0.053660 -0.253315
C77   C     C_3   0.497830 0.174278 0.931232 0.010882
C78   C     C_3   0.541695 0.176694 0.062103 0.010197
C79   C     C_3   0.958305 0.676694 0.937897 0.010197
C80   C     C_3   0.002170 0.674278 0.068768 0.010882
H53   H     H_    0.529164 0.986307 0.940031 0.093227
H54   H     H_    0.462385 0.041193 0.069057 0.100430
H55   H     H_    0.037614 0.541192 0.930943 0.100430
H56   H     H_    0.970836 0.486307 0.059969 0.093227
H57   H     H_    0.588966 0.000821 0.047143 0.118072
H58   H     H_    0.419228 0.051164 0.959144 0.119697
H59   H     H_    0.080772 0.551164 0.040856 0.119697
H60   H     H_    0.911034 0.500821 0.952857 0.118071
C81   C     C_1   0.759879 0.420391 0.902681 0.057838
C82   C     C_1   0.234854 0.433700 0.093246 0.043416
C83   C     C_1   0.265146 0.933700 0.906754 0.043417
C84   C     C_1   0.740121 0.920391 0.097319 0.057838
C85   C     C_1   0.747557 0.404969 0.034132 0.060137
C86   C     C_1   0.245848 0.419806 0.961600 0.061394
C87   C     C_1   0.254152 0.919806 0.038400 0.061394
C88   C     C_1   0.752443 0.904970 0.965868 0.060137
C89   C     C_1   0.752073 0.409959 0.962611 0.060959
C90   C     C_1   0.240890 0.426514 0.032846 0.040648
C91   C     C_1   0.259110 0.926514 0.967154 0.040648
C92   C     C_1   0.747927 0.909959 0.037389 0.060960
C93   C     C_1   0.744011 0.394137 0.094917 0.056877
C94   C     C_1   0.252070 0.403378 0.901820 0.080858
C95   C     C_1   0.247929 0.903378 0.098180 0.080858
C96   C     C_1   0.755989 0.894137 0.905083 0.056877
N1    N     N_R   0.381009 0.224628 0.964451 0.071688
O53   O     O_R   0.387977 0.335641 0.983409 -0.381841
O54   O     O_R   0.320136 0.182620 0.945808 -0.386441
N2    N     N_R   0.657178 0.136388 0.024890 0.033211
O55   O     O_R   0.685965 0.159317 0.969781 -0.400177
O56   O     O_R   0.691430 0.158152 0.083894 -0.386336
N3    N     N_R   0.842821 0.636388 0.975110 0.033211
O57   O     O_R   0.814035 0.659317 0.030219 -0.400177
O58   O     O_R   0.808569 0.658152 0.916106 -0.386336
N4    N     N_R   0.118991 0.724628 0.035549 0.071687
O59   O     O_R   0.112023 0.835641 0.016590 -0.381841
O60   O     O_R   0.179863 0.682620 0.054194 -0.386441
C97   C     C_2   0.629183 0.436867 0.574624 0.225224
H61   H     H_    0.603445 0.507997 0.599197 0.142631
O61   O     O_2   0.609309 0.334612 0.579891 -0.544071
C98   C     C_2   0.370816 0.436853 0.425382 0.226721
H62   H     H_    0.396538 0.507969 0.400782 0.143746
O62   O     O_2   0.390705 0.334601 0.420150 -0.542574
C99   C     C_2   0.129184 0.936853 0.574618 0.226721
H63   H     H_    0.103461 0.007969 0.599218 0.143746
O63   O     O_2   0.109295 0.834601 0.579850 -0.542574
C100  C     C_2   0.870817 0.936867 0.425375 0.225224
H64   H     H_    0.896555 0.007997 0.400803 0.142631
O64   O     O_2   0.890691 0.834612 0.420109 -0.544071
N5    N     N_R   0.820575 0.224318 0.596121 0.049240
O65   O     O_R   0.883478 0.229414 0.581542 -0.371453
O66   O     O_R   0.807922 0.168732 0.651578 -0.346504
N6    N     N_R   0.179416 0.224326 0.403885 0.049230
O67   O     O_R   0.116514 0.229426 0.418467 -0.372195
O68   O     O_R   0.192066 0.168725 0.348431 -0.347521
N7    N     N_R   0.320584 0.724326 0.596115 0.049230
O69   O     O_R   0.383486 0.729426 0.581533 -0.372195
O70   O     O_R   0.307934 0.668725 0.651569 -0.347521
N8    N     N_R   0.679425 0.724318 0.403879 0.049240
O71   O     O_R   0.616522 0.729414 0.418457 -0.371452
O72   O     O_R   0.692078 0.668732 0.348421 -0.346504

loop_
_geom_bond_atom_site_label_1
_geom_bond_atom_site_label_2
_geom_bond_distance
_ccdc_geom_bond_type
C18   O42   1.281093 A    
C87   C91   1.414120 S    
C67   C68   1.516104 S    
O4    C12   1.257490 A    
O47   Cr11  1.917948 S    
C29   C30   1.407744 S    
C45   N5    1.473219 S    
O39   C19   1.296758 A    
O20   Cr12  2.032337 S    
C65   C66   1.516105 S    
C54   C58   1.532178 S    
C35   H3    1.080043 S    
C31   C32   1.407742 S    
C33   C49   1.577714 S    
C54   C62   1.553856 S    
C56   C60   1.532178 S    
C61   H25   1.081259 S    
N2    O55   1.301732 A    
O29   Cr1   1.965578 S    
C64   H32   1.111924 S    
C42   C58   1.530947 S    
O1    C9    1.257487 A    
N7    O69   1.302055 A    
C57   H37   1.113884 S    
O7    C3    1.273874 A    
C68   H44   1.111034 S    
N1    O53   1.300696 A    
C70   N2    1.471603 S    
C66   H46   1.113475 S    
C72   C75   1.534194 S    
C21   C93   1.439375 S    
C76   C80   1.548720 S    
C37   H9    1.106756 S    
C75   H55   1.113725 S    
O25   C21   1.272369 A    
C44   C52   1.580465 S    
O38   C18   1.296758 A    
H16   C42   1.099418 S    
C48   C52   1.541700 S    
N7    O70   1.301867 A    
C41   C49   1.580465 S    
O21   C9    1.275896 A    
C36   H4    1.080038 S    
O23   Cr11  1.965739 S    
C98   H62   1.085750 S    
O30   C14   1.283762 A    
C25   C30   1.203187 T    
O32   Cr4   1.965579 S    
C86   C90   1.414120 S    
C1    O9    1.261413 A    
O44   Cr12  2.084663 S    
N8    O72   1.301870 A    
C27   C32   1.203192 T    
C3    O11   1.261411 A    
O11   Cr7   2.090758 S    
C7    O19   1.289354 A    
C99   H63   1.085750 S    
N6    O68   1.301868 A    
C16   C81   1.439612 S    
C46   C62   1.538408 S    
C100  O64   1.218402 D    
H17   C59   1.087460 S    
O6    Cr2   1.963968 S    
C34   C38   1.533624 S    
H50   C73   1.109161 S    
O27   Cr3   2.077865 S    
C86   C94   1.207019 T    
C15   O35   1.275785 A    
O3    Cr3   2.088027 S    
C97   H61   1.085751 S    
Cr4   O52   1.975755 S    
O47   C23   1.280236 A    
O2    Cr2   2.088026 S    
C53   C57   1.532178 S    
C33   C37   1.533634 S    
Cr9   O49   2.019299 S    
C68   H48   1.113177 S    
C72   H59   1.116336 S    
C55   C63   1.553856 S    
O42   Cr10  2.084663 S    
Cr5   O49   2.017166 S    
C84   C92   1.208540 T    
C69   N1    1.461414 S    
N5    O65   1.302052 A    
H51   C76   1.109161 S    
O17   Cr9   2.032340 S    
C67   H47   1.113476 S    
C46   C50   1.541699 S    
H14   C44   1.099420 S    
C4    O12   1.261413 A    
O34   Cr6   2.046874 S    
C42   C50   1.580465 S    
C65   H45   1.113176 S    
C37   H5    1.114205 S    
C45   H21   1.098838 S    
C47   N7    1.473220 S    
C14   O34   1.275782 A    
C38   C54   1.552239 S    
O35   Cr7   2.046873 S    
C5    C26   1.429480 S    
C44   H36   1.108661 S    
O31   Cr3   1.965578 S    
C14   C83   1.435499 S    
O24   Cr12  1.965737 S    
O9    Cr5   2.090758 S    
O30   Cr2   1.965579 S    
C36   C40   1.533634 S    
O16   Cr8   1.925109 S    
O26   C22   1.268798 A    
C53   C61   1.553858 S    
O48   Cr12  1.917950 S    
C10   C54   1.465708 S    
C88   C92   1.417056 S    
C69   C74   1.534194 S    
C2    C51   1.454500 S    
C72   N4    1.461413 S    
C64   H28   1.081261 S    
C67   C79   1.554939 S    
C2    O10   1.261411 A    
C3    C50   1.454500 S    
C66   C78   1.554939 S    
O22   C10   1.275903 A    
C44   C60   1.530945 S    
C76   H56   1.113186 S    
C65   C77   1.568885 S    
C88   C96   1.208518 T    
O26   Cr2   2.077865 S    
C9    C53   1.465723 S    
C34   H2    1.080043 S    
H20   C58   1.087460 S    
C71   H60   1.112533 S    
C28   C31   1.203188 T    
C85   C89   1.417057 S    
C40   H8    1.114206 S    
C70   H57   1.112532 S    
O43   Cr11  2.084661 S    
O48   C24   1.278276 A    
O12   Cr8   2.090759 S    
C63   H31   1.111924 S    
C69   H58   1.116336 S    
O22   Cr10  1.965737 S    
C23   C95   1.435914 S    
O15   C7    1.292114 A    
O5    C1    1.273870 A    
N8    O71   1.302052 A    
C73   C77   1.548723 S    
O46   Cr10  1.917950 S    
O39   Cr7   1.968936 S    
H49   C74   1.114139 S    
C47   C51   1.541699 S    
O45   Cr9   1.917948 S    
N3    O57   1.301734 A    
C13   O33   1.279457 A    
C87   C95   1.207017 T    
O8    C4    1.273870 A    
C33   C97   1.517097 S    
C83   C91   1.206900 T    
C100  H64   1.085750 S    
H52   C75   1.114138 S    
C35   C51   1.577723 S    
C99   O63   1.218403 D    
C22   C94   1.435913 S    
O29   C13   1.286840 A    
Cr2   O50   1.975755 S    
N4    O60   1.299295 A    
H13   C43   1.099418 S    
C39   H11   1.106750 S    
C71   C76   1.569466 S    
Cr7   O51   2.017166 S    
C59   H39   1.113884 S    
C45   C49   1.541700 S    
H15   C41   1.099420 S    
Cr3   O51   1.975755 S    
O14   Cr6   1.925109 S    
N3    O58   1.294389 A    
C38   H10   1.106751 S    
O21   Cr9   1.965739 S    
C55   C59   1.532178 S    
C13   C84   1.439614 S    
H18   C60   1.087459 S    
C4    C49   1.454490 S    
N5    O66   1.301869 A    
O8    Cr4   1.963968 S    
C62   H26   1.081261 S    
O37   Cr5   1.968936 S    
C48   C64   1.538423 S    
C43   H35   1.108659 S    
C19   O43   1.281093 A    
C68   C80   1.568885 S    
O18   Cr10  2.032337 S    
O3    C11   1.257489 A    
C46   H22   1.098840 S    
C8    C27   1.429481 S    
O24   C12   1.275896 A    
C40   C56   1.552259 S    
C36   C100  1.517097 S    
N6    O67   1.302052 A    
C74   H54   1.113726 S    
C26   C29   1.203192 T    
C38   H6    1.114207 S    
C73   H53   1.113185 S    
O45   C21   1.278277 A    
C5    O17   1.289342 A    
C46   N6    1.473221 S    
O37   C17   1.324959 A    
O28   C24   1.272368 A    
C15   C82   1.435499 S    
C71   C79   1.578629 S    
O2    C10   1.257491 A    
O14   C6    1.292113 A    
C39   H7    1.114205 S    
C70   C78   1.578630 S    
O5    Cr1   1.963968 S    
C41   H33   1.108661 S    
C8    O20   1.289343 A    
C69   C77   1.563474 S    
O31   C15   1.283762 A    
N2    O56   1.294388 A    
Cr11  O51   2.019299 S    
O6    C2    1.273874 A    
O7    Cr3   1.963968 S    
C17   O41   1.315626 A    
Cr8   O52   2.017166 S    
C66   H42   1.111853 S    
C48   N8    1.473218 S    
C19   C80   1.476650 S    
C48   H24   1.098838 S    
C35   C39   1.533625 S    
C62   H30   1.111924 S    
C18   C77   1.476649 S    
O25   Cr1   2.077865 S    
C63   H27   1.081259 S    
O40   Cr8   1.968935 S    
C17   C78   1.485845 S    
C20   O44   1.315627 A    
O1    Cr1   2.088027 S    
C40   H12   1.106756 S    
C70   C73   1.569467 S    
O19   Cr11  2.032340 S    
C71   N3    1.471603 S    
C12   C56   1.465723 S    
C85   C93   1.208516 T    
Cr1   O49   1.975755 S    
C56   C64   1.553858 S    
O32   C16   1.286841 A    
O41   Cr9   2.084661 S    
O33   Cr5   2.046873 S    
Cr10  O50   2.019299 S    
O13   Cr5   1.925107 S    
C65   H41   1.111034 S    
C82   C90   1.206900 T    
O46   C22   1.280234 A    
Cr12  O52   2.019299 S    
C67   H43   1.111853 S    
C60   H40   1.113884 S    
C6    C25   1.429461 S    
C98   O62   1.218404 D    
C47   C63   1.538408 S    
C43   C59   1.530947 S    
O23   C11   1.275903 A    
C34   C50   1.577723 S    
O10   Cr6   2.090759 S    
C58   H38   1.113884 S    
N4    O59   1.300697 A    
C43   C51   1.580465 S    
C37   C53   1.552259 S    
C75   C79   1.548984 S    
C42   H34   1.108659 S    
O4    Cr4   2.088026 S    
C47   H23   1.098839 S    
C74   C78   1.548983 S    
C81   C89   1.208542 T    
C1    C52   1.454490 S    
O28   Cr4   2.077865 S    
C35   C99   1.517085 S    
C16   O36   1.279454 A    
O40   C20   1.324958 A    
C72   C80   1.563476 S    
N1    O54   1.299294 A    
Cr6   O50   2.017166 S    
C6    O18   1.289354 A    
C97   O61   1.218403 D    
C36   C52   1.577714 S    
O27   C23   1.268799 A    
C7    C28   1.429461 S    
C24   C96   1.439373 S    
C41   C57   1.530945 S    
C61   H29   1.111926 S    
C45   C61   1.538423 S    
O36   Cr8   2.046874 S    
C39   C55   1.552240 S    
O16   C8    1.292100 A    
C33   H1    1.080038 S    
H19   C57   1.087459 S    
O15   Cr7   1.925107 S    
C20   C79   1.485848 S    
C11   C55   1.465708 S    
O38   Cr6   1.968935 S    
C34   C98   1.517085 S    
O13   C5    1.292101 A    
