data_mof_unit_60171.cif
_audit_creation_date              2012-12-10T19:04:19-0500
_audit_creation_method            fapswitch 2.2
_symmetry_space_group_name_H-M    P1
_symmetry_Int_Tables_number       1
_space_group_crystal_system       triclinic
_cell_length_a                    10.645294
_cell_length_b                    13.057257
_cell_length_c                    13.622354
_cell_angle_alpha                 85.695973
_cell_angle_beta                  90.08763
_cell_angle_gamma                 93.061808
_cell_volume                      1885.44352053

loop_
_atom_site_label
_atom_site_type_symbol
_atom_type_description
_atom_site_fract_x
_atom_site_fract_y
_atom_site_fract_z
_atom_type_partial_charge
C1    C     C_R   0.498632 0.481188 0.685168 0.895937
C2    C     C_1   0.497511 0.466215 0.788355 -0.195385
C3    C     C_2   0.464117 0.033028 0.473295 -0.243001
C4    C     C_R   0.742787 0.499943 0.500027 0.827770
C5    C     C_2   0.535864 0.966969 0.526710 -0.242895
C6    C     C_1   0.525894 0.854784 0.519421 0.124228
C7    C     C_1   0.474091 0.145214 0.480581 0.125118
C8    C     C_R   0.501367 0.518810 0.314832 0.895951
C9    C     C_R   0.257306 0.500473 0.499992 0.828068
C10   C     C_3   0.923819 0.432414 0.589908 -0.403030
C11   C     C_3   0.068050 0.432905 0.589988 -0.399000
C12   C     C_3   0.121246 0.501308 0.500055 0.178099
C13   C     C_3   0.925128 0.458529 0.403854 -0.402092
C14   C     C_3   0.936131 0.612133 0.506437 -0.386616
C15   C     C_3   0.879074 0.500585 0.500047 0.177528
C16   C     C_3   0.069360 0.459032 0.403795 -0.399868
C17   C     C_3   0.078843 0.612510 0.506434 -0.393785
C18   C     C_1   0.502486 0.533772 0.211645 -0.195408
C19   C     C_2   0.503304 0.544578 0.020433 -0.164389
C20   C     C_2   0.496687 0.455393 0.979567 -0.163860
C21   C     C_1   0.496844 0.457370 0.875801 0.004190
C22   C     C_1   0.503149 0.542606 0.124199 0.004199
H1    H     H_    0.884324 0.351988 0.587193 0.181506
H2    H     H_    0.105086 0.462502 0.659531 0.157824
H3    H     H_    0.097637 0.352635 0.587485 0.182604
H4    H     H_    0.885654 0.378633 0.397383 0.182324
H5    H     H_    0.098974 0.379346 0.397128 0.182469
H6    H     H_    0.904941 0.662976 0.442684 0.179260
H7    H     H_    0.904015 0.644402 0.574968 0.179002
H8    H     H_    0.115390 0.644823 0.574962 0.179576
H9    H     H_    0.116313 0.663389 0.442662 0.178497
H10   H     H_    0.892696 0.506749 0.338789 0.158179
H11   H     H_    0.107346 0.507516 0.338714 0.157602
H12   H     H_    0.491241 0.382088 0.023260 0.158720
H13   H     H_    0.508750 0.617883 0.976740 0.158523
H14   H     H_    0.604487 0.997093 0.577670 0.161519
H15   H     H_    0.395494 0.002903 0.422336 0.161419
H16   H     H_    0.890438 0.461740 0.659428 0.158108
N1    N     N_1   0.479840 0.234530 0.484780 -0.096973
N2    N     N_1   0.520150 0.765470 0.515220 -0.097208
O1    O     O_R   0.492620 0.402510 0.634760 -0.605828
O2    O     O_R   0.505570 0.572960 0.644530 -0.604192
O3    O     O_R   0.678730 0.414780 0.495130 -0.621089
O4    O     O_R   0.691680 0.585220 0.504900 -0.624816
O5    O     O_R   0.494430 0.427040 0.355470 -0.603962
O6    O     O_R   0.507380 0.597490 0.365240 -0.606068
O7    O     O_R   0.308320 0.414780 0.495100 -0.622324
O8    O     O_R   0.321270 0.585220 0.504870 -0.623864
Zn1   Zn    Zn3+2 0.491360 0.386190 0.493470 0.959572
Zn2   Zn    Zn3+2 0.508640 0.613810 0.506530 0.957861

loop_
_geom_bond_atom_site_label_1
_geom_bond_atom_site_label_2
_ccdc_geom_bond_type
C12   C17   S    
C1    O1    A    
C11   C12   S    
C4    O3    A    
C16   H11   S    
O6    Zn2   S    
C13   H10   S    
C19   C20   D    
O5    Zn1   S    
C10   H16   S    
C20   H12   S    
C19   C22   S    
C16   H5    S    
O8    Zn2   S    
C8    O5    A    
O7    Zn1   S    
C19   H13   S    
C17   H8    S    
C14   C17   S    
C2    C21   T    
N2    Zn2   S    
O1    Zn1   S    
C11   H2    S    
N1    Zn1   S    
O2    Zn2   S    
C9    O7    A    
C3    C7    S    
C10   C15   S    
C13   C15   S    
C4    C15   S    
C5    C6    S    
C17   H9    S    
C9    C12   S    
C8    O6    A    
C13   H4    S    
C10   C11   S    
C11   H3    S    
C14   H7    S    
C5    H14   S    
C1    O2    A    
C6    N2    T    
C20   C21   S    
C3    H15   S    
C9    O8    A    
C1    C2    S    
C13   C16   S    
O4    Zn2   S    
C7    N1    T    
C14   C15   S    
O3    Zn1   S    
C10   H1    S    
C4    O4    A    
C14   H6    S    
C18   C22   T    
C8    C18   S    
C12   C16   S    
C3    C5    D    
