data_mof_unit_65748.cif
_audit_creation_date              2012-12-10T17:21:18-0500
_audit_creation_method            fapswitch 2.2
_symmetry_space_group_name_H-M    P1
_symmetry_Int_Tables_number       1
_space_group_crystal_system       triclinic
_cell_length_a                    22.016712
_cell_length_b                    22.016712
_cell_length_c                    29.004564
_cell_angle_alpha                 90.00002
_cell_angle_beta                  90.000027
_cell_angle_gamma                 90.000049
_cell_volume                      14059.5449447

loop_
_atom_site_label
_atom_site_type_symbol
_atom_type_description
_atom_site_fract_x
_atom_site_fract_y
_atom_site_fract_z
_atom_type_partial_charge
Br1   Br    Br    0.716418 0.165299 0.575929 -0.271777
Br2   Br    Br    0.334701 0.216417 0.075929 -0.271776
Br3   Br    Br    0.783582 0.334701 0.075929 -0.271777
Br4   Br    Br    0.665298 0.783582 0.075929 -0.271776
Br5   Br    Br    0.216418 0.334701 0.924071 -0.271776
Br6   Br    Br    0.334701 0.783582 0.924071 -0.271776
Br7   Br    Br    0.783582 0.665298 0.924070 -0.271776
Br8   Br    Br    0.665299 0.216418 0.924071 -0.271777
Br9   Br    Br    0.387117 0.380440 0.426645 -0.392603
Br10  Br    Br    0.619560 0.387118 0.426645 -0.392602
Br11  Br    Br    0.612882 0.619560 0.426645 -0.392603
Br12  Br    Br    0.834701 0.716417 0.575929 -0.271776
Br13  Br    Br    0.380440 0.612882 0.426645 -0.392602
Br14  Br    Br    0.387118 0.619560 0.573355 -0.392603
Br15  Br    Br    0.619560 0.612882 0.573355 -0.392604
Br16  Br    Br    0.612882 0.380440 0.573355 -0.392603
Br17  Br    Br    0.380440 0.387118 0.573355 -0.392604
Br18  Br    Br    0.887117 0.880440 0.926645 -0.392603
Br19  Br    Br    0.119560 0.887118 0.926645 -0.392603
Br20  Br    Br    0.112882 0.119560 0.926645 -0.392603
Br21  Br    Br    0.880440 0.112882 0.926645 -0.392603
Br22  Br    Br    0.887118 0.119560 0.073355 -0.392603
Br23  Br    Br    0.283582 0.834701 0.575929 -0.271777
Br24  Br    Br    0.119560 0.112882 0.073355 -0.392604
Br25  Br    Br    0.112882 0.880440 0.073355 -0.392603
Br26  Br    Br    0.880440 0.887118 0.073355 -0.392603
Br27  Br    Br    0.165298 0.283583 0.575929 -0.271777
Br28  Br    Br    0.716417 0.834702 0.424071 -0.271776
Br29  Br    Br    0.834701 0.283582 0.424071 -0.271777
Br30  Br    Br    0.283583 0.165298 0.424070 -0.271776
Br31  Br    Br    0.165299 0.716418 0.424071 -0.271776
Br32  Br    Br    0.216418 0.665299 0.075929 -0.271777
C1    C     C_R   0.500000 0.119787 0.500000 0.975662
C2    C     C_R   0.718603 0.449980 0.479549 -0.000918
C3    C     C_R   0.187108 0.590136 0.448973 0.345833
C4    C     C_R   0.409863 0.812892 0.551027 0.345832
C5    C     C_R   0.812892 0.590136 0.551027 0.345832
C6    C     C_R   0.590137 0.187108 0.551027 0.345833
C7    C     C_R   0.187108 0.409864 0.551027 0.345831
C8    C     C_R   0.909864 0.687108 0.948972 0.345833
C9    C     C_R   0.312892 0.909863 0.948973 0.345833
C10   C     C_R   0.090136 0.312892 0.948973 0.345834
C11   C     C_R   0.687108 0.090137 0.948973 0.345832
C12   C     C_R   0.909863 0.312892 0.051027 0.345832
C13   C     C_R   0.550020 0.718603 0.479549 -0.000918
C14   C     C_R   0.312892 0.090136 0.051027 0.345833
C15   C     C_R   0.090137 0.687108 0.051027 0.345833
C16   C     C_R   0.687108 0.909864 0.051027 0.345833
C17   C     C_R   0.351005 0.210593 0.447908 0.250951
C18   C     C_R   0.789407 0.351005 0.447908 0.250950
C19   C     C_R   0.648995 0.789407 0.447908 0.250950
C20   C     C_R   0.210593 0.648995 0.447908 0.250950
C21   C     C_R   0.351005 0.789407 0.552091 0.250951
C22   C     C_R   0.789407 0.648995 0.552092 0.250952
C23   C     C_R   0.648995 0.210593 0.552091 0.250950
C24   C     C_R   0.281397 0.550020 0.479549 -0.000919
C25   C     C_R   0.210592 0.351006 0.552092 0.250952
C26   C     C_R   0.851005 0.710593 0.947908 0.250951
C27   C     C_R   0.289407 0.851005 0.947908 0.250950
C28   C     C_R   0.148995 0.289407 0.947908 0.250950
C29   C     C_R   0.710593 0.148995 0.947908 0.250951
C30   C     C_R   0.851005 0.289407 0.052091 0.250951
C31   C     C_R   0.289407 0.148995 0.052092 0.250951
C32   C     C_R   0.148995 0.710593 0.052091 0.250950
C33   C     C_R   0.710593 0.851005 0.052092 0.250950
C34   C     C_R   0.343528 0.272073 0.455624 -0.260667
C35   C     C_R   0.449980 0.718603 0.520450 -0.000918
C36   C     C_R   0.727927 0.343528 0.455624 -0.260667
C37   C     C_R   0.656472 0.727927 0.455624 -0.260667
C38   C     C_R   0.272073 0.656472 0.455624 -0.260667
C39   C     C_R   0.343528 0.727927 0.544375 -0.260667
C40   C     C_R   0.727927 0.656472 0.544375 -0.260667
C41   C     C_R   0.656472 0.272073 0.544375 -0.260667
C42   C     C_R   0.272073 0.343528 0.544375 -0.260667
C43   C     C_R   0.843528 0.772073 0.955624 -0.260667
C44   C     C_R   0.227927 0.843528 0.955624 -0.260667
C45   C     C_R   0.156472 0.227927 0.955625 -0.260667
C46   C     C_R   0.718603 0.550020 0.520450 -0.000918
C47   C     C_R   0.772073 0.156472 0.955624 -0.260667
C48   C     C_R   0.843528 0.227927 0.044375 -0.260666
C49   C     C_R   0.227927 0.156472 0.044376 -0.260666
C50   C     C_R   0.156472 0.772073 0.044375 -0.260667
C51   C     C_R   0.772073 0.843528 0.044375 -0.260667
C52   C     C_R   0.394661 0.308393 0.462710 0.205538
C53   C     C_R   0.691607 0.394662 0.462710 0.205537
C54   C     C_R   0.605338 0.691607 0.462710 0.205537
C55   C     C_R   0.308393 0.605338 0.462710 0.205537
C56   C     C_R   0.394661 0.691607 0.537290 0.205537
C57   C     C_R   0.550020 0.281397 0.520450 -0.000919
C58   C     C_R   0.691607 0.605338 0.537290 0.205537
C59   C     C_R   0.605338 0.308393 0.537290 0.205537
C60   C     C_R   0.308393 0.394661 0.537290 0.205538
C61   C     C_R   0.894662 0.808393 0.962710 0.205538
C62   C     C_R   0.191607 0.894662 0.962710 0.205538
C63   C     C_R   0.105338 0.191607 0.962710 0.205537
C64   C     C_R   0.808393 0.105338 0.962710 0.205537
C65   C     C_R   0.894661 0.191607 0.037290 0.205537
C66   C     C_R   0.191607 0.105338 0.037290 0.205537
C67   C     C_R   0.105338 0.808393 0.037290 0.205537
C68   C     C_R   0.281397 0.449980 0.520450 -0.000917
C69   C     C_R   0.808393 0.894661 0.037290 0.205537
C70   C     C_R   0.949980 0.781397 0.979549 -0.000918
C71   C     C_R   0.218603 0.949980 0.979549 -0.000918
C72   C     C_R   0.050020 0.218603 0.979549 -0.000918
C73   C     C_R   0.880212 0.500000 0.500000 0.975663
C74   C     C_R   0.781397 0.050020 0.979549 -0.000918
C75   C     C_R   0.949980 0.218603 0.020450 -0.000918
C76   C     C_R   0.218603 0.050020 0.020450 -0.000918
C77   C     C_R   0.050020 0.781397 0.020450 -0.000919
C78   C     C_R   0.781397 0.949980 0.020450 -0.000917
C79   C     C_R   0.453691 0.217681 0.476361 -0.129162
C80   C     C_R   0.782319 0.453691 0.476361 -0.129161
C81   C     C_R   0.546309 0.782319 0.476361 -0.129162
C82   C     C_R   0.217681 0.546309 0.476361 -0.129161
C83   C     C_R   0.453691 0.782319 0.523639 -0.129161
C84   C     C_R   0.500000 0.880213 0.500000 0.975662
C85   C     C_R   0.782319 0.546309 0.523639 -0.129161
C86   C     C_R   0.546309 0.217681 0.523639 -0.129161
C87   C     C_R   0.217681 0.453691 0.523639 -0.129163
C88   C     C_R   0.953691 0.717681 0.976361 -0.129162
C89   C     C_R   0.282319 0.953691 0.976361 -0.129161
C90   C     C_R   0.046309 0.282319 0.976361 -0.129159
C91   C     C_R   0.717681 0.046309 0.976361 -0.129161
C92   C     C_R   0.953691 0.282319 0.023639 -0.129162
C93   C     C_R   0.282319 0.046309 0.023639 -0.129161
C94   C     C_R   0.046309 0.717681 0.023639 -0.129161
C95   C     C_R   0.119787 0.500000 0.500000 0.975661
C96   C     C_R   0.717681 0.953691 0.023639 -0.129162
C97   C     C_R   0.500000 0.313293 0.500000 -0.080398
C98   C     C_R   0.686707 0.500000 0.500000 -0.080398
C99   C     C_R   0.500000 0.686707 0.500000 -0.080398
C100  C     C_R   0.313293 0.500000 0.500000 -0.080398
C101  C     C_R   0.000000 0.813293 1.000000 -0.080398
C102  C     C_R   0.186707 0.000000 0.000000 -0.080398
C103  C     C_R   1.000000 0.186707 0.000000 -0.080397
C104  C     C_R   0.813293 1.000000 1.000000 -0.080398
C105  C     C_R   0.500000 0.186074 0.500000 -0.126842
C106  C     C_R   0.000000 0.619787 1.000000 0.975662
C107  C     C_R   0.813925 0.500000 0.500000 -0.126842
C108  C     C_R   0.500000 0.813926 0.500000 -0.126842
C109  C     C_R   0.186074 0.500000 0.500000 -0.126844
C110  C     C_R   0.000000 0.686074 1.000000 -0.126842
C111  C     C_R   0.313926 1.000000 0.000000 -0.126842
C112  C     C_R   1.000000 0.313926 1.000000 -0.126839
C113  C     C_R   0.686074 0.000000 0.000000 -0.126842
C114  C     C_R   0.621302 0.500000 0.500000 0.974419
C115  C     C_R   0.500000 0.621302 0.500000 0.974420
C116  C     C_R   0.378698 0.500000 0.500000 0.974420
C117  C     C_R   0.380213 1.000000 0.000000 0.975663
C118  C     C_R   0.500000 0.378698 0.500000 0.974420
C119  C     C_R   0.121302 0.000000 0.000000 0.974420
C120  C     C_R   1.000000 0.121302 0.000000 0.974420
C121  C     C_R   0.878698 1.000000 1.000000 0.974421
C122  C     C_R   0.000000 0.878698 1.000000 0.974420
C123  C     C_R   0.500000 1.000000 0.414492 1.016595
C124  C     C_R   1.000000 0.500000 0.414492 1.016595
C125  C     C_R   0.500000 1.000000 0.585508 1.016595
C126  C     C_R   0.000000 0.500000 0.585508 1.016594
C127  C     C_R   0.000000 0.500000 0.914492 1.016596
C128  C     C_R   1.000000 0.380212 1.000000 0.975664
C129  C     C_R   0.500000 0.000000 0.914492 1.016595
C130  C     C_R   0.000000 0.500000 0.085508 1.016595
C131  C     C_R   0.500000 1.000000 0.085508 1.016595
C132  C     C_1   0.500000 1.000000 0.363582 0.063389
C133  C     C_1   1.000000 0.500000 0.363582 0.063388
C134  C     C_1   0.500000 0.000000 0.636417 0.063388
C135  C     C_1   0.000000 0.500000 0.636417 0.063390
C136  C     C_1   1.000000 0.500000 0.863582 0.063388
C137  C     C_1   0.500000 1.000000 0.863582 0.063388
C138  C     C_1   0.000000 0.500000 0.136417 0.063388
C139  C     C_R   0.619787 0.000000 0.000000 0.975662
C140  C     C_1   0.500000 0.000000 0.136417 0.063389
C141  C     C_1   0.500000 1.000000 0.321202 0.108185
C142  C     C_1   0.000000 0.500000 0.321202 0.108184
C143  C     C_1   0.500000 0.000000 0.678798 0.108184
C144  C     C_1   0.000000 0.500000 0.678798 0.108185
C145  C     C_1   1.000000 0.500000 0.821202 0.108184
C146  C     C_1   0.500000 1.000000 0.821202 0.108184
C147  C     C_1   0.000000 0.500000 0.178798 0.108184
C148  C     C_1   0.500000 1.000000 0.178798 0.108185
C149  C     C_1   0.500000 0.000000 0.271194 0.094788
C150  C     C_R   0.449980 0.281397 0.479549 -0.000918
C151  C     C_1   0.000000 0.500000 0.271194 0.094788
C152  C     C_1   0.500000 1.000000 0.728806 0.094788
C153  C     C_1   0.000000 0.500000 0.728806 0.094788
C154  C     C_1   1.000000 0.500000 0.771194 0.094788
C155  C     C_1   0.500000 1.000000 0.771194 0.094788
C156  C     C_1   1.000000 0.500000 0.228806 0.094788
C157  C     C_1   0.500000 1.000000 0.228806 0.094788
C158  C     C_R   0.409864 0.187108 0.448972 0.345832
C159  C     C_R   0.812892 0.409863 0.448973 0.345833
C160  C     C_R   0.590136 0.812892 0.448972 0.345833
H1    H     H_    0.300257 0.292615 0.447003 0.217243
H2    H     H_    0.207384 0.800257 0.947003 0.217243
H3    H     H_    0.199743 0.207385 0.947004 0.217243
H4    H     H_    0.792616 0.199743 0.947003 0.217243
H5    H     H_    0.800257 0.207384 0.052996 0.217243
H6    H     H_    0.207385 0.199743 0.052996 0.217243
H7    H     H_    0.199743 0.792616 0.052996 0.217243
H8    H     H_    0.792615 0.800257 0.052996 0.217243
H9    H     H_    0.529591 0.174666 0.396561 0.379400
H10   H     H_    0.825334 0.529590 0.396561 0.379401
H11   H     H_    0.470409 0.825334 0.396561 0.379401
H12   H     H_    0.707384 0.300257 0.447003 0.217243
H13   H     H_    0.174666 0.470409 0.396561 0.379400
H14   H     H_    0.529590 0.825334 0.603439 0.379400
H15   H     H_    0.825334 0.470409 0.603439 0.379400
H16   H     H_    0.470409 0.174666 0.603439 0.379400
H17   H     H_    0.174666 0.529591 0.603438 0.379399
H18   H     H_    0.029591 0.674666 0.896561 0.379400
H19   H     H_    0.325334 0.029591 0.896561 0.379401
H20   H     H_    0.970409 0.325334 0.896558 0.379404
H21   H     H_    0.674666 0.970409 0.896561 0.379400
H22   H     H_    0.029590 0.325334 0.103439 0.379400
H23   H     H_    0.699743 0.707385 0.447004 0.217243
H24   H     H_    0.325334 0.970409 0.103439 0.379401
H25   H     H_    0.970409 0.674666 0.103439 0.379400
H26   H     H_    0.674666 0.029591 0.103439 0.379400
H27   H     H_    0.292616 0.699743 0.447003 0.217243
H28   H     H_    0.300257 0.707384 0.552996 0.217243
H29   H     H_    0.707385 0.699743 0.552996 0.217243
H30   H     H_    0.699743 0.292616 0.552996 0.217243
H31   H     H_    0.292615 0.300257 0.552996 0.217243
H32   H     H_    0.800257 0.792615 0.947003 0.217243
O1    O     O_R   0.551720 0.091610 0.499990 -0.608432
O2    O     O_R   0.408390 0.051720 0.999990 -0.608432
O3    O     O_R   0.948280 0.408390 0.999990 -0.608432
O4    O     O_R   0.591610 0.948280 0.999990 -0.608433
O5    O     O_R   0.051720 0.408390 0.000010 -0.608433
O6    O     O_R   0.408390 0.948280 0.000010 -0.608433
O7    O     O_R   0.948280 0.591610 0.000010 -0.608433
O8    O     O_R   0.591610 0.051720 0.000010 -0.608432
O9    O     O_R   0.551720 0.000010 0.436860 -0.569407
O10   O     O_R   0.999990 0.551720 0.436860 -0.569407
O11   O     O_R   0.448280 0.999990 0.436860 -0.569407
O12   O     O_R   0.908390 0.551720 0.499990 -0.608432
O13   O     O_R   0.000010 0.448280 0.436860 -0.569407
O14   O     O_R   0.551720 0.999990 0.563140 -0.569407
O15   O     O_R   0.999990 0.448280 0.563140 -0.569408
O16   O     O_R   0.448280 0.000010 0.563140 -0.569407
O17   O     O_R   0.000010 0.551720 0.563140 -0.569407
O18   O     O_R   0.051720 0.500010 0.936860 -0.569407
O19   O     O_R   0.499990 0.051720 0.936860 -0.569407
O20   O     O_R   0.948280 0.499990 0.936860 -0.569407
O21   O     O_R   0.500010 0.948280 0.936860 -0.569407
O22   O     O_R   0.051720 0.499990 0.063140 -0.569407
O23   O     O_R   0.448280 0.908390 0.499990 -0.608433
O24   O     O_R   0.499990 0.948280 0.063140 -0.569407
O25   O     O_R   0.948280 0.500010 0.063140 -0.569407
O26   O     O_R   0.500010 0.051720 0.063140 -0.569407
O27   O     O_R   0.591590 0.499990 0.535660 -0.566030
O28   O     O_R   0.500010 0.591590 0.535660 -0.566031
O29   O     O_R   0.408410 0.500010 0.535660 -0.566030
O30   O     O_R   0.499990 0.408410 0.535660 -0.566030
O31   O     O_R   0.591590 0.500010 0.464340 -0.566029
O32   O     O_R   0.500010 0.408410 0.464340 -0.566029
O33   O     O_R   0.408410 0.499990 0.464340 -0.566029
O34   O     O_R   0.091610 0.448280 0.499990 -0.608432
O35   O     O_R   0.499990 0.591590 0.464340 -0.566030
O36   O     O_R   0.091590 0.999990 0.035660 -0.566030
O37   O     O_R   0.000010 0.091590 0.035660 -0.566031
O38   O     O_R   0.908410 0.000010 0.035660 -0.566031
O39   O     O_R   0.999990 0.908410 0.035660 -0.566030
O40   O     O_R   0.091590 0.000010 0.964340 -0.566029
O41   O     O_R   0.000010 0.908410 0.964340 -0.566029
O42   O     O_R   0.908410 0.999990 0.964340 -0.566030
O43   O     O_R   0.999990 0.091590 0.964340 -0.566030
O44   O     O_2   0.398859 0.092799 0.391069 -0.239238
O45   O     O_R   0.551720 0.908390 0.500010 -0.608432
O46   O     O_2   0.422349 0.191366 0.357817 -0.209233
O47   O     O_3   0.509255 0.134739 0.399656 -0.611106
O48   O     O_2   0.907200 0.398859 0.391069 -0.239237
O49   O     O_2   0.808634 0.422348 0.357817 -0.209234
O50   O     O_3   0.865261 0.509255 0.399656 -0.611106
O51   O     O_2   0.601141 0.907201 0.391069 -0.239238
O52   O     O_2   0.577651 0.808634 0.357817 -0.209234
O53   O     O_3   0.490745 0.865261 0.399656 -0.611107
O54   O     O_2   0.092799 0.601141 0.391069 -0.239237
O55   O     O_2   0.191366 0.577652 0.357817 -0.209234
O56   O     O_R   0.908390 0.448280 0.500010 -0.608433
O57   O     O_3   0.134739 0.490745 0.399656 -0.611106
O58   O     O_2   0.398859 0.907200 0.608931 -0.239237
O59   O     O_2   0.422348 0.808634 0.642183 -0.209234
O60   O     O_3   0.509255 0.865261 0.600344 -0.611106
O61   O     O_2   0.907201 0.601141 0.608931 -0.239238
O62   O     O_2   0.808634 0.577651 0.642183 -0.209234
O63   O     O_3   0.865261 0.490745 0.600344 -0.611106
O64   O     O_2   0.601141 0.092800 0.608931 -0.239237
O65   O     O_2   0.577652 0.191366 0.642183 -0.209234
O66   O     O_3   0.490745 0.134739 0.600343 -0.611106
O67   O     O_R   0.448280 0.091610 0.500010 -0.608432
O68   O     O_2   0.092799 0.398859 0.608931 -0.239238
O69   O     O_2   0.191366 0.422349 0.642183 -0.209232
O70   O     O_3   0.134739 0.509255 0.600344 -0.611105
O71   O     O_2   0.898859 0.592799 0.891069 -0.239238
O72   O     O_2   0.922349 0.691366 0.857817 -0.209234
O73   O     O_3   0.009255 0.634739 0.899656 -0.611106
O74   O     O_2   0.407200 0.898859 0.891069 -0.239237
O75   O     O_2   0.308634 0.922348 0.857817 -0.209234
O76   O     O_3   0.365261 0.009255 0.899656 -0.611106
O77   O     O_2   0.101141 0.407201 0.891069 -0.239237
O78   O     O_R   0.091610 0.551720 0.500010 -0.608432
O79   O     O_2   0.077652 0.308634 0.857817 -0.209236
O80   O     O_3   0.990745 0.365261 0.899656 -0.611111
O81   O     O_2   0.592799 0.101141 0.891069 -0.239237
O82   O     O_2   0.691366 0.077652 0.857817 -0.209233
O83   O     O_3   0.634739 0.990745 0.899656 -0.611106
O84   O     O_2   0.898858 0.407201 0.108931 -0.239237
O85   O     O_2   0.922348 0.308634 0.142183 -0.209234
O86   O     O_3   0.009255 0.365261 0.100344 -0.611106
O87   O     O_2   0.407201 0.101141 0.108931 -0.239238
O88   O     O_2   0.308634 0.077651 0.142183 -0.209234
O89   O     O_R   0.051720 0.591610 0.999990 -0.608432
O90   O     O_3   0.365261 0.990745 0.100344 -0.611107
O91   O     O_2   0.101141 0.592800 0.108931 -0.239237
O92   O     O_2   0.077652 0.691366 0.142183 -0.209234
O93   O     O_3   0.990745 0.634739 0.100344 -0.611106
O94   O     O_2   0.592799 0.898859 0.108931 -0.239238
O95   O     O_2   0.691366 0.922349 0.142183 -0.209234
O96   O     O_3   0.634739 0.009255 0.100344 -0.611106
S1    S     S_3+6 0.434473 0.150157 0.398111 0.061618
S2    S     S_3+6 0.349843 0.934473 0.898111 0.061619
S3    S     S_3+6 0.065527 0.349843 0.898111 0.061618
S4    S     S_3+6 0.650157 0.065527 0.898111 0.061619
S5    S     S_3+6 0.934473 0.349843 0.101888 0.061619
S6    S     S_3+6 0.349843 0.065527 0.101889 0.061618
S7    S     S_3+6 0.065527 0.650157 0.101888 0.061619
S8    S     S_3+6 0.650157 0.934473 0.101889 0.061619
S9    S     S_3+6 0.849843 0.434473 0.398111 0.061619
S10   S     S_3+6 0.565527 0.849843 0.398111 0.061618
S11   S     S_3+6 0.150157 0.565527 0.398111 0.061619
S12   S     S_3+6 0.434473 0.849843 0.601888 0.061619
S13   S     S_3+6 0.849844 0.565527 0.601889 0.061618
S14   S     S_3+6 0.565527 0.150157 0.601888 0.061619
S15   S     S_3+6 0.150157 0.434474 0.601889 0.061619
S16   S     S_3+6 0.934473 0.650156 0.898111 0.061618
Zn1   Zn    Zn3+2 0.569070 1.000000 0.500000 1.159333
Zn2   Zn    Zn3+2 0.500000 0.500000 0.452400 1.221699
Zn3   Zn    Zn3+2 0.000000 1.000000 0.047600 1.221698
Zn4   Zn    Zn3+2 0.000000 0.000000 0.952400 1.221699
Zn5   Zn    Zn3+2 0.000000 0.569070 0.500000 1.159333
Zn6   Zn    Zn3+2 0.430930 1.000000 0.500000 1.159333
Zn7   Zn    Zn3+2 0.000000 0.430930 0.500000 1.159333
Zn8   Zn    Zn3+2 0.069070 0.500000 0.000000 1.159333
Zn9   Zn    Zn3+2 0.500000 0.069070 0.000000 1.159333
Zn10  Zn    Zn3+2 0.930930 0.500000 0.000000 1.159333
Zn11  Zn    Zn3+2 0.500000 0.930930 0.000000 1.159333
Zn12  Zn    Zn3+2 0.500000 0.500000 0.547600 1.221698

loop_
_geom_bond_atom_site_label_1
_geom_bond_atom_site_label_2
_ccdc_geom_bond_type
C120  O37   A    
Br10  C53   S    
C117  O2    A    
C72   C103  A    
C98   C114  S    
O25   Zn10  S    
Br31  C20   S    
C34   H1    S    
C12   S5    S    
O69   S15   D    
C11   C29   A    
Br24  C66   S    
C117  O6    A    
O30   Zn12  S    
C1    O1    A    
O37   Zn3   S    
C96   C113  A    
C118  O30   A    
C123  O9    A    
O5    Zn8   S    
O20   Zn10  S    
C66   C76   A    
C42   C60   A    
O84   S5    D    
C44   C62   A    
C6    C23   A    
C91   C113  A    
C1    C105  S    
O77   S3    D    
O72   S16   D    
O63   S13   S    
C9    S2    S    
C16   C33   A    
C112  C128  S    
H14   O60   S    
C85   C107  A    
C75   C92   A    
O79   S3    D    
C126  C135  S    
C115  O28   A    
C8    C26   A    
O7    Zn10  S    
C77   C101  A    
O11   Zn6   S    
O23   Zn6   S    
Br27  C25   S    
C15   C32   A    
C147  C156  S    
O92   S7    D    
C69   C78   A    
O53   S10   S    
C79   C150  A    
C145  C154  S    
C101  C122  S    
O57   S11   S    
C142  C151  S    
C84   O23   A    
C35   C56   A    
C95   O34   A    
O94   S8    D    
C132  C141  T    
H26   O96   S    
C18   C159  A    
C3    S11   S    
Br19  C62   S    
C119  O40   A    
Br30  C17   S    
O88   S6    D    
C87   C109  A    
C84   O45   A    
C21   C39   A    
C127  O20   A    
C79   C105  A    
C15   C94   A    
C4    S12   S    
O32   Zn2   S    
O40   Zn4   S    
O51   S10   D    
O13   Zn7   S    
O68   S15   D    
C68   C100  A    
C124  O13   A    
O89   Zn8   S    
C114  O27   A    
C52   C150  A    
C121  O42   A    
C45   H3    S    
H18   O73   S    
Br14  C56   S    
C47   C64   A    
C151  C156  T    
C80   C159  A    
C104  C121  S    
C48   H5    S    
Br28  C19   S    
O96   S8    S    
O8    Zn9   S    
C129  O19   A    
O87   S6    D    
O41   Zn4   S    
O64   S14   D    
C39   C56   A    
C65   C75   A    
C125  O14   A    
C111  C117  S    
C5    C85   A    
C139  O4    A    
Br16  C59   S    
C19   C37   A    
O82   S4    D    
C78   C96   A    
C7    S15   S    
C48   C65   A    
C36   H12   S    
C2    C80   A    
O31   Zn2   S    
C78   C104  A    
O3    Zn10  S    
C57   C97   A    
C128  O3    A    
O1    Zn1   S    
C30   C48   A    
C148  C157  S    
C72   C90   A    
C102  C119  S    
C103  C120  S    
C95   C109  S    
O4    Zn11  S    
C124  O10   A    
O58   S12   D    
C99   C115  S    
C4    C21   A    
O16   Zn6   S    
C57   C59   A    
C127  O18   A    
C129  C137  S    
C74   C104  A    
C36   C53   A    
C38   C55   A    
Br25  C67   S    
Br23  C21   S    
O60   S12   S    
C17   C34   A    
O48   S9    D    
C82   C109  A    
Br32  C32   S    
H22   O86   S    
C17   C158  A    
C133  C142  T    
C2    C53   A    
C129  O21   A    
C40   C58   A    
C125  O16   A    
Br13  C55   S    
O35   Zn2   S    
Br11  C54   S    
C68   C87   A    
H16   O66   S    
C44   H2    S    
C43   H32   S    
O14   Zn1   S    
C11   C91   A    
Br2   C31   S    
Br3   C30   S    
C81   C160  A    
O38   Zn3   S    
C51   C69   A    
Br5   C28   S    
Br6   C27   S    
C131  O26   A    
C11   S4    S    
C8    S16   S    
C38   H27   S    
C152  C155  T    
C138  C147  T    
O71   S16   D    
C13   C54   A    
C46   C98   A    
C70   C101  A    
C50   H7    S    
O66   S14   S    
C140  C148  T    
C5    S13   S    
C29   C47   A    
C43   C61   A    
C7    C87   A    
C40   H29   S    
O42   Zn4   S    
O21   Zn11  S    
O83   S4    S    
O80   S3    S    
C115  O35   A    
C23   C41   A    
C77   C94   A    
O74   S2    D    
C73   O56   A    
C51   H8    S    
C27   C44   A    
O91   S7    D    
O39   Zn3   S    
C97   C150  A    
O26   Zn9   S    
C114  O31   A    
C50   C67   A    
C14   C93   A    
C116  O33   A    
H21   O83   S    
C122  O41   A    
O85   S5    D    
H19   O76   S    
C95   O78   A    
C144  C153  S    
C46   C58   A    
C10   C90   A    
C134  C143  T    
O6    Zn11  S    
O54   S11   D    
C71   C102  A    
C130  O25   A    
H15   O63   S    
O67   Zn6   S    
O65   S14   D    
C49   C66   A    
C136  C145  T    
C67   C77   A    
O9    Zn1   S    
H9    O47   S    
C75   C103  A    
C149  C157  T    
H10   O50   S    
H17   O70   S    
O17   Zn5   S    
C159  S9    S    
C126  O15   A    
O93   S7    S    
C141  C149  S    
C131  O24   A    
O76   S2    S    
C106  C110  S    
O2    Zn9   S    
O90   S6    S    
O33   Zn2   S    
C12   C92   A    
C76   C102  A    
O18   Zn8   S    
C73   C107  S    
C130  C138  S    
C24   C100  A    
C146  C155  S    
C8    C88   A    
O15   Zn7   S    
C62   C71   A    
C13   C99   A    
C73   O12   A    
C49   H6    S    
C106  O89   A    
C70   C88   A    
C61   C70   A    
O43   Zn4   S    
C14   C31   A    
C153  C154  T    
C10   S3    S    
C124  C133  S    
H11   O53   S    
O75   S2    D    
C42   H31   S    
O46   S1    D    
C94   C110  A    
Br1   C23   S    
O56   Zn7   S    
C39   H28   S    
Br9   C52   S    
C6    C86   A    
O29   Zn12  S    
C13   C81   A    
O61   S13   D    
C83   C108  A    
C79   C158  A    
C3    C20   A    
H25   O93   S    
C128  O5    A    
O22   Zn8   S    
C6    S14   S    
C158  S1    S    
C18   C36   A    
Br12  C22   S    
C143  C152  S    
C7    C25   A    
C113  C139  S    
O81   S4    D    
C89   C111  A    
C37   H23   S    
C90   C112  A    
O73   S16   S    
O36   Zn3   S    
C15   S7    S    
C41   H30   S    
C31   C49   A    
C106  O7    A    
C93   C111  A    
Br26  C69   S    
Br4   C33   S    
C33   C51   A    
C16   C96   A    
O70   S15   S    
O47   S1    S    
O45   Zn1   S    
C127  C136  S    
C3    C82   A    
C9    C89   A    
C160  S10   S    
C35   C83   A    
O62   S13   D    
C74   C91   A    
C76   C93   A    
C86   C105  A    
Br7   C26   S    
Br8   C29   S    
O78   Zn5   S    
H24   O90   S    
C116  O29   A    
Br22  C65   S    
O49   S9    D    
C80   C107  A    
C122  O39   A    
Br17  C60   S    
O24   Zn11  S    
C1    O67   A    
C119  O36   A    
Br29  C18   S    
C120  O43   A    
C28   C45   A    
C14   S6    S    
C100  C116  S    
C46   C85   A    
C88   C110  A    
C41   C59   A    
C10   C28   A    
O19   Zn9   S    
C24   C55   A    
C12   C30   A    
C45   C63   A    
C47   H4    S    
C126  O17   A    
C25   C42   A    
C130  O22   A    
O27   Zn12  S    
O28   Zn12  S    
C131  C140  S    
C118  O32   A    
C123  O11   A    
C81   C108  A    
O52   S10   D    
O34   Zn7   S    
C57   C86   A    
C121  O38   A    
C32   C50   A    
C5    C22   A    
Br20  C63   S    
O50   S9    S    
C26   C43   A    
C137  C146  T    
C63   C72   A    
C60   C68   A    
Br18  C61   S    
O10   Zn5   S    
C64   C74   A    
C139  O8    A    
H13   O57   S    
C35   C99   A    
O55   S11   D    
C125  C134  S    
Br21  C64   S    
C123  C132  S    
O44   S1    D    
O12   Zn5   S    
C97   C118  S    
Br15  C58   S    
O86   S5    S    
C16   S8    S    
C20   C38   A    
C19   C160  A    
C34   C52   A    
C22   C40   A    
O95   S8    D    
C2    C98   A    
C9    C27   A    
C24   C82   A    
C92   C112  A    
H20   O80   S    
C4    C83   A    
C37   C54   A    
O59   S12   D    
C135  C144  T    
C84   C108  S    
C71   C89   A    
