data_mof_unit_6394.cif
_audit_creation_date              2013-03-05T16:12:16-0500
_audit_creation_method            fapswitch 2.2
_symmetry_space_group_name_H-M    P1
_symmetry_Int_Tables_number       1
_space_group_crystal_system       triclinic
_cell_length_a                    10.734746
_cell_length_b                    9.862846
_cell_length_c                    19.10606
_cell_angle_alpha                 90.206931
_cell_angle_beta                  93.736874
_cell_angle_gamma                 88.724639
_cell_volume                      2018.05128352

loop_
_atom_site_label
_atom_site_type_symbol
_atom_site_description
_atom_site_fract_x
_atom_site_fract_y
_atom_site_fract_z
_atom_type_partial_charge
O1    O     O_R   0.316770 0.614620 0.500000 -0.554602
O2    O     O_R   0.683230 0.385380 0.500000 -0.554605
O3    O     O_R   0.683230 0.614620 0.500000 -0.577265
O4    O     O_R   0.316770 0.385380 0.500000 -0.577272
C1    C     C_R   0.260773 0.501612 0.506871 0.975483
C2    C     C_R   0.739225 0.498388 0.493125 0.975477
O5    O     O_R   0.499990 0.614700 0.398140 -0.567550
O6    O     O_R   0.500010 0.385300 0.601860 -0.567563
O7    O     O_R   0.500010 0.614700 0.601860 -0.560317
O8    O     O_R   0.499990 0.385300 0.398140 -0.560326
C3    C     C_R   0.514196 0.499276 0.366183 0.973838
C4    C     C_R   0.485804 0.500723 0.633816 0.973849
Zn1   Zn    Zn3+2 0.500000 0.653120 0.500000 1.145753
Zn2   Zn    Zn3+2 0.500000 0.346880 0.500000 1.145747
C5    C     C_R   0.066594 0.380873 0.519911 0.339475
C6    C     C_R   0.933401 0.619126 0.480073 0.339483
C7    C     C_R   0.941463 0.373951 0.499207 0.360736
C8    C     C_R   0.058532 0.626049 0.500775 0.360729
C9    C     C_R   0.872423 0.495403 0.486274 -0.398851
C10   C     C_R   0.127572 0.504597 0.513713 -0.398850
C11   C     C_R   0.573676 0.069723 0.548889 0.261527
C12   C     C_R   0.426324 0.930278 0.451110 0.261523
C13   C     C_R   0.421673 0.073927 0.453748 0.265922
C14   C     C_R   0.578324 0.926075 0.546252 0.265924
C15   C     C_R   0.561223 0.620572 0.255750 0.319742
C16   C     C_R   0.438734 0.379425 0.744242 0.319738
C17   C     C_R   0.440178 0.626354 0.745083 0.328734
C18   C     C_R   0.559833 0.373637 0.254919 0.328738
C19   C     C_R   0.556348 0.621677 0.182451 0.215744
C20   C     C_R   0.443587 0.378311 0.817541 0.215751
C21   C     C_R   0.443975 0.625902 0.818343 0.215379
C22   C     C_R   0.556018 0.374081 0.181658 0.215376
C23   C     C_R   0.546213 0.498278 0.145694 -0.279357
C24   C     C_R   0.453738 0.501702 0.854302 -0.279359
N1    N     N_R   0.500000 0.857200 0.500000 -0.211344
N2    N     N_R   0.500000 0.142800 0.500000 -0.211348
C25   C     C_R   0.544621 0.497611 0.291672 -0.349425
C26   C     C_R   0.455369 0.502384 0.708327 -0.349424
N3    N     N_R   0.596024 0.424427 0.028686 -0.066939
N4    N     N_R   0.403914 0.575541 0.971310 -0.066938
N5    N     N_R   0.573004 0.424808 0.959618 -0.078672
N6    N     N_R   0.426933 0.575159 0.040378 -0.078671
C27   C     C_R   0.476659 0.500281 0.930041 0.429033
C28   C     C_R   0.523279 0.499686 0.069955 0.429025
Cl1   Cl    Cl    0.140192 0.237275 0.561946 -0.327350
Cl2   Cl    Cl    0.859795 0.762723 0.438040 -0.327354
Cl3   Cl    Cl    0.880249 0.211077 0.480731 -0.303497
Cl4   Cl    Cl    0.119747 0.788927 0.519242 -0.303510
Cl5   Cl    Cl    0.611785 0.768975 0.300502 -0.345235
Cl6   Cl    Cl    0.388164 0.231034 0.699481 -0.345248
Cl7   Cl    Cl    0.406465 0.783006 0.701974 -0.339110
Cl8   Cl    Cl    0.593599 0.216990 0.298037 -0.339093
N7    N     N_R   0.564446 0.747731 0.145458 0.266412
O9    O     O_R   0.640910 0.758744 0.095749 -0.265664
O10   O     O_R   0.494445 0.851608 0.160877 -0.188184
N8    N     N_R   0.435452 0.252258 0.854529 0.266410
O11   O     O_R   0.358972 0.241261 0.904230 -0.265685
O12   O     O_R   0.505439 0.148367 0.839113 -0.188170
N9    N     N_R   0.445053 0.751992 0.856129 0.266434
O13   O     O_R   0.543896 0.786335 0.894582 -0.251637
O14   O     O_R   0.346619 0.831656 0.853052 -0.205190
N10   N     N_R   0.554977 0.247985 0.143878 0.266436
O15   O     O_R   0.456143 0.213596 0.105430 -0.251613
O16   O     O_R   0.653434 0.168358 0.146955 -0.205211
N11   N     N_R   0.635487 0.134849 0.608603 0.265848
O17   O     O_R   0.720392 0.223879 0.600845 -0.281180
O18   O     O_R   0.626608 0.084141 0.670820 -0.226313
N12   N     N_R   0.364517 0.865157 0.391393 0.265861
O19   O     O_R   0.279644 0.776090 0.399146 -0.281194
O20   O     O_R   0.373371 0.915891 0.329180 -0.226289
N13   N     N_R   0.322511 0.144371 0.414018 0.257981
O21   O     O_R   0.344298 0.203038 0.355465 -0.268975
O22   O     O_R   0.207924 0.113215 0.424068 -0.241373
N14   N     N_R   0.677481 0.855629 0.585985 0.258007
O23   O     O_R   0.655704 0.796961 0.644525 -0.268977
O24   O     O_R   0.792070 0.886758 0.575929 -0.241384

loop_
_geom_bond_atom_site_label_1
_geom_bond_atom_site_label_2
_geom_bond_distance
_ccdc_geom_bond_type
O3    C2    1.292779 A    
N3    N5    1.326639 A    
C11   N2    1.378654 A    
N7    O9    1.301487 A    
O5    C3    1.300537 A    
C2    C9    1.443943 S    
N14   O24   1.300888 A    
O1    C1    1.289194 A    
Zn1   N1    2.012810 S    
C16   Cl6   1.770277 S    
Zn2   N2    2.012810 S    
C17   C26   1.419371 A    
C13   N2    1.368776 A    
C19   C23   1.405715 A    
N8    O11   1.301492 A    
C21   N9    1.435597 S    
C3    C25   1.481169 S    
O7    Zn1   1.984026 S    
N10   O16   1.300994 A    
C15   C25   1.416021 A    
N4    C27   1.353771 A    
N12   O19   1.295326 A    
N11   O18   1.301323 A    
O3    Zn1   1.994928 S    
N4    N6    1.326640 A    
N9    O13   1.301125 A    
C4    C26   1.481170 S    
N5    C27   1.354864 A    
O2    C2    1.289195 A    
N6    C28   1.354871 A    
C17   Cl7   1.772556 S    
N7    O10   1.301346 A    
C15   C19   1.398097 A    
C5    C10   1.406509 A    
N9    O14   1.301004 A    
C14   N1    1.368763 A    
N14   O23   1.298165 A    
C20   C24   1.405703 A    
C17   C21   1.397668 A    
C13   N13   1.434443 S    
C18   C22   1.397681 A    
O8    Zn2   1.984026 S    
C6    Cl2   1.775043 S    
C1    C10   1.443946 S    
C16   C26   1.416017 A    
C20   N8    1.439414 S    
N10   O15   1.301122 A    
C12   N1    1.378668 A    
O6    C4    1.300529 A    
C21   C24   1.405172 A    
C12   N12   1.438576 S    
C6    C8    1.378434 A    
C16   C20   1.398099 A    
O1    Zn1   2.011526 S    
C5    Cl1   1.775041 S    
N13   O22   1.300923 A    
C5    C7    1.378430 A    
O6    Zn2   1.981340 S    
C11   N11   1.438571 S    
C23   C28   1.452038 S    
C24   C27   1.452019 S    
C7    Cl3   1.774716 S    
O4    C1    1.292780 A    
C8    Cl4   1.774716 S    
N3    C28   1.353773 A    
C22   C23   1.405203 A    
C22   N10   1.435605 S    
N13   O21   1.298388 A    
C18   Cl8   1.772676 S    
C14   N14   1.434441 S    
C19   N7    1.439423 S    
C18   C25   1.419393 A    
C6    C9    1.406503 A    
C7    C9    1.408529 A    
N8    O12   1.301346 A    
C8    C10   1.408540 A    
O4    Zn2   1.994929 S    
O2    Zn2   2.011525 S    
O7    C4    1.297862 A    
C15   Cl5   1.770279 S    
O8    C3    1.297859 A    
O5    Zn1   1.981340 S    
N12   O20   1.301325 A    
N11   O17   1.295341 A    
C11   C14   1.417379 A    
C12   C13   1.417383 A    
