data_mof_unit_43129.cif
_audit_creation_date              2013-03-05T16:47:32-0500
_audit_creation_method            fapswitch 2.2
_symmetry_space_group_name_H-M    P1
_symmetry_Int_Tables_number       1
_space_group_crystal_system       triclinic
_cell_length_a                    10.949374
_cell_length_b                    10.916803
_cell_length_c                    9.855831
_cell_angle_alpha                 99.908478
_cell_angle_beta                  100.108717
_cell_angle_gamma                 93.757146
_cell_volume                      1136.92108951

loop_
_atom_site_label
_atom_site_type_symbol
_atom_site_description
_atom_site_fract_x
_atom_site_fract_y
_atom_site_fract_z
_atom_type_partial_charge
O1    O     O_R   0.517830 0.337490 0.617920 -0.547506
O2    O     O_R   0.482170 0.662510 0.382080 -0.547427
O3    O     O_R   0.482150 0.301790 0.382070 -0.584763
O4    O     O_R   0.517850 0.698210 0.617930 -0.584993
C1    C     C_R   0.502328 0.261573 0.497457 0.871760
C2    C     C_R   0.497639 0.738418 0.502544 0.871282
O5    O     O_R   0.337480 0.517860 0.617920 -0.552266
O6    O     O_R   0.662520 0.482140 0.382080 -0.552299
O7    O     O_R   0.301810 0.482160 0.382070 -0.580757
O8    O     O_R   0.698190 0.517840 0.617930 -0.580849
C3    C     C_R   0.261619 0.501977 0.497567 0.870375
C4    C     C_R   0.738384 0.498108 0.502449 0.870917
Cu1   Cu    Cu3+1 0.521120 0.521140 0.639640 1.017685
Cu2   Cu    Cu3+1 0.478880 0.478860 0.360360 1.017745
H1    H     H_    0.086998 0.266861 0.848415 0.147018
H2    H     H_    0.912606 0.732105 0.151824 0.147008
C5    C     C_R   0.122103 0.423266 0.020351 -0.183387
C6    C     C_R   0.877644 0.576014 0.979534 -0.183105
H3    H     H_    0.156487 0.486776 0.960047 0.206383
H4    H     H_    0.843093 0.512337 0.039544 0.206620
C7    C     C_R   0.109678 0.467040 0.158455 -0.051864
C8    C     C_R   0.890230 0.532537 0.841430 -0.052041
H5    H     H_    0.130766 0.565690 0.201591 0.207252
H6    H     H_    0.869124 0.433947 0.798014 0.207321
C9    C     C_R   0.067837 0.384573 0.239449 0.136802
C10   C     C_R   0.932176 0.615232 0.760751 0.136559
C11   C     C_R   0.036119 0.257902 0.177485 -0.081602
C12   C     C_R   0.963951 0.741815 0.823087 -0.081598
H7    H     H_    0.002985 0.192002 0.236521 0.149573
H8    H     H_    0.997111 0.807911 0.764307 0.150090
C13   C     C_R   0.037265 0.217745 0.035325 -0.081642
C14   C     C_R   0.962659 0.781670 0.965265 -0.082002
H9    H     H_    0.002177 0.123311 0.984986 0.101809
H10   H     H_    0.997757 0.876037 0.015886 0.102087
C15   C     C_R   0.083158 0.299290 0.957588 -0.131777
C16   C     C_R   0.916592 0.699908 0.042651 -0.132289
C17   C     C_R   0.911851 0.424772 0.392005 0.319089
C18   C     C_R   0.088159 0.575277 0.608138 0.319546
C19   C     C_R   0.873166 0.493773 0.508204 -0.215579
C20   C     C_R   0.126841 0.506340 0.491877 -0.215622
C21   C     C_R   0.962671 0.564105 0.621599 -0.171861
C22   C     C_R   0.037327 0.435978 0.378512 -0.172017
H11   H     H_    0.305083 0.101540 0.843312 0.147820
H12   H     H_    0.694599 0.897854 0.156537 0.147710
C23   C     C_R   0.242428 0.037415 0.016422 -0.085832
C24   C     C_R   0.757329 0.962162 0.983565 -0.086203
H13   H     H_    0.152391 0.999608 0.954795 0.124565
H14   H     H_    0.847396 0.999807 0.045218 0.124429
C25   C     C_R   0.271587 0.031122 0.159025 -0.079693
C26   C     C_R   0.728183 0.968691 0.841027 -0.079427
H15   H     H_    0.200423 0.993055 0.207958 0.151339
H16   H     H_    0.799382 0.006782 0.792161 0.151469
C27   C     C_R   0.394056 0.066371 0.234518 0.126286
C28   C     C_R   0.605709 0.933565 0.765509 0.126266
C29   C     C_R   0.482789 0.114444 0.165158 -0.050899
C30   C     C_R   0.516932 0.885424 0.834766 -0.051027
H17   H     H_    0.578675 0.136784 0.217533 0.211411
H18   H     H_    0.421064 0.863076 0.782310 0.211315
C31   C     C_R   0.448922 0.133742 0.028000 -0.156376
C32   C     C_R   0.550753 0.865971 0.971869 -0.155779
H19   H     H_    0.517219 0.174930 0.978693 0.217446
H20   H     H_    0.482427 0.824717 0.021088 0.217565
C33   C     C_R   0.329385 0.092856 0.952304 -0.161908
C34   C     C_R   0.670311 0.906703 0.047595 -0.162307
C35   C     C_R   0.422819 0.911907 0.392860 0.315494
C36   C     C_R   0.577028 0.088058 0.607190 0.315549
C37   C     C_R   0.492455 0.873424 0.509091 -0.216790
C38   C     C_R   0.507435 0.126552 0.490928 -0.216656
C39   C     C_R   0.563184 0.962967 0.622896 -0.171768
C40   C     C_R   0.436654 0.037002 0.377138 -0.171820
H21   H     H_    0.415659 0.418567 0.861508 0.144853
H22   H     H_    0.584347 0.581427 0.138493 0.144670
N1    N     N_2   0.447120 0.447110 0.150550 -0.274253
N2    N     N_2   0.552880 0.552890 0.849450 -0.274320
C41   C     C_2   0.511268 0.510303 0.080148 0.023162
C42   C     C_2   0.488738 0.489691 0.919852 0.023667
H23   H     H_    0.622075 0.619029 0.907981 0.199608
H24   H     H_    0.377933 0.380961 0.092018 0.199615
N3    N     N_R   0.328055 0.825078 0.298858 0.113153
O9    O     O_R   0.231376 0.784701 0.344541 -0.388482
O10   O     O_R   0.344428 0.775447 0.174536 -0.376703
N4    N     N_R   0.671789 0.174851 0.701231 0.113226
O11   O     O_R   0.655367 0.224548 0.825511 -0.376844
O12   O     O_R   0.768653 0.214972 0.655692 -0.388204
N5    N     N_R   0.824766 0.332316 0.295401 0.116672
O13   O     O_R   0.780729 0.349250 0.169343 -0.376016
O14   O     O_R   0.787867 0.231245 0.335926 -0.397902
N6    N     N_R   0.175290 0.667474 0.705019 0.116882
O15   O     O_R   0.210983 0.769516 0.665539 -0.398649
O16   O     O_R   0.219929 0.649742 0.830596 -0.375986

loop_
_geom_bond_atom_site_label_1
_geom_bond_atom_site_label_2
_geom_bond_distance
_ccdc_geom_bond_type
C36   C38   1.404073 A    
C35   N3    1.436971 S    
C29   C31   1.393398 A    
C11   H7    1.082440 S    
C41   C42   1.530029 S    
H11   C33   1.082464 S    
C19   C21   1.421472 A    
N5    O13   1.300269 A    
H12   C34   1.082470 S    
O5    C3    1.300577 A    
C26   C28   1.408312 A    
N2    C42   1.312639 D    
O1    C1    1.302865 A    
C14   C16   1.393982 A    
C8    H6    1.081248 S    
C17   N5    1.434891 S    
C1    C38   1.469472 S    
H21   C42   1.084991 S    
C36   C39   1.402013 A    
C35   C40   1.402101 A    
O4    Cu1   1.983034 S    
C32   H20   1.075296 S    
C23   H13   1.077665 S    
C17   C22   1.402829 A    
C35   C37   1.403970 A    
N2    H23   1.029404 S    
C26   H16   1.082067 S    
N1    H24   1.029413 S    
C13   H9    1.077824 S    
N5    O14   1.300029 A    
Cu1   Cu2   2.662951 S    
N1    C41   1.312641 D    
O2    C2    1.302853 A    
H22   C41   1.084993 S    
C27   C40   1.496904 S    
H1    C15   1.082403 S    
C24   H14   1.077614 S    
C27   C29   1.405858 A    
C28   C30   1.405857 A    
C31   H19   1.075298 S    
C11   C13   1.396764 A    
Cu2   N1    2.000548 S    
C12   C14   1.396791 A    
C18   C21   1.402858 A    
O4    C2    1.277149 A    
N3    O10   1.299390 A    
C25   H15   1.082080 S    
C23   C33   1.392673 A    
C5    C7    1.396144 A    
C30   C32   1.393397 A    
C18   N6    1.434767 S    
C37   C39   1.425459 A    
C14   H10   1.077875 S    
O7    Cu2   1.989517 S    
C36   N4    1.436919 S    
C23   C25   1.400208 A    
O6    C4    1.300661 A    
N6    O15   1.300217 A    
O7    C3    1.280551 A    
O3    Cu2   1.983034 S    
O8    C4    1.280384 A    
C2    C37   1.469380 S    
N6    O16   1.300269 A    
N4    O12   1.300779 A    
C29   H17   1.077544 S    
C13   C15   1.394007 A    
O1    Cu1   1.976553 S    
C7    C9    1.406850 A    
O6    Cu2   1.981671 S    
C6    C8    1.396070 A    
C31   C33   1.391035 A    
C20   C22   1.421473 A    
O3    C1    1.277194 A    
O8    Cu1   1.989517 S    
C9    C22   1.491854 S    
C9    C11   1.406344 A    
C24   C26   1.400193 A    
C10   C12   1.406375 A    
C32   C34   1.391040 A    
C4    C19   1.471079 S    
C7    H5    1.081315 S    
C17   C19   1.404850 A    
H2    C16   1.082372 S    
C18   C20   1.405024 A    
C28   C39   1.496848 S    
C25   C27   1.408350 A    
C12   H8    1.082340 S    
C5    H3    1.077890 S    
C30   H18   1.077592 S    
C6    H4    1.077841 S    
C3    C20   1.471145 S    
O2    Cu2   1.976553 S    
N3    O9    1.300784 A    
O5    Cu1   1.981672 S    
Cu1   N2    2.000548 S    
C38   C40   1.425610 A    
N4    O11   1.299389 A    
C8    C10   1.406803 A    
C24   C34   1.392681 A    
C5    C15   1.392792 A    
C6    C16   1.392798 A    
C10   C21   1.491860 S    
