data_mof_unit_52532.cif
_audit_creation_date              2012-12-10T16:39:34-0500
_audit_creation_method            fapswitch 2.2
_symmetry_space_group_name_H-M    P1
_symmetry_Int_Tables_number       1
_space_group_crystal_system       triclinic
_cell_length_a                    16.875472
_cell_length_b                    16.696334
_cell_length_c                    16.821418
_cell_angle_alpha                 65.497811
_cell_angle_beta                  65.34306
_cell_angle_gamma                 65.273656
_cell_volume                      3743.17877014

loop_
_atom_site_label
_atom_site_type_symbol
_atom_type_description
_atom_site_fract_x
_atom_site_fract_y
_atom_site_fract_z
_atom_type_partial_charge
C1    C     C_R   0.311753 0.005262 0.434237 -0.003051
C2    C     C_R   0.325037 0.460407 0.950758 0.006950
C3    C     C_R   0.545869 0.412320 0.989029 0.031107
C4    C     C_R   0.028399 0.447987 0.584756 0.034407
C5    C     C_R   0.042827 0.522259 0.398701 0.032740
C6    C     C_R   0.072839 0.667691 0.535543 0.001785
C7    C     C_R   0.959501 0.323170 0.458253 0.004334
C8    C     C_R   0.449827 0.010994 0.444460 -0.028697
C9    C     C_R   0.537036 0.045558 0.533770 -0.026042
C10   C     C_R   0.012133 0.443856 0.449586 -0.027200
C11   C     C_R   0.049343 0.531965 0.536245 -0.026933
C12   C     C_R   0.457409 0.457868 0.979777 -0.026366
C13   C     C_R   0.539944 0.539219 0.030706 -0.030457
C14   C     C_R   0.962021 0.179954 0.438429 0.955849
C15   C     C_R   0.673546 0.059966 0.538006 0.006620
C16   C     C_R   0.041755 0.819901 0.560604 0.982944
C17   C     C_R   0.179996 0.437608 0.962407 0.961746
C18   C     C_R   0.820043 0.561966 0.038836 0.998495
C19   C     C_R   0.437831 0.963009 0.179767 0.911270
C20   C     C_R   0.561448 0.039943 0.820078 0.956232
C21   C     C_R   0.561347 0.820091 0.039968 0.921976
C22   C     C_R   0.438414 0.179958 0.960953 0.957379
C23   C     C_R   0.040065 0.561409 0.820285 0.981525
C24   C     C_R   0.975920 0.431897 0.177657 1.002292
C25   C     C_R   0.820327 0.038965 0.562028 0.976539
C26   C     C_R   0.004976 0.433911 0.311741 -0.002446
C27   C     C_R   0.177357 0.976739 0.431700 0.981937
C28   C     C_R   0.406743 0.990935 0.401310 0.063733
C29   C     C_R   0.582223 0.058410 0.580338 0.053064
C30   C     C_R   0.990622 0.401426 0.406822 0.065947
C31   C     C_R   0.062637 0.578477 0.581402 0.055991
C32   C     C_R   0.414730 0.415551 0.957656 0.049222
C33   C     C_R   0.583371 0.582393 0.050802 0.068055
C34   C     C_R   0.272933 0.971187 0.397154 -0.241306
C35   C     C_R   0.720159 0.066598 0.588560 -0.210887
C36   C     C_R   0.970205 0.397269 0.273152 -0.247816
C37   C     C_R   0.063165 0.536365 0.673133 0.006552
C38   C     C_R   0.068954 0.587529 0.720080 -0.223986
C39   C     C_R   0.412355 0.281009 0.934656 -0.218274
C40   C     C_R   0.587331 0.718835 0.068765 -0.231960
C41   C     C_R   0.587759 0.069226 0.719007 -0.221586
C42   C     C_R   0.410975 0.943895 0.279291 -0.196334
C43   C     C_R   0.719708 0.587898 0.065739 -0.237144
C44   C     C_R   0.280067 0.411574 0.937977 -0.202801
C45   C     C_R   0.072845 0.718106 0.586923 -0.207946
C46   C     C_R   0.942250 0.279960 0.411663 -0.200473
C47   C     C_R   0.440801 0.081209 0.702916 -0.140984
C48   C     C_R   0.460945 0.327239 0.945219 0.008923
C49   C     C_R   0.552735 0.951019 0.288477 -0.190568
C50   C     C_R   0.087261 0.700763 0.439472 -0.136925
C51   C     C_R   0.949242 0.289528 0.553382 -0.199502
C52   C     C_R   0.713055 0.444922 0.053893 -0.199798
C53   C     C_R   0.284994 0.552943 0.955154 -0.162305
C54   C     C_R   0.260989 0.049865 0.504713 -0.212251
C55   C     C_R   0.713745 0.057089 0.445673 -0.150408
C56   C     C_R   0.554359 0.288954 0.942903 -0.143633
C57   C     C_R   0.444024 0.709397 0.065164 -0.167363
C58   C     C_R   0.050833 0.503231 0.260516 -0.195844
C59   C     C_R   0.537757 0.671417 0.061536 0.006053
C60   C     C_R   0.059361 0.443816 0.713711 -0.194659
C61   C     C_R   0.327937 0.928158 0.328799 0.329407
C62   C     C_R   0.671498 0.086781 0.671499 0.362292
C63   C     C_R   0.927394 0.328826 0.328100 0.356811
C64   C     C_R   0.089077 0.670964 0.671547 0.354414
C65   C     C_R   0.330150 0.330195 0.914576 0.361781
C66   C     C_R   0.670372 0.670299 0.087672 0.363634
C67   C     C_R   0.674691 0.030449 0.405874 0.078181
C68   C     C_R   0.304330 0.059930 0.553816 0.102634
C69   C     C_R   0.032502 0.404260 0.674601 0.091499
C70   C     C_R   0.536603 0.067914 0.669473 0.011030
C71   C     C_R   0.062383 0.552065 0.303508 0.106284
C72   C     C_R   0.402884 0.669804 0.040181 0.103484
C73   C     C_R   0.594535 0.327383 0.970269 0.077824
C74   C     C_R   0.593752 0.977518 0.326893 0.086245
C75   C     C_R   0.394341 0.076244 0.653065 0.080970
C76   C     C_R   0.323618 0.591861 0.983748 0.080680
C77   C     C_R   0.673633 0.405056 0.027202 0.096687
C78   C     C_R   0.977222 0.326884 0.594137 0.089524
C79   C     C_R   0.081510 0.650860 0.393006 0.083613
C80   C     C_R   0.723830 0.008681 0.322845 -0.187761
C81   C     C_R   0.457746 0.961080 0.322248 0.022258
C82   C     C_R   0.254094 0.089465 0.632796 -0.194941
C83   C     C_R   0.009572 0.321606 0.724146 -0.195912
C84   C     C_R   0.093263 0.630350 0.252863 -0.190397
C85   C     C_R   0.314571 0.715429 0.030987 -0.188386
C86   C     C_R   0.682474 0.281289 0.980433 -0.189348
C87   C     C_R   0.684726 0.979110 0.285393 -0.186759
C88   C     C_R   0.298928 0.095200 0.683307 -0.182885
C89   C     C_R   0.276152 0.677822 0.000809 -0.210398
C90   C     C_R   0.720794 0.318759 0.010880 -0.190372
C91   C     C_R   0.978879 0.284981 0.685224 -0.207413
C92   C     C_R   0.673513 0.537988 0.056445 0.000838
C93   C     C_R   0.100466 0.680703 0.297445 -0.176749
C94   C     C_R   0.542938 0.004256 0.407218 0.033606
C95   C     C_R   0.443844 0.052811 0.570853 0.030008
C96   C     C_R   0.005450 0.406499 0.542848 0.033791
C97   C     C_R   0.056794 0.569057 0.442858 0.027880
C98   C     C_R   0.410495 0.544322 0.995928 0.036882
C99   C     C_R   0.586613 0.452462 0.015232 0.034701
C100  C     C_R   0.585128 0.025899 0.449430 0.033565
C101  C     C_R   0.399410 0.040233 0.523635 0.034995
C102  C     C_R   0.451285 0.584538 0.021997 0.028847
H1    H     H_    0.258896 0.115360 0.745428 0.161257
H2    H     H_    0.276237 0.781396 0.044655 0.148069
H3    H     H_    0.109044 0.654314 0.179046 0.142436
H4    H     H_    0.012251 0.287177 0.793964 0.145294
H5    H     H_    0.400033 0.100604 0.764998 0.215609
H6    H     H_    0.597067 0.920739 0.233515 0.205340
H7    H     H_    0.107562 0.762684 0.399070 0.212338
H8    H     H_    0.918254 0.235113 0.597739 0.206062
H9    H     H_    0.773190 0.400096 0.075036 0.197653
H10   H     H_    0.225610 0.598709 0.933119 0.211843
H11   H     H_    0.187805 0.078360 0.523354 0.176083
H12   H     H_    0.724724 0.960020 0.222699 0.153920
H13   H     H_    0.773958 0.078017 0.401124 0.206872
H14   H     H_    0.598652 0.230343 0.917734 0.213396
H15   H     H_    0.400569 0.769148 0.088730 0.181385
H16   H     H_    0.079309 0.521035 0.187261 0.169667
H17   H     H_    0.078970 0.399065 0.774670 0.205931
H18   H     H_    0.420648 0.789969 0.210398 0.345841
H19   H     H_    0.749827 0.275267 0.628597 0.379791
H20   H     H_    0.734642 0.395806 0.243568 0.377316
H21   H     H_    0.238064 0.795269 0.642640 0.378594
H22   H     H_    0.251068 0.379742 0.724846 0.379576
H23   H     H_    0.121544 0.742427 0.257152 0.160284
H24   H     H_    0.628753 0.749696 0.274792 0.383385
H25   H     H_    0.958788 0.222693 0.725470 0.151357
H26   H     H_    0.788285 0.281351 0.019374 0.145946
H27   H     H_    0.208588 0.715157 0.992492 0.145685
H28   H     H_    0.180371 0.105443 0.657056 0.145752
H29   H     H_    0.793449 0.011577 0.288541 0.147269
H30   H     H_    0.720801 0.215319 0.966766 0.150072
O1    O     O_R   0.982940 0.138950 0.510160 -0.663090
O2    O     O_R   0.982940 0.510160 0.138950 -0.636976
O3    O     O_R   0.861050 0.017060 0.489840 -0.659807
O4    O     O_R   0.138950 0.982940 0.510160 -0.645146
O5    O     O_R   0.867700 0.025880 0.612340 -0.557699
O6    O     O_R   0.132300 0.974120 0.387660 -0.573461
O7    O     O_R   0.025880 0.612340 0.867700 -0.564850
O8    O     O_R   0.974120 0.387660 0.132300 -0.569480
O9    O     O_R   0.612340 0.867700 0.025880 -0.546826
O10   O     O_R   0.387660 0.132300 0.974120 -0.566355
O11   O     O_R   0.387660 0.974120 0.132300 -0.598477
O12   O     O_R   0.017060 0.861050 0.489840 -0.652525
O13   O     O_R   0.612340 0.025880 0.867700 -0.561788
O14   O     O_R   0.132300 0.387660 0.974120 -0.572779
O15   O     O_R   0.867700 0.612340 0.025880 -0.556893
O16   O     O_R   0.974120 0.132300 0.387660 -0.581083
O17   O     O_R   0.025880 0.867700 0.612340 -0.556150
O18   O     O_2   0.249872 0.791285 0.405762 -0.257875
O19   O     O_2   0.248928 0.883535 0.248723 -0.331973
O20   O     O_3   0.401388 0.763599 0.277508 -0.489853
O21   O     O_2   0.621263 0.213004 0.756823 -0.319746
O22   O     O_2   0.766113 0.091317 0.764738 -0.295187
O23   O     O_R   0.138950 0.510160 0.982940 -0.676162
O24   O     O_3   0.760671 0.220945 0.611070 -0.551849
O25   O     O_2   0.897023 0.246798 0.239160 -0.308669
O26   O     O_2   0.784369 0.264506 0.385649 -0.293700
O27   O     O_3   0.785266 0.410065 0.245100 -0.533610
O28   O     O_2   0.082554 0.768385 0.769359 -0.306545
O29   O     O_2   0.209471 0.626280 0.760438 -0.289419
O30   O     O_3   0.214544 0.768926 0.617078 -0.510838
O31   O     O_2   0.385489 0.252323 0.782200 -0.322069
O32   O     O_2   0.240783 0.237403 0.900294 -0.307735
O33   O     O_3   0.243074 0.396456 0.778330 -0.552360
O34   O     O_R   0.861050 0.489840 0.017060 -0.653303
O35   O     O_2   0.757820 0.620756 0.210693 -0.268262
O36   O     O_2   0.762162 0.767697 0.091079 -0.285997
O37   O     O_3   0.610375 0.759661 0.221866 -0.565530
O38   O     O_R   0.510160 0.982940 0.138950 -0.633403
O39   O     O_R   0.489840 0.017060 0.861050 -0.645831
O40   O     O_R   0.489840 0.861050 0.017060 -0.664260
O41   O     O_R   0.510160 0.138950 0.982940 -0.651808
O42   O     O_R   0.017060 0.489840 0.861050 -0.653701
S1    S     S_3+6 0.303462 0.841198 0.315325 0.057082
S2    S     S_3+6 0.704816 0.153265 0.705015 0.042739
S3    S     S_3+6 0.847464 0.309081 0.299748 0.047977
S4    S     S_3+6 0.149145 0.708430 0.708528 0.059980
S5    S     S_3+6 0.299963 0.300203 0.843376 0.036087
S6    S     S_3+6 0.704160 0.704478 0.153071 0.054173
Zn1   Zn    Zn3+2 0.004880 0.004880 0.583590 1.053323
Zn2   Zn    Zn3+2 0.995120 0.995120 0.416410 1.036298
Zn3   Zn    Zn3+2 0.004880 0.583590 0.004880 1.066379
Zn4   Zn    Zn3+2 0.995120 0.416410 0.995120 1.036976
Zn5   Zn    Zn3+2 0.583590 0.004880 0.004880 1.059376
Zn6   Zn    Zn3+2 0.416410 0.995120 0.995120 1.027898

loop_
_geom_bond_atom_site_label_1
_geom_bond_atom_site_label_2
_ccdc_geom_bond_type
C2    C44   A    
H19   O24   S    
C39   C65   A    
C74   C94   A    
C61   S1    S    
C19   O38   A    
O2    Zn3   S    
C50   C79   A    
C88   H1    S    
C72   C85   A    
C18   O34   A    
C75   C95   A    
C14   C46   S    
C23   O42   A    
C24   O8    A    
O21   S2    D    
O41   Zn5   S    
O8    Zn4   S    
C91   H25   S    
C27   O4    A    
C23   O7    A    
C16   O12   A    
O26   S3    D    
C35   C62   A    
C79   C93   A    
C80   C87   A    
O23   Zn3   S    
C58   C71   A    
C57   C59   A    
O5    Zn1   S    
C76   C98   A    
C54   H11   S    
C14   O16   A    
C58   H16   S    
C89   H27   S    
C60   H17   S    
C2    C32   A    
C49   C81   A    
C87   H12   S    
C6    C31   A    
C3    C12   A    
C4    C96   A    
O20   S1    S    
O40   Zn6   S    
O4    Zn1   S    
C1    C28   A    
H20   O27   S    
C15   C29   A    
C16   O17   A    
C10   C96   A    
C74   C87   A    
C82   H28   S    
C36   C63   A    
C8    C101  A    
C9    C95   A    
O37   S6    S    
C12   C98   A    
C82   C88   A    
C19   C42   S    
C9    C29   A    
C76   C89   A    
O18   S1    D    
C11   C31   A    
C33   C59   A    
C40   C59   A    
C40   C66   A    
C12   C32   A    
O17   Zn1   S    
C32   C48   A    
C44   C65   A    
C42   C81   A    
C41   C62   A    
O27   S3    S    
O6    Zn2   S    
C15   C35   A    
C4    C69   A    
C1    C34   A    
C20   C41   S    
C49   H6    S    
C38   C64   A    
C27   C34   S    
O10   Zn6   S    
O12   Zn2   S    
C77   C90   A    
H18   O20   S    
C27   O6    A    
O19   S1    D    
C6    C45   A    
O15   Zn3   S    
C7    C46   A    
C8    C94   A    
C68   C101  A    
C80   H29   S    
C18   O15   A    
C86   C90   A    
C33   C92   A    
C78   C96   A    
H21   O30   S    
C85   C89   A    
O32   S5    D    
C65   S5    S    
C52   H9    S    
C98   C102  A    
C66   S6    S    
C50   H7    S    
C31   C37   A    
O13   Zn5   S    
C15   C55   A    
C13   C99   A    
C25   O5    A    
C1    C54   A    
C47   C70   A    
C13   C33   A    
C37   C38   A    
C69   C83   A    
C64   S4    S    
C10   C30   A    
C94   C100  A    
C62   S2    S    
C22   O10   A    
C84   H3    S    
C56   H14   S    
O34   Zn4   S    
O25   S3    D    
C6    C50   A    
C4    C11   A    
C26   C58   A    
C42   C61   A    
O28   S4    D    
C85   H2    S    
C67   C100  A    
C25   C35   S    
C53   H10   S    
O1    Zn1   S    
C5    C97   A    
C26   C30   A    
C51   H8    S    
C47   H5    S    
O31   S5    D    
O33   S5    S    
O11   Zn6   S    
C52   C92   A    
C53   C76   A    
O9    Zn5   S    
O42   Zn4   S    
C52   C77   A    
C17   O23   A    
C22   O41   A    
O7    Zn3   S    
C57   H15   S    
C71   C84   A    
C24   O2    A    
C48   C56   A    
C26   C36   A    
O24   S2    S    
O30   S4    S    
C19   O11   A    
C56   C73   A    
O39   Zn6   S    
C28   C81   A    
C49   C74   A    
C79   C97   A    
C67   C80   A    
C47   C75   A    
C2    C53   A    
C16   C45   S    
C55   C67   A    
C14   O1    A    
O14   Zn4   S    
C78   C91   A    
C9    C100  A    
C23   C38   S    
C83   C91   A    
C46   C63   A    
C45   C64   A    
C43   C92   A    
C63   S3    S    
C83   H4    S    
O22   S2    D    
C24   C36   S    
C11   C97   A    
C68   C82   A    
C17   O14   A    
C13   C102  A    
C51   C78   A    
C21   O9    A    
C5    C10   A    
C5    C71   A    
H24   O37   S    
O36   S6    D    
C18   C43   S    
C55   H13   S    
C86   H30   S    
C21   C40   S    
C72   C102  A    
C60   C69   A    
C43   C66   A    
C8    C28   A    
C22   C39   S    
O38   Zn5   S    
C77   C99   A    
C29   C70   A    
C84   C93   A    
C34   C61   A    
C57   C72   A    
C3    C73   A    
C93   H23   S    
C73   C86   A    
C17   C44   S    
C37   C60   A    
C7    C51   A    
H22   O33   S    
C3    C99   A    
C75   C88   A    
C20   O39   A    
C54   C68   A    
O16   Zn2   S    
C25   O3    A    
C7    C30   A    
C90   H26   S    
C20   O13   A    
C41   C70   A    
O35   S6    D    
O3    Zn2   S    
O29   S4    D    
C21   O40   A    
C95   C101  A    
C39   C48   A    
