data_mof_unit_67234.cif
_audit_creation_date              2013-03-05T16:01:26-0500
_audit_creation_method            fapswitch 2.2
_symmetry_space_group_name_H-M    P1
_symmetry_Int_Tables_number       1
_space_group_crystal_system       triclinic
_cell_length_a                    20.097626
_cell_length_b                    20.062242
_cell_length_c                    8.501276
_cell_angle_alpha                 89.988709
_cell_angle_beta                  92.002909
_cell_angle_gamma                 89.976601
_cell_volume                      3425.64916815

loop_
_atom_site_label
_atom_site_type_symbol
_atom_site_description
_atom_site_fract_x
_atom_site_fract_y
_atom_site_fract_z
_atom_type_partial_charge
P1    P     P_3+3 0.136530 0.426510 0.931350 0.483116
P2    P     P_3+3 0.136530 0.573490 0.431350 0.478143
P3    P     P_3+3 0.636530 0.926510 0.931350 0.484548
P4    P     P_3+3 0.636530 0.073490 0.431350 0.473069
O1    O     O_2   0.130070 0.404060 0.104920 -0.353205
O2    O     O_2   0.130070 0.595940 0.604920 -0.353659
O3    O     O_2   0.630070 0.904060 0.104920 -0.353238
O4    O     O_2   0.630070 0.095940 0.604920 -0.358056
O5    O     O_3   0.075780 0.466370 0.861070 -0.391295
O6    O     O_3   0.075780 0.533630 0.361070 -0.391509
O7    O     O_3   0.575780 0.966370 0.861070 -0.392023
O8    O     O_3   0.575780 0.033630 0.361070 -0.388520
O9    O     O_3   0.022320 0.344950 0.359800 -0.359484
O10   O     O_3   0.022320 0.655050 0.859800 -0.373129
O11   O     O_3   0.522320 0.844950 0.359800 -0.357023
O12   O     O_3   0.522320 0.155050 0.859800 -0.366081
O13   O     O_2   0.135754 0.296237 0.254882 -0.295970
O14   O     O_2   0.134339 0.705567 0.755065 -0.319422
O15   O     O_2   0.634930 0.795619 0.251298 -0.287956
O16   O     O_2   0.634705 0.206641 0.759247 -0.347796
O17   O     O_3   0.207732 0.477310 0.936157 -0.602053
O18   O     O_3   0.208814 0.524279 0.434500 -0.604139
O19   O     O_3   0.707645 0.977386 0.935476 -0.601835
O20   O     O_3   0.708777 0.024075 0.435385 -0.601376
O21   O     O_3   0.050284 0.206322 0.333178 -0.497454
O22   O     O_3   0.047246 0.794186 0.831637 -0.517100
O23   O     O_3   0.550697 0.705915 0.336531 -0.487129
O24   O     O_3   0.545502 0.294895 0.834841 -0.529124
H1    H     H_    0.948887 0.218940 0.298105 0.133508
H2    H     H_    0.947822 0.770835 0.791209 0.134254
H3    H     H_    0.449684 0.720730 0.299424 0.139471
H4    H     H_    0.446692 0.265292 0.817146 0.112265
C1    C     C_3   0.971798 0.128929 0.433408 0.007642
C2    C     C_3   0.960007 0.868673 0.899289 -0.000449
C3    C     C_3   0.469964 0.629499 0.432433 0.000162
C4    C     C_3   0.455143 0.368360 0.897459 -0.032772
P5    P     P_3+3 0.863410 0.426100 0.379280 0.468322
P6    P     P_3+3 0.863410 0.573900 0.879280 0.492790
P7    P     P_3+3 0.363410 0.926100 0.379280 0.445922
P8    P     P_3+3 0.363410 0.073900 0.879280 0.448538
P9    P     P_3+3 0.917452 0.282202 0.926517 0.537782
P10   P     P_3+3 0.919025 0.718774 0.426308 0.478709
P11   P     P_3+3 0.418418 0.781080 0.927117 0.497669
P12   P     P_3+3 0.418752 0.218759 0.425084 0.467812
O25   O     O_2   0.869860 0.403670 0.205810 -0.323563
O26   O     O_2   0.869860 0.596330 0.705810 -0.396576
O27   O     O_2   0.369860 0.903670 0.205810 -0.371927
O28   O     O_2   0.369860 0.096330 0.705810 -0.364852
O29   O     O_3   0.977590 0.344880 0.951200 -0.290564
O30   O     O_3   0.977590 0.655120 0.451200 -0.343191
O31   O     O_3   0.477590 0.844880 0.951200 -0.313359
O32   O     O_3   0.477590 0.155120 0.451200 -0.373506
O33   O     O_2   0.865364 0.294990 0.052331 -0.358623
O34   O     O_2   0.867849 0.708010 0.555102 -0.363470
O35   O     O_2   0.367401 0.792711 0.056030 -0.366671
O36   O     O_2   0.368923 0.211208 0.558452 -0.361536
O37   O     O_3   0.788291 0.470231 0.387216 -0.618464
O38   O     O_3   0.792251 0.523339 0.895873 -0.586627
O39   O     O_3   0.288664 0.971143 0.384355 -0.581796
O40   O     O_3   0.288355 0.029515 0.881556 -0.611929
O41   O     O_3   0.952414 0.205524 0.985689 -0.526647
O42   O     O_3   0.957918 0.793471 0.482758 -0.565913
O43   O     O_3   0.454262 0.704551 0.984330 -0.515157
O44   O     O_3   0.457535 0.295227 0.466176 -0.553337
C5    C     C_3   0.988553 0.176980 0.863057 0.371657
C6    C     C_3   0.994095 0.820280 0.358571 0.361756
C7    C     C_3   0.488315 0.675730 0.858915 0.359008
C8    C     C_3   0.512922 0.303739 0.371217 0.328575
H5    H     H_    0.972435 0.195163 0.745041 0.009421
H6    H     H_    0.990996 0.790481 0.248893 0.010216
H7    H     H_    0.468194 0.691492 0.742239 0.021303
H8    H     H_    0.511099 0.271836 0.264665 -0.005522
C9    C     C_3   0.977918 0.101611 0.862941 -0.841915
C10   C     C_3   0.967089 0.890103 0.321707 -0.773750
C11   C     C_3   0.481042 0.599961 0.866017 -0.811579
C12   C     C_3   0.514630 0.376142 0.315100 -0.687520
H9    H     H_    0.996001 0.079359 0.975512 0.265570
H10   H     H_    0.971237 0.922776 0.426153 0.271579
H11   H     H_    0.502681 0.580149 0.977928 0.275466
H12   H     H_    0.522152 0.410599 0.416185 0.310181
H13   H     H_    0.924382 0.089915 0.842649 0.289194
H14   H     H_    0.913992 0.887078 0.282449 0.251446
H15   H     H_    0.427732 0.585885 0.854720 0.282721
H16   H     H_    0.466648 0.389001 0.254349 0.248638
C13   C     C_3   0.765920 0.493901 0.757242 0.198530
C14   C     C_3   0.781828 0.522586 0.279722 0.101889
C15   C     C_3   0.285047 0.975020 0.779516 0.133885
C16   C     C_3   0.284042 0.025037 0.280901 0.110116
H17   H     H_    0.791026 0.510642 0.651175 0.108384
H18   H     H_    0.810826 0.513674 0.173816 0.125631
H19   H     H_    0.315599 0.982259 0.674927 0.111010
H20   H     H_    0.313037 0.016867 0.174124 0.073429
C17   C     C_3   0.690449 0.510907 0.744108 -0.033393
C18   C     C_3   0.706480 0.527794 0.233709 0.147199
C19   C     C_3   0.210778 0.967158 0.725648 0.160735
C20   C     C_3   0.208932 0.033207 0.233523 0.221554
H21   H     H_    0.669562 0.503912 0.861876 0.208086
H22   H     H_    0.679222 0.540569 0.340653 0.141089
H23   H     H_    0.179510 0.966731 0.831346 0.184152
H24   H     H_    0.181562 0.047228 0.339620 0.205093
Ba1   Ba    Ba6+2 0.999980 0.452130 0.155200 1.649312
Ba2   Ba    Ba6+2 0.999980 0.547870 0.655200 1.632532
Ba3   Ba    Ba6+2 0.499980 0.952130 0.155200 1.625346
Ba4   Ba    Ba6+2 0.499980 0.047870 0.655200 1.609412
C21   C     C_3   0.199260 0.535041 0.026447 0.913287
C22   C     C_3   0.202734 0.467376 0.528573 0.845147
C23   C     C_3   0.699774 0.034615 0.027722 0.911845
C24   C     C_3   0.702379 0.966986 0.528652 0.846004
H25   H     H_    0.165234 0.526631 0.124501 -0.106241
H26   H     H_    0.166845 0.474299 0.623561 -0.070085
H27   H     H_    0.665751 0.025997 0.125649 -0.099964
H28   H     H_    0.666374 0.973939 0.623366 -0.070629
C25   C     C_3   0.267130 0.556046 0.097836 0.768021
C26   C     C_3   0.270843 0.451849 0.606234 0.679886
C27   C     C_3   0.767969 0.054427 0.099292 0.767767
C28   C     C_3   0.770366 0.950761 0.606803 0.677499
H29   H     H_    0.258802 0.593354 0.192181 -0.122583
H30   H     H_    0.265280 0.408651 0.686744 -0.020675
H31   H     H_    0.760273 0.091432 0.194622 -0.113420
H32   H     H_    0.764160 0.908270 0.688860 0.000937
O45   O     O_3   0.924190 0.533610 0.949240 -0.346926
O46   O     O_3   0.924190 0.466390 0.449240 -0.392778
O47   O     O_3   0.424190 0.033610 0.949240 -0.396239
O48   O     O_3   0.424190 0.966390 0.449240 -0.396082
P13   P     P_3+3 0.082831 0.717327 0.883053 0.539672
P14   P     P_3+3 0.084340 0.283989 0.382635 0.552659
P15   P     P_3+3 0.582146 0.218090 0.884986 0.505236
P16   P     P_3+3 0.584676 0.784129 0.381975 0.565724
C29   C     C_3   0.985480 0.201697 0.390349 0.171530
C30   C     C_3   0.981006 0.795975 0.880030 0.307832
C31   C     C_3   0.485546 0.702216 0.391838 0.163709
C32   C     C_3   0.480676 0.296334 0.892869 0.281212
H33   H     H_    0.978523 0.232417 0.497343 0.054322
H34   H     H_    0.975088 0.770526 0.994582 0.046176
H35   H     H_    0.479018 0.732552 0.499612 0.057923
H36   H     H_    0.479818 0.276351 0.014339 0.068421
H37   H     H_    0.010970 0.113489 0.521048 0.166092
H38   H     H_    0.997571 0.893271 0.978518 0.162749
H39   H     H_    0.508636 0.612436 0.519587 0.168380
H40   H     H_    0.495136 0.400531 0.951020 0.180646
H41   H     H_    0.006211 0.077755 0.768748 0.252881
H42   H     H_    0.995659 0.914158 0.228702 0.256883
H43   H     H_    0.507719 0.575693 0.769500 0.249889
H44   H     H_    0.555459 0.383327 0.231887 0.227773
C33   C     C_R   0.244585 0.308068 0.998321 -0.018295
C34   C     C_R   0.242878 0.693121 0.500544 -0.063407
C35   C     C_R   0.745369 0.808890 0.998630 -0.009012
C36   C     C_R   0.744440 0.192202 0.497844 -0.066873
C37   C     C_R   0.150340 0.347301 0.821938 0.162987
C38   C     C_R   0.148772 0.653823 0.323790 0.136454
C39   C     C_R   0.650995 0.847741 0.821641 0.174418
C40   C     C_R   0.649922 0.153102 0.321925 0.092302
C41   C     C_R   0.109889 0.335550 0.686463 0.167024
C42   C     C_R   0.108035 0.666029 0.188612 0.149538
C43   C     C_R   0.610806 0.836004 0.685752 0.165465
C44   C     C_R   0.608642 0.165760 0.187969 0.143908
C45   C     C_R   0.126758 0.286193 0.578743 0.135937
C46   C     C_R   0.124773 0.715561 0.080784 0.156204
C47   C     C_R   0.628637 0.787604 0.576497 0.118564
C48   C     C_R   0.624524 0.216090 0.081647 0.189798
C49   C     C_R   0.178084 0.241511 0.616583 -0.347937
C50   C     C_R   0.176003 0.760259 0.119263 -0.248906
C51   C     C_R   0.681429 0.744354 0.612551 -0.308539
C52   C     C_R   0.675975 0.260726 0.119389 -0.333296
C53   C     C_R   0.214811 0.247030 0.759844 0.071593
C54   C     C_R   0.213052 0.754326 0.262178 0.058334
C55   C     C_R   0.717564 0.749432 0.756877 0.075548
C56   C     C_R   0.713839 0.254040 0.260816 0.078477
C57   C     C_R   0.203549 0.301911 0.860815 -0.089640
C58   C     C_R   0.201711 0.699447 0.363158 -0.135108
C59   C     C_R   0.704867 0.803097 0.859995 -0.098921
C60   C     C_R   0.703176 0.198551 0.360651 -0.116612
C61   C     C_R   0.804834 0.705100 0.939195 -0.084524
C62   C     C_R   0.803204 0.296544 0.439813 -0.068165
C63   C     C_R   0.303112 0.203614 0.940194 -0.080505
C64   C     C_R   0.302357 0.796831 0.441479 -0.100993
C65   C     C_R   0.793818 0.760255 0.040003 0.106282
C66   C     C_R   0.792725 0.240888 0.539503 0.055698
C67   C     C_R   0.292743 0.259279 0.039980 0.070225
C68   C     C_R   0.291464 0.741500 0.541838 0.056223
C69   C     C_R   0.853163 0.655358 0.985433 0.205963
C70   C     C_R   0.853178 0.344850 0.484114 0.208250
C71   C     C_R   0.352560 0.154924 0.984990 0.239865
C72   C     C_R   0.352339 0.845089 0.485675 0.231384
C73   C     C_R   0.889813 0.663971 0.127095 -0.462129
C74   C     C_R   0.889455 0.336467 0.626541 -0.406516
C75   C     C_R   0.389279 0.163591 0.126493 -0.507538
C76   C     C_R   0.389125 0.836157 0.627239 -0.483058
C77   C     C_R   0.877195 0.717138 0.228533 0.240787
C78   C     C_R   0.875898 0.283948 0.728677 0.215222
C79   C     C_R   0.376076 0.216243 0.228658 0.241862
C80   C     C_R   0.375554 0.783681 0.729955 0.193568
C81   C     C_R   0.829685 0.765161 0.184664 -0.164749
C82   C     C_R   0.828764 0.235701 0.683955 -0.208804
C83   C     C_R   0.328835 0.264427 0.184370 -0.138805
C84   C     C_R   0.327659 0.736079 0.686102 -0.141808
C85   C     C_R   0.766148 0.701247 0.797909 -0.025374
C86   C     C_R   0.762280 0.302430 0.302056 -0.009691
C87   C     C_R   0.262772 0.198262 0.801537 -0.054952
C88   C     C_R   0.261787 0.802476 0.303043 -0.027378
H45   H     H_    0.188444 0.201882 0.534851 0.220149
H46   H     H_    0.186518 0.799862 0.037552 0.233659
H47   H     H_    0.693047 0.705830 0.529111 0.220930
H48   H     H_    0.686530 0.300596 0.037868 0.196373
H49   H     H_    0.819767 0.805597 0.265040 0.175548
H50   H     H_    0.819276 0.194884 0.763607 0.189754
H51   H     H_    0.319513 0.305338 0.263930 0.186554
H52   H     H_    0.317961 0.695384 0.765908 0.181632
H53   H     H_    0.924694 0.625816 0.165245 0.200294
H54   H     H_    0.924581 0.374390 0.664780 0.211428
H55   H     H_    0.424834 0.125907 0.163783 0.209950
H56   H     H_    0.425148 0.873469 0.663987 0.203828
H57   H     H_    0.238924 0.349992 0.076381 0.191628
H58   H     H_    0.237220 0.651240 0.578672 0.208421
H59   H     H_    0.738967 0.850272 0.077890 0.188314
H60   H     H_    0.738796 0.150249 0.575843 0.208909
H61   H     H_    0.772688 0.660580 0.718023 0.204363
H62   H     H_    0.766525 0.345062 0.225856 0.189944
H63   H     H_    0.267277 0.155887 0.724833 0.201062
H64   H     H_    0.266480 0.844855 0.226380 0.203746
O49   O     O_3   0.680270 0.577755 0.702698 -0.749299
H65   H     H_    0.695746 0.583470 0.594187 0.323877
O50   O     O_3   0.681448 0.466357 0.178593 -0.702834
H66   H     H_    0.710112 0.451222 0.093002 0.337036
O51   O     O_3   0.191256 0.020741 0.628651 -0.724939
H67   H     H_    0.184419 0.059813 0.697708 0.365001
O52   O     O_3   0.181537 0.972524 0.179718 -0.622580
H68   H     H_    0.210544 0.955238 0.097199 0.344010
C89   C     C_2   0.650690 0.466495 0.633095 0.517793
H69   H     H_    0.666631 0.457653 0.514803 0.091658
O53   O     O_2   0.600845 0.438659 0.677862 -0.493691
C90   C     C_2   0.689942 0.581772 0.116788 0.642281
H70   H     H_    0.728651 0.609972 0.062729 -0.006095
O54   O     O_2   0.631899 0.594398 0.082632 -0.525294
C91   C     C_2   0.197047 0.903599 0.637217 0.636943
H71   H     H_    0.214483 0.896959 0.519809 0.082130
O55   O     O_2   0.164858 0.859189 0.696400 -0.545236
C92   C     C_2   0.195690 0.087960 0.115139 0.515199
H72   H     H_    0.214847 0.137657 0.137238 0.031867
O56   O     O_2   0.161284 0.077884 0.996516 -0.567801
O57   O     O_3   0.175500 0.586569 0.929134 -0.780040
H73   H     H_    0.129591 0.574429 0.895342 0.334980
O58   O     O_3   0.183658 0.413462 0.433374 -0.784369
H74   H     H_    0.137892 0.423350 0.393619 0.333614
O59   O     O_3   0.676409 0.086918 0.932195 -0.777475
H75   H     H_    0.630750 0.074829 0.896100 0.337269
O60   O     O_3   0.683104 0.913462 0.432455 -0.784832
H76   H     H_    0.637284 0.923507 0.393346 0.333175
O61   O     O_3   0.299663 0.500238 0.163189 -0.738678
H77   H     H_    0.343551 0.516085 0.204746 0.299116
O62   O     O_3   0.293818 0.507376 0.693013 -0.709582
H78   H     H_    0.333052 0.491979 0.757130 0.348371
O63   O     O_3   0.799772 0.997880 0.163066 -0.746197
H79   H     H_    0.844137 0.012787 0.203677 0.295551
O64   O     O_3   0.794498 0.006309 0.691786 -0.712660
H80   H     H_    0.834789 0.990966 0.752219 0.339590
O65   O     O_3   0.305994 0.584056 0.980519 -0.730828
H81   H     H_    0.335494 0.617631 0.032831 0.297974
O66   O     O_3   0.316397 0.434040 0.491538 -0.729912
H82   H     H_    0.339797 0.475111 0.459549 0.367219
O67   O     O_3   0.807084 0.082376 0.982379 -0.730153
H83   H     H_    0.837025 0.115415 0.035331 0.297126
O68   O     O_3   0.815584 0.931208 0.493007 -0.751611
H84   H     H_    0.838951 0.971784 0.457763 0.350994
O69   O     O_3   0.909584 0.122266 0.502012 -0.760973
H85   H     H_    0.874948 0.135175 0.421457 0.307666
O70   O     O_3   0.897015 0.871482 0.964623 -0.798959
H86   H     H_    0.890072 0.918338 0.997920 0.349594
O71   O     O_3   0.407640 0.624216 0.501048 -0.753333
H87   H     H_    0.373325 0.638023 0.420619 0.306176
O72   O     O_3   0.398746 0.371205 0.989618 -0.796229
H88   H     H_    0.390817 0.418990 0.013019 0.355712
O73   O     O_3   0.053107 0.372247 0.659352 -0.721289
H89   H     H_    0.066216 0.410854 0.594959 0.328246
O74   O     O_3   0.051006 0.629769 0.161873 -0.719508
H90   H     H_    0.064146 0.589736 0.102644 0.330348
O75   O     O_3   0.553303 0.871724 0.660125 -0.718753
H91   H     H_    0.565322 0.910227 0.594129 0.328667
O76   O     O_3   0.551523 0.129595 0.161488 -0.718241
H92   H     H_    0.564665 0.089219 0.103528 0.334646
C93   C     C_2   0.975548 0.084199 0.292645 0.672849
H93   H     H_    0.937315 0.087188 0.200002 -0.060596
O77   O     O_2   0.021250 0.044546 0.281986 -0.559071
C94   C     C_2   0.957897 0.904078 0.744414 0.582696
H94   H     H_    0.919272 0.891807 0.657415 0.092398
O78   O     O_2   0.998705 0.947188 0.716870 -0.575975
C95   C     C_2   0.472150 0.585298 0.290379 0.716339
H95   H     H_    0.436447 0.592724 0.193645 -0.062909
O79   O     O_2   0.513313 0.540725 0.283752 -0.570389
C96   C     C_2   0.436375 0.392515 0.735109 0.653532
H96   H     H_    0.399036 0.365701 0.665386 0.092090
O80   O     O_2   0.460932 0.443164 0.682997 -0.555690
C97   C     C_2   0.061448 0.190876 0.886454 0.576919
H97   H     H_    0.095956 0.170282 0.804276 -0.029957
O81   O     O_2   0.082579 0.224098 0.997333 -0.495476
C98   C     C_2   0.066308 0.822992 0.408880 0.551664
H98   H     H_    0.085623 0.788857 0.498313 0.098065
O82   O     O_2   0.104512 0.860601 0.344267 -0.563941
C99   C     C_2   0.560682 0.693181 0.871132 0.586653
H99   H     H_    0.593776 0.674097 0.784089 0.009971
O83   O     O_2   0.582979 0.727430 0.979114 -0.483109
C100  C     C_2   0.574525 0.285188 0.465653 0.619292
H100  H     H_    0.578465 0.235072 0.511003 0.071789
O84   O     O_2   0.620053 0.324407 0.490964 -0.577893
C101  C     C_2   0.773810 0.419676 0.773509 0.393419
H101  H     H_    0.757851 0.387261 0.677642 0.013205
O85   O     O_2   0.795833 0.395001 0.895624 -0.533382
C102  C     C_2   0.807721 0.584125 0.360397 0.303414
H102  H     H_    0.859313 0.585130 0.401050 0.143795
O86   O     O_2   0.772293 0.632434 0.381981 -0.645566
C103  C     C_2   0.311169 0.916493 0.871299 0.348736
H103  H     H_    0.363775 0.914832 0.902194 0.127190
O87   O     O_2   0.274667 0.872277 0.915601 -0.604579
C104  C     C_2   0.311079 0.084187 0.368857 0.409958
H104  H     H_    0.363674 0.085294 0.400099 0.119932
O88   O     O_2   0.275251 0.129633 0.409803 -0.633776

loop_
_geom_bond_atom_site_label_1
_geom_bond_atom_site_label_2
_geom_bond_distance
_ccdc_geom_bond_type
C15   H19   1.107640 S    
O50   H66   0.991349 S    
P9    O41   1.757090 S    
C22   O58   1.396742 S    
Ba3   O47   2.805070 S    
P11   O43   1.757019 S    
Ba4   O47   2.986099 S    
C67   C83   1.407630 A    
P12   O44   1.750783 S    
C51   H47   1.080135 S    
P6    C69   1.881709 S    
C65   C81   1.407069 A    
C63   C71   1.435086 A    
C94   H94   1.081795 S    
C42   C46   1.400856 A    
C2    C94   1.495177 S    
O14   P13   1.545907 D    
C19   H23   1.114395 S    
O10   Ba2   2.792544 S    
O72   H88   0.993067 S    
C64   C72   1.436017 A    
C37   C41   1.406323 A    
C52   H48   1.084118 S    
C3    H39   1.108888 S    
O12   Ba4   2.792544 S    
C40   C44   1.408298 A    
C1    H37   1.108848 S    
P2    O18   1.755565 S    
C95   O79   1.220608 D    
C39   C43   1.406208 A    
P4    O8    1.561129 S    
O22   C30   1.407498 S    
C23   H27   1.109213 S    
C14   C102  1.497119 S    
O59   H75   0.987715 S    
C86   H62   1.078025 S    
C3    O71   1.404132 S    
C9    H13   1.108921 S    
C78   C82   1.398035 A    
O43   C7    1.410807 S    
C15   C103  1.494543 S    
C92   O56   1.219599 D    
C52   C56   1.406607 A    
C44   O76   1.370256 S    
C14   H18   1.104025 S    
P13   C46   1.854281 S    
C55   C59   1.417224 A    
C104  H104  1.081093 S    
C43   C47   1.399033 A    
P7    O48   1.565070 S    
C74   C78   1.398128 A    
O21   P14   1.747618 S    
C89   H69   1.080720 S    
O23   P16   1.749437 S    
O52   H68   0.990331 S    
C27   O63   1.401562 S    
C6    C98   1.499633 S    
C8    H8    1.108805 S    
O19   C23   1.402541 S    
C33   C67   1.412593 A    
C90   O54   1.218735 D    
C34   C68   1.412688 A    
O4    Ba4   2.833441 S    
C34   H58   1.079446 S    
C11   H43   1.108348 S    
C29   H33   1.111657 S    
C12   H44   1.111389 S    
C98   H98   1.084736 S    
C75   H55   1.079948 S    
C88   H64   1.077344 S    
C3    C95   1.500269 S    
P5    O25   1.551666 D    
P1    Ba1   3.432388 S    
P7    O27   1.551666 D    
P3    Ba3   3.432388 S    
P8    O28   1.551527 D    
Ba1   O46   2.986074 S    
C76   H56   1.080185 S    
C6    H6    1.107627 S    
C26   O62   1.405477 S    
P4    Ba4   3.432608 S    
O2    Ba2   2.833441 S    
P6    O45   1.564434 S    
P3    O7    1.560500 S    
O41   C5    1.412498 S    
C9    H9    1.105713 S    
C41   O73   1.370507 S    
O11   Ba3   2.791734 S    
C104  O88   1.219859 D    
C49   C53   1.406282 A    
P2    C38   1.873382 S    
P8    O40   1.752649 S    
P11   O31   1.754656 S    
C62   C70   1.436760 A    
C18   C90   1.499136 S    
C38   C58   1.434516 A    
O61   H77   0.991155 S    
O49   H65   0.990411 S    
C50   H46   1.081041 S    
C37   C57   1.434024 A    
O44   C8    1.408158 S    
C21   C25   1.532709 S    
C35   H59   1.079831 S    
C4    C32   1.534165 S    
O67   H83   0.992764 S    
C40   C60   1.435805 A    
P2    Ba2   3.432608 S    
C6    C10   1.530472 S    
C39   C59   1.433590 A    
O57   H73   0.987349 S    
H3    C31   1.111189 S    
C13   C17   1.554731 S    
H1    C29   1.111252 S    
C101  O85   1.219092 D    
C15   C19   1.554032 S    
Ba2   O45   2.986099 S    
C27   O67   1.405349 S    
C26   O66   1.406719 S    
P10   O42   1.749874 S    
P7    C72   1.876938 S    
O24   P15   1.753640 S    
P8    C71   1.873887 S    
P12   O32   1.748719 S    
O3    Ba3   2.832771 S    
O75   H91   0.989570 S    
C36   H60   1.079857 S    
C102  O86   1.220095 D    
O51   H67   0.991827 S    
P4    C40   1.872459 S    
C100  O84   1.220455 D    
C81   H49   1.083663 S    
O42   C6    1.409344 S    
C61   C85   1.409950 A    
C2    O70   1.401257 S    
C44   C48   1.399458 A    
C87   H63   1.077224 S    
O16   P15   1.545961 D    
C2    H38   1.109961 S    
C28   H32   1.111220 S    
O24   C32   1.409442 S    
C84   H52   1.083519 S    
C19   O51   1.402205 S    
C97   H97   1.083270 S    
C4    H40   1.115737 S    
C35   C65   1.413864 A    
C32   H36   1.108366 S    
P9    O33   1.543971 D    
C63   C87   1.411249 A    
P10   O30   1.744204 S    
C25   H29   1.114025 S    
P11   O35   1.544426 D    
P11   C80   1.858287 S    
C54   C58   1.419364 A    
C27   H31   1.113901 S    
C103  O87   1.219272 D    
C7    C11   1.528543 S    
C17   H21   1.107985 S    
P14   C45   1.846308 S    
C8    C100  1.498621 S    
C36   C66   1.413511 A    
C7    C99   1.496173 S    
C20   C92   1.506958 S    
C12   H12   1.109250 S    
C68   C84   1.408069 A    
O70   H86   0.992991 S    
C73   C77   1.400417 A    
Ba4   O48   2.806199 S    
C8    C12   1.529577 S    
C76   C80   1.400637 A    
C94   O78   1.220434 D    
C3    C31   1.534015 S    
C43   O75   1.370498 S    
P5    Ba1   3.435321 S    
C11   H11   1.105910 S    
C20   H24   1.108994 S    
C30   H34   1.109568 S    
O12   P15   1.753404 S    
C79   C83   1.397061 A    
P6    O26   1.551527 D    
C77   C81   1.397572 A    
C64   C68   1.421609 A    
P15   C48   1.850014 S    
O64   H80   0.992492 S    
P16   C47   1.848806 S    
C16   C20   1.557266 S    
Ba1   Ba2   4.664810 S    
O74   H90   0.988739 S    
C12   H16   1.108215 S    
O68   H84   0.991488 S    
C9    H41   1.106964 S    
C66   C82   1.407558 A    
C56   C86   1.410744 A    
P1    O1    1.552477 D    
C48   C52   1.397063 A    
C10   H14   1.108589 S    
P3    O3    1.552477 D    
O29   Ba1   2.790622 S    
P4    O20   1.757164 S    
O13   P14   1.544717 D    
C18   H22   1.107775 S    
O31   Ba3   2.790622 S    
O58   H74   0.988780 S    
O15   P16   1.544616 D    
C96   H96   1.083155 S    
C70   C74   1.401431 A    
C21   O57   1.397399 S    
C21   H25   1.109441 S    
C50   C54   1.407606 A    
O5    Ba2   2.804947 S    
C91   H71   1.077608 S    
P1    C37   1.867007 S    
O7    Ba4   2.804947 S    
O20   C24   1.401393 S    
C62   C66   1.421852 A    
C98   O82   1.220793 D    
C61   C69   1.437417 A    
O71   H87   0.993307 S    
C53   C57   1.419185 A    
C25   O65   1.405399 S    
C64   C88   1.412613 A    
C85   H61   1.072613 S    
Ba3   O48   2.986074 S    
O1    Ba1   2.832771 S    
C33   C57   1.412335 A    
O27   Ba3   2.837188 S    
P1    O5    1.560500 S    
O8    Ba3   2.806077 S    
O62   H78   0.991960 S    
C13   H17   1.101038 S    
H2    C30   1.111095 S    
Ba1   O45   2.805070 S    
C24   H28   1.110003 S    
C1    O69   1.404445 S    
O22   P13   1.748463 S    
C99   H99   1.082057 S    
C71   C75   1.400022 A    
P12   O36   1.546202 D    
C95   H95   1.082577 S    
C80   C84   1.397628 A    
P7    O39   1.754583 S    
C16   C104  1.495003 S    
C55   C85   1.408866 A    
O25   Ba1   2.837188 S    
C33   H57   1.079899 S    
O9    P14   1.751821 S    
O30   Ba2   2.789812 S    
O11   P16   1.754174 S    
C74   H54   1.080451 S    
C93   O77   1.220651 D    
C45   C49   1.395376 A    
C1    C29   1.532326 S    
C92   H72   1.083031 S    
O32   Ba4   2.789812 S    
O6    Ba1   2.806077 S    
P7    Ba3   3.435321 S    
C24   C28   1.533108 S    
O76   H92   0.988830 S    
C89   O53   1.219526 D    
C28   O68   1.406038 S    
P10   O34   1.543416 D    
P10   C77   1.853641 S    
C11   H15   1.109014 S    
O63   H79   0.991157 S    
C5    H5    1.105282 S    
P5    C70   1.872475 S    
C90   H70   1.077843 S    
C7    H7    1.104135 S    
C41   C45   1.398528 A    
P5    O46   1.565070 S    
C56   C60   1.420600 A    
C83   H51   1.084056 S    
P6    Ba2   3.435095 S    
C101  H101  1.082624 S    
C10   H10   1.104596 S    
Ba3   Ba4   4.664810 S    
Ba2   O46   2.806199 S    
O17   C21   1.403187 S    
C28   O64   1.405481 S    
C103  H103  1.080942 S    
P1    O17   1.756489 S    
O23   C31   1.408591 S    
P3    O19   1.755981 S    
P4    O4    1.552614 D    
O21   C29   1.409054 S    
C25   O61   1.401249 S    
C4    C96   1.498410 S    
O26   Ba2   2.836517 S    
C24   O60   1.396591 S    
O10   P13   1.750319 S    
P9    C78   1.851806 S    
C22   C26   1.530692 S    
C49   H45   1.080932 S    
O65   H81   0.992482 S    
C31   H35   1.111581 S    
C53   C87   1.409691 A    
P12   C79   1.851099 S    
O28   Ba4   2.836517 S    
C5    C9    1.527180 S    
O37   C14   1.395140 S    
O39   C16   1.394643 S    
C14   C18   1.554209 S    
P9    O29   1.752034 S    
C16   H20   1.107880 S    
O69   H85   0.993515 S    
C75   C79   1.398863 A    
C73   H53   1.079873 S    
C10   H42   1.104336 S    
C91   O55   1.220044 D    
P2    O2    1.552614 D    
C19   C91   1.501163 S    
O40   C15   1.395931 S    
C35   C59   1.413584 A    
C82   H50   1.083701 S    
C1    C93   1.499880 S    
C62   C86   1.412248 A    
C20   O52   1.406282 S    
C69   C73   1.400330 A    
C63   C67   1.422231 A    
C93   H93   1.082564 S    
O18   C22   1.401556 S    
C72   C76   1.401651 A    
C51   C55   1.407493 A    
P8    Ba4   3.435095 S    
C61   C65   1.421722 A    
O73   H89   0.989487 S    
P6    O38   1.763325 S    
C99   O83   1.219578 D    
C23   C27   1.532608 S    
C26   H30   1.112324 S    
C34   C58   1.413174 A    
C18   O50   1.405722 S    
C47   C51   1.396050 A    
O9    Ba1   2.791734 S    
O66   H82   0.991580 S    
P2    O6    1.561129 S    
O38   C13   1.405257 S    
H4    C32   1.112892 S    
C102  H102  1.081617 S    
C13   C101  1.503314 S    
C22   H26   1.110101 S    
C17   C89   1.507080 S    
P8    O47   1.564434 S    
C100  H100  1.078639 S    
C23   O59   1.397748 S    
O60   H76   0.988725 S    
P5    O37   1.753208 S    
P3    C39   1.863014 S    
C97   O81   1.218851 D    
C36   C60   1.412981 A    
C4    O72   1.401368 S    
C96   O80   1.219799 D    
C42   O74   1.370046 S    
C54   C88   1.410784 A    
C46   C50   1.395916 A    
C5    C97   1.497850 S    
C2    C30   1.528568 S    
C38   C42   1.408850 A    
C17   O49   1.399621 S    
