data_mof_unit_31046.cif
_audit_creation_date              2012-12-11T16:30:07-0500
_audit_creation_method            fapswitch 2.2
_symmetry_space_group_name_H-M    P1
_symmetry_Int_Tables_number       1
_space_group_crystal_system       triclinic
_cell_length_a                    8.368925
_cell_length_b                    17.395114
_cell_length_c                    22.949991
_cell_angle_alpha                 96.401364
_cell_angle_beta                  89.913324
_cell_angle_gamma                 95.976154
_cell_volume                      3301.97621466

loop_
_atom_site_label
_atom_site_type_symbol
_atom_type_description
_atom_site_fract_x
_atom_site_fract_y
_atom_site_fract_z
_atom_type_partial_charge
Ba1   Ba    Ba6+2 0.852790 0.535910 0.472200 1.737390
Ba2   Ba    Ba6+2 0.337030 0.464150 0.527810 1.692787
C1    C     C_3   0.746190 0.823205 0.323119 0.390068
C2    C     C_R   0.105391 0.558279 0.937014 -0.193686
C3    C     C_R   0.061383 0.552266 0.876508 0.705767
C4    C     C_3   0.086356 0.700519 0.316218 0.194700
C5    C     C_R   0.987154 0.415268 0.875955 0.608037
C6    C     C_R   0.025134 0.419752 0.936476 -0.051424
C7    C     C_R   0.084965 0.491472 0.967235 -0.136631
C8    C     C_R   0.168121 0.629436 0.968446 0.604432
C9    C     C_R   0.209612 0.633932 0.027964 0.611420
C10   C     C_R   0.188704 0.567558 0.058800 -0.175936
C11   C     C_R   0.124991 0.496188 0.028278 -0.199553
C12   C     C_3   0.673567 0.744191 0.339942 0.214535
C13   C     C_R   0.004439 0.353544 0.966947 -0.091966
C14   C     C_R   0.041259 0.357997 0.026746 0.639753
C15   C     C_R   0.102360 0.429320 0.058490 -0.080717
C16   C     C_3   0.085438 0.724292 0.253932 -0.265803
C17   C     C_R   0.142661 0.435313 0.119225 0.650741
C18   C     C_R   0.230703 0.570900 0.119108 0.640855
C19   C     C_2   0.807500 0.438321 0.766198 -0.027460
C20   C     C_3   0.769633 0.419545 0.701441 -0.084850
C21   C     C_1   0.008739 0.508142 0.682923 0.050010
C22   C     C_2   0.059311 0.510119 0.738512 -0.083533
C23   C     C_3   0.610502 0.291060 0.332297 0.287520
C24   C     C_2   0.952238 0.475865 0.784363 0.233815
C25   C     C_R   0.407442 0.542408 0.230755 -0.046289
C26   C     C_R   0.455400 0.544092 0.289544 0.026224
C27   C     C_R   0.190453 0.483767 0.313666 0.014236
C28   C     C_3   0.248553 0.713449 0.631788 0.245434
C29   C     C_R   0.142206 0.482096 0.254275 -0.061442
C30   C     C_R   0.250912 0.510497 0.211664 0.184086
C31   C     C_2   0.872481 0.468652 0.662806 -0.276987
C32   C     C_R   0.387492 0.724290 0.490517 -0.219851
C33   C     C_R   0.542760 0.747080 0.512008 0.025707
C34   C     C_3   0.589426 0.213852 0.289909 -0.242639
C35   C     C_R   0.602392 0.826100 0.516333 -0.116500
C36   C     C_R   0.507489 0.881132 0.497469 0.033682
C37   C     C_R   0.354581 0.856109 0.472537 -0.101870
C38   C     C_R   0.295209 0.777231 0.468792 0.042928
C39   C     C_R   0.578280 0.165085 0.487580 -0.048612
C40   C     C_3   0.347054 0.753192 0.685844 -0.163445
C41   C     C_R   0.638348 0.243108 0.486553 0.020044
C42   C     C_R   0.875389 0.221880 0.541763 -0.044545
C43   C     C_R   0.818564 0.142684 0.540429 -0.096438
C44   C     C_R   0.669010 0.114176 0.513779 0.036179
C45   C     C_3   0.974236 0.242664 0.676923 0.272434
C46   C     C_1   0.613557 0.031871 0.509198 0.076512
C47   C     C_1   0.566060 0.963140 0.504046 0.100029
C48   C     C_R   0.781900 0.271592 0.516580 -0.269161
C49   C     C_3   0.031540 0.290298 0.393533 0.167700
C50   C     C_3   0.020734 0.204661 0.366837 -0.244910
C51   C     C_3   0.710433 0.632543 0.647850 0.203299
C52   C     C_3   0.758212 0.663126 0.711940 -0.301552
C53   C     C_2   0.461749 0.821932 0.673472 0.561863
C54   C     C_2   0.017026 0.149497 0.412822 0.490080
C55   C     C_2   0.153757 0.190317 0.323537 0.581699
C56   C     C_3   0.009926 0.228530 0.739475 -0.284341
C57   C     C_2   0.654124 0.624429 0.756052 0.499033
C58   C     C_2   0.498074 0.747384 0.349891 0.451331
C59   C     C_2   0.601998 0.357341 0.295840 0.434775
C60   C     C_2   0.700201 0.215345 0.237674 0.387072
C61   C     C_2   0.609071 0.142588 0.319823 0.538990
C62   C     C_2   0.218280 0.787083 0.245532 0.603257
C63   C     C_2   0.408693 0.501512 0.387024 0.617497
C64   C     C_2   0.168187 0.770197 0.599626 0.434505
C65   C     C_3   0.507656 0.259220 0.666551 0.390799
C66   C     C_3   0.466110 0.184971 0.695050 -0.314325
C67   C     C_R   0.348657 0.512036 0.329404 -0.230976
F1    F     F_    0.717455 0.882088 0.366430 -0.687266
F2    F     F_    0.017068 0.291692 0.053145 -0.624069
F3    F     F_    0.269692 0.704296 0.055292 -0.570396
F4    F     F_    0.190829 0.695581 0.941757 -0.578151
H1    H     H_    0.733208 0.734662 0.381292 0.083943
H2    H     H_    0.886924 0.655849 0.720293 0.137151
H3    H     H_    0.746628 0.726942 0.719987 0.138323
H4    H     H_    0.728391 0.297230 0.354699 -0.036625
H5    H     H_    0.465200 0.206729 0.271696 0.119576
H6    H     H_    0.693682 0.834980 0.280971 0.072695
H7    H     H_    0.932365 0.301062 0.677840 0.000958
H8    H     H_    0.878551 0.197142 0.658994 -0.004531
H9    H     H_    0.104823 0.273330 0.759079 0.164627
H10   H     H_    0.899066 0.231448 0.765898 0.126138
H11   H     H_    0.051206 0.169987 0.740063 0.121764
H12   H     H_    0.417098 0.709708 0.702632 0.025560
H13   H     H_    0.640284 0.266605 0.661544 -0.139772
H14   H     H_    0.450484 0.252371 0.622371 0.082585
H15   H     H_    0.509181 0.135043 0.667224 0.076937
H16   H     H_    0.334379 0.173781 0.700196 0.153507
H17   H     H_    0.971460 0.666693 0.324011 0.107901
H18   H     H_    0.525015 0.190256 0.738831 0.126111
H19   H     H_    0.958417 0.297524 0.944493 0.158252
H20   H     H_    0.492869 0.564873 0.199787 0.118613
H21   H     H_    0.178616 0.537229 0.751314 0.115834
H22   H     H_    0.724567 0.414104 0.797433 0.112336
H23   H     H_    0.263817 0.772007 0.721222 0.164880
H24   H     H_    0.022166 0.457213 0.240974 0.126337
H25   H     H_    0.180741 0.661112 0.318671 0.075514
H26   H     H_    0.846900 0.459019 0.616062 0.075570
H27   H     H_    0.463276 0.143793 0.467230 0.126358
H28   H     H_    0.283013 0.897371 0.455777 0.104289
H29   H     H_    0.891315 0.103468 0.559167 0.085005
H30   H     H_    0.719807 0.844844 0.535803 0.106076
H31   H     H_    0.336856 0.664823 0.490817 0.125851
H32   H     H_    0.826046 0.332492 0.517795 0.066042
H33   H     H_    0.096479 0.671961 0.222491 0.131638
H34   H     H_    0.927766 0.300058 0.422145 -0.040788
H35   H     H_    0.969242 0.745467 0.243990 0.081535
H36   H     H_    0.328207 0.681908 0.601153 -0.075739
H37   H     H_    0.542177 0.817872 0.636613 -0.016647
H38   H     H_    0.115867 0.152884 0.443877 0.041700
H39   H     H_    0.193647 0.234361 0.295071 0.093913
H40   H     H_    0.523966 0.617780 0.751342 0.042791
H41   H     H_    0.438130 0.797050 0.340404 0.036353
H42   H     H_    0.709976 0.393898 0.286273 0.056235
H43   H     H_    0.651737 0.196302 0.193726 0.093088
H44   H     H_    0.695990 0.102695 0.303856 0.056564
H45   H     H_    0.141890 0.305581 0.418938 0.085701
H46   H     H_    0.214972 0.844806 0.268617 0.035835
H47   H     H_    0.475189 0.452951 0.392339 -0.024826
H48   H     H_    0.101364 0.748242 0.560085 0.012684
H49   H     H_    0.907075 0.192636 0.341583 0.102662
H50   H     H_    0.815740 0.610950 0.624827 0.042741
H51   H     H_    0.612303 0.584097 0.645687 0.054460
H52   H     H_    0.877493 0.824511 0.318198 0.084608
N1    N     N_R   0.002182 0.481299 0.846370 -0.432973
N2    N     N_R   0.205044 0.505735 0.149374 -0.453641
O1    O     O_2   0.894270 0.458150 0.360790 -0.487406
O2    O     O_2   0.210866 0.227432 0.537204 -0.499880
O3    O     O_3   0.114271 0.238465 0.643683 -0.574867
O4    O     O_3   0.134750 0.458940 0.431830 -0.471589
O5    O     O_3   0.566070 0.591710 0.528970 -0.440277
O6    O     O_2   0.362610 0.313970 0.472520 -0.454952
O7    O     O_3   0.481790 0.292929 0.371976 -0.631675
O8    O     O_2   0.458198 0.474097 0.709169 -0.492149
O9    O     O_3   0.450811 0.322385 0.701456 -0.568124
O10   O     O_2   0.073457 0.610554 0.850925 -0.481711
O11   O     O_2   0.941587 0.351999 0.849413 -0.618659
O12   O     O_3   0.659487 0.694405 0.621133 -0.658930
O13   O     O_2   0.125119 0.377293 0.145054 -0.471078
O14   O     O_2   0.290698 0.632211 0.144764 -0.485103
O15   O     O_3   0.663190 0.596710 0.395570 -0.452262
O16   O     O_2   0.790381 0.544803 0.292037 -0.526544
O17   O     O_3   0.029198 0.335757 0.347322 -0.610937
O18   O     O_3   0.698737 0.684918 0.294488 -0.647566
O19   O     O_2   0.827090 0.686050 0.527520 -0.465121
O20   O     O_3   0.077580 0.635890 0.424230 -0.467662
O21   O     O_2   0.959540 0.772347 0.457484 -0.479108
O22   O     O_2   0.463371 0.883736 0.704740 -0.514878
O23   O     O_3   0.110350 0.766562 0.357975 -0.620946
O24   O     O_2   0.906301 0.097825 0.413627 -0.531978
O25   O     O_2   0.212571 0.128084 0.317628 -0.530467
O26   O     O_2   0.715025 0.602514 0.798902 -0.531702
O27   O     O_2   0.420834 0.693071 0.369204 -0.647886
O28   O     O_2   0.475983 0.365876 0.271943 -0.610824
O29   O     O_2   0.843821 0.236331 0.243986 -0.541377
O30   O     O_2   0.523369 0.126746 0.360900 -0.533169
O31   O     O_2   0.330126 0.774183 0.212916 -0.480752
O32   O     O_2   0.387548 0.549348 0.428446 -0.525179
O33   O     O_2   0.170343 0.839020 0.617850 -0.571123
O34   O     O_2   0.295430 0.541870 0.639250 -0.465437
O35   O     O_3   0.054960 0.541130 0.568170 -0.481803
O36   O     O_3   0.526510 0.403350 0.604440 -0.469435
O37   O     O_3   0.123107 0.664265 0.652283 -0.658397
O38   O     O_3   0.623640 0.408350 0.471030 -0.480019
O39   O     O_3   0.112120 0.364170 0.575770 -0.460313
P1    P     P_3+3 0.063260 0.435680 0.369690 1.024557
P2    P     P_3+3 0.650710 0.674870 0.544690 1.020682
P3    P     P_3+3 0.107866 0.738005 0.428935 1.018756
P4    P     P_3+3 0.126450 0.564380 0.630310 0.996611
P5    P     P_3+3 0.074978 0.262417 0.573482 0.954168
P6    P     P_3+3 0.654295 0.591524 0.317757 0.984145
P7    P     P_3+3 0.537652 0.311964 0.446936 0.951598
P8    P     P_3+3 0.551441 0.407915 0.680299 0.979167

loop_
_geom_bond_atom_site_label_1
_geom_bond_atom_site_label_2
_ccdc_geom_bond_type
C6    C7    A    
C19   C24   D    
O7    P7    S    
C58   H41   S    
C26   C67   A    
Ba1   O1    S    
C28   O37   S    
C63   O32   D    
Ba1   O5    S    
C1    H6    S    
Ba2   O35   S    
C64   O33   D    
C57   O26   D    
C5    C6    A    
C36   C47   S    
C51   C52   S    
C12   O18   S    
C62   H46   S    
C40   H23   S    
C4    H25   S    
C30   N2    S    
C33   C35   A    
C22   C24   S    
O16   P6    D    
C32   C33   A    
C56   H11   S    
C56   H9    S    
C36   C37   A    
C61   H44   S    
C8    F4    S    
O23   P3    S    
Ba1   P1    S    
O38   P7    S    
C13   C14   A    
C55   O25   D    
C49   H45   S    
Ba1   Ba2   S    
C24   N1    S    
C7    C11   A    
Ba1   O15   S    
C13   H19   S    
O37   P4    S    
C26   P6    S    
C14   C15   A    
C21   C31   D    
C3    N1    Am   
C59   H42   S    
O1    P1    D    
Ba2   O5    S    
C39   C44   A    
C53   O22   D    
C34   C61   S    
Ba2   O39   S    
C54   H38   S    
C57   H40   S    
C45   O3    S    
O21   P3    D    
O18   P6    S    
O4    P1    S    
O39   P5    S    
C19   C20   S    
C39   C41   A    
C58   O27   D    
Ba1   O19   S    
C14   F2    S    
C50   H49   S    
C45   H7    S    
C34   C60   S    
C59   O28   D    
Ba2   O34   S    
C38   P3    S    
C20   P8    S    
C37   H28   S    
C27   C67   A    
C52   C57   S    
C4    C16   S    
C44   C46   S    
C64   H48   S    
Ba2   O6    S    
Ba2   O4    S    
O17   P1    S    
C65   C66   S    
O8    P8    D    
C1    F1    S    
C18   N2    Am   
C51   H50   S    
C37   C38   A    
C35   H30   S    
C9    F3    S    
C17   O13   D    
C28   H36   S    
Ba1   P2    S    
C43   C44   A    
C32   H31   S    
C49   C50   S    
C31   H26   S    
C4    O23   S    
C66   H18   S    
C16   H33   S    
C60   H43   S    
C35   C36   A    
C22   H21   S    
C40   C53   S    
C48   H32   S    
C29   C30   A    
O35   P4    S    
Ba1   O38   S    
O3    P5    S    
C21   C22   D    
C10   C18   A    
C33   P2    S    
C39   H27   S    
C40   H12   S    
C23   C59   S    
C54   O24   D    
C23   O7    S    
Ba2   O38   S    
C28   C64   S    
C1    C12   S    
Ba2   P4    S    
C52   H3    S    
O34   P4    D    
C46   C47   T    
Ba1   O35   S    
C6    C13   A    
C8    C9    A    
C53   H37   S    
C66   H15   S    
C23   H4    S    
Ba1   O20   S    
C61   O30   D    
C2    C8    A    
C50   C55   S    
C12   H1    S    
C12   C58   S    
C42   C43   A    
O15   P6    S    
C42   C48   A    
C20   C31   S    
O19   P2    D    
C65   H13   S    
C25   C30   A    
C51   O12   S    
C18   O14   D    
O2    P5    D    
C28   C40   S    
O5    P2    S    
C2    C3    A    
Ba1   O4    S    
C51   H51   S    
Ba2   O36   S    
C5    O11   D    
C9    C10   A    
C1    H52   S    
C41   C48   A    
C3    O10   D    
C29   H24   S    
C19   H22   S    
C65   H14   S    
C11   C15   A    
C27   P1    S    
C65   O9    S    
C42   P5    S    
C27   C29   A    
C4    H17   S    
C56   H10   S    
C45   C56   S    
C41   P7    S    
C16   C62   S    
C21   P4    S    
C63   C67   S    
C17   N2    Am   
C15   C17   A    
C63   H47   S    
C60   O29   D    
C45   H8    S    
C5    N1    Am   
O12   P2    S    
C16   H35   S    
C25   H20   S    
C43   H29   S    
C23   C34   S    
C52   H2    S    
C55   H39   S    
O9    P8    S    
C50   C54   S    
C10   C11   A    
C49   H34   S    
C62   O31   D    
C25   C26   A    
C49   O17   S    
C32   C38   A    
C34   H5    S    
C66   H16   S    
C2    C7    A    
O36   P8    S    
O6    P7    D    
O20   P3    S    
