data_mof_unit_19479.cif
_audit_creation_date              2012-10-26T18:28:21-0400
_audit_creation_method            fapswitch 2.2
_symmetry_space_group_name_H-M    P1
_symmetry_Int_Tables_number       1
_space_group_crystal_system       triclinic
_cell_length_a                    27.760987
_cell_length_b                    11.028116
_cell_length_c                    9.884932
_cell_angle_alpha                 111.112365
_cell_angle_beta                  98.132398
_cell_angle_gamma                 91.813392
_cell_volume                      2783.55753987

loop_
_atom_site_label
_atom_site_type_symbol
_atom_type_description
_atom_site_fract_x
_atom_site_fract_y
_atom_site_fract_z
_atom_type_partial_charge
C1    C     C_R   0.496448 0.254182 0.440615 0.568183
C2    C     C_R   0.869548 0.393438 0.453511 0.034384
C3    C     C_R   0.354581 0.499130 0.504014 -0.001447
C4    C     C_R   0.645531 0.501421 0.497787 -0.002345
C5    C     C_R   0.972142 0.389947 0.488792 0.023825
C6    C     C_R   0.030581 0.623575 0.561535 0.020175
C7    C     C_R   0.980879 0.629271 0.582097 -0.005272
C8    C     C_R   0.023848 0.389269 0.515728 -0.002163
C9    C     C_R   0.950879 0.510743 0.530524 0.026774
C10   C     C_R   0.052557 0.504580 0.536863 0.027316
C11   C     C_R   0.941170 0.274342 0.413752 -0.115013
C12   C     C_R   0.503547 0.745818 0.559386 0.568412
C13   C     C_R   0.058137 0.730687 0.556038 -0.119088
C14   C     C_R   0.890767 0.275914 0.397610 -0.089721
C15   C     C_R   0.107328 0.725951 0.544762 -0.091246
C16   C     C_R   0.407520 0.499755 0.501103 0.561004
C17   C     C_R   0.592489 0.500220 0.499024 0.561122
C18   C     C_R   0.047966 0.279498 0.523562 -0.042693
C19   C     C_R   0.960091 0.747406 0.652393 -0.044682
C20   C     C_2   0.494440 0.114568 0.407309 -0.109215
C21   C     C_2   0.505541 0.885432 0.592695 -0.108997
C22   C     C_2   0.500992 0.069635 0.516315 -0.138129
C23   C     C_R   0.103250 0.501197 0.531520 -0.036407
C24   C     C_2   0.498961 0.930365 0.483693 -0.138002
C25   C     C_2   0.504440 0.510964 0.081022 0.056538
C26   C     C_2   0.495516 0.489152 0.919003 0.055753
C27   C     C_R   0.177177 0.387998 0.511746 0.409144
C28   C     C_R   0.826251 0.626671 0.558684 0.410665
C29   C     C_R   0.180403 0.609522 0.528591 0.412277
C30   C     C_R   0.818840 0.394502 0.444207 0.411948
C31   C     C_R   0.286868 0.518605 0.639058 -0.061121
C32   C     C_R   0.714643 0.491678 0.369671 -0.057174
C33   C     C_R   0.336884 0.519429 0.636110 -0.127359
C34   C     C_R   0.899465 0.512248 0.519459 -0.036374
C35   C     C_R   0.664326 0.488822 0.369090 -0.129082
C36   C     C_R   0.321273 0.477774 0.374778 -0.141581
C37   C     C_R   0.677917 0.516068 0.626687 -0.140529
C38   C     C_R   0.271041 0.476914 0.377491 0.035353
C39   C     C_R   0.728259 0.518602 0.627487 0.032868
C40   C     C_R   0.253794 0.497669 0.510468 0.229021
C41   C     C_R   0.746771 0.506931 0.498511 0.228600
C42   C     C_1   0.457016 0.392073 0.824329 0.254997
C43   C     C_1   0.542860 0.608277 0.175745 0.254932
C44   C     C_1   0.237556 0.454002 0.243366 0.248935
C45   C     C_R   0.126540 0.386430 0.520482 0.001730
C46   C     C_1   0.760576 0.532181 0.760957 0.244201
C47   C     C_1   0.121519 0.161326 0.527643 0.296456
C48   C     C_1   0.889462 0.873498 0.713603 0.297900
C49   C     C_1   0.022584 0.176824 0.553438 0.200685
C50   C     C_1   0.990898 0.863152 0.751665 0.210603
C51   C     C_R   0.877985 0.631535 0.573243 0.000362
C52   C     C_R   0.098753 0.276855 0.522701 -0.021582
C53   C     C_R   0.908951 0.749340 0.644365 -0.025447
C54   C     C_R   0.130516 0.613213 0.535934 0.031517
Cu1   Cu    Cu3+1 0.508480 0.521810 0.644910 0.978692
Cu2   Cu    Cu3+1 0.491520 0.478190 0.355090 0.979550
H1    H     H_    0.334258 0.461611 0.271792 0.140129
H2    H     H_    0.273680 0.534608 0.741596 0.140784
H3    H     H_    0.868472 0.184205 0.341027 0.180611
H4    H     H_    0.127089 0.811189 0.542315 0.195035
H5    H     H_    0.955401 0.181935 0.361166 0.142257
H6    H     H_    0.041593 0.817396 0.553629 0.154865
H7    H     H_    0.491997 0.864220 0.369270 0.166670
H8    H     H_    0.507941 0.135782 0.630739 0.166596
H9    H     H_    0.664122 0.525329 0.726902 0.140935
H10   H     H_    0.512430 0.951918 0.706919 0.110196
H11   H     H_    0.487566 0.048081 0.293085 0.109983
H12   H     H_    0.548598 0.623434 0.930869 0.212193
H13   H     H_    0.451466 0.376380 0.069081 0.212043
H14   H     H_    0.640232 0.477195 0.268186 0.148507
H15   H     H_    0.361632 0.536101 0.737371 0.147496
H16   H     H_    0.728764 0.482281 0.270046 0.145166
N1    N     N_R   0.202469 0.498254 0.516512 -0.400460
N2    N     N_1   0.874213 0.972740 0.769022 -0.209008
N3    N     N_1   0.002545 0.095063 0.577565 -0.272509
N4    N     N_1   0.015287 0.955320 0.831250 -0.242523
N5    N     N_R   0.798468 0.509581 0.498017 -0.399000
N6    N     N_2   0.478780 0.445430 0.137360 -0.369001
N7    N     N_2   0.521220 0.554570 0.862640 -0.369351
N8    N     N_1   0.426060 0.313952 0.749750 -0.302962
N9    N     N_1   0.573744 0.686611 0.250361 -0.306931
N10   N     N_1   0.210653 0.435636 0.135843 -0.251819
N11   N     N_1   0.786541 0.543076 0.867913 -0.257535
N12   N     N_1   0.139428 0.069057 0.531688 -0.228099
O1    O     O_R   0.504520 0.332330 0.577400 -0.486813
O2    O     O_2   0.803473 0.736990 0.604562 -0.459981
O3    O     O_2   0.789996 0.281221 0.383715 -0.475092
O4    O     O_2   0.206851 0.716374 0.533630 -0.468008
O5    O     O_R   0.495480 0.667670 0.422600 -0.486521
O6    O     O_R   0.490210 0.295500 0.332650 -0.492265
O7    O     O_R   0.509790 0.704500 0.667350 -0.492173
O8    O     O_R   0.437420 0.518430 0.622370 -0.488955
O9    O     O_R   0.562580 0.481570 0.377630 -0.487905
O10   O     O_R   0.423110 0.481600 0.377610 -0.499654
O11   O     O_R   0.576890 0.518400 0.622390 -0.500274
O12   O     O_2   0.201210 0.280795 0.497161 -0.455878

loop_
_geom_bond_atom_site_label_1
_geom_bond_atom_site_label_2
_ccdc_geom_bond_type
Cu1   Cu2   S    
C42   N8    T    
C1    O6    A    
C23   C45   A    
C21   H10   S    
C15   H4    S    
C20   H11   S    
C25   C43   S    
H13   N6    S    
C18   C52   A    
C39   C41   A    
C40   N1    S    
Cu2   O10   S    
C14   H3    S    
C34   C51   A    
C31   H2    S    
C5    C11   A    
C44   N10   T    
C41   N5    S    
C28   C51   A    
C29   N1    A    
C29   C54   A    
C3    C33   A    
Cu2   N6    S    
C31   C40   A    
C29   O4    S    
Cu1   O7    S    
C12   O7    A    
C30   N5    A    
C13   H6    S    
C35   H14   S    
C37   H9    S    
C32   C41   A    
C49   N3    T    
C17   O11   A    
C27   C45   A    
H12   N7    S    
Cu2   O6    S    
C19   C53   A    
C4    C35   A    
C27   O12   S    
Cu2   O9    S    
C1    O1    A    
C48   C53   S    
C25   N6    D    
C32   C35   A    
C48   N2    T    
C12   O5    A    
Cu1   O11   S    
C36   H1    S    
C45   C52   A    
C25   C26   S    
C12   C21   S    
C8    C18   A    
C51   C53   A    
Cu1   O1    S    
C15   C54   A    
C38   C44   S    
Cu1   O8    S    
C50   N4    T    
Cu1   N7    S    
C31   C33   A    
C47   N12   T    
C28   N5    A    
C6    C7    A    
C39   C46   S    
C4    C17   S    
Cu2   O5    S    
C20   C22   D    
C16   O8    A    
C24   H7    S    
C7    C19   A    
C13   C15   A    
C28   O2    S    
C9    C34   A    
C43   N9    T    
C22   C24   S    
C17   O9    A    
C26   C42   S    
C23   C54   A    
C7    C9    A    
C1    C20   S    
C5    C9    A    
C11   H5    S    
C6    C10   A    
C5    C8    A    
C47   C52   S    
C10   C23   A    
C16   O10   A    
C26   N7    D    
C2    C30   A    
C36   C38   A    
C37   C39   A    
C6    C13   A    
C38   C40   A    
C19   C50   S    
C2    C34   A    
C3    C36   A    
C11   C14   A    
C2    C14   A    
C33   H15   S    
C22   H8    S    
C46   N11   T    
C4    C37   A    
C8    C10   A    
C21   C24   D    
C30   O3    S    
C27   N1    A    
C3    C16   S    
C18   C49   S    
C32   H16   S    
