data_mof_unit_33489.cif
_audit_creation_date              2013-03-05T15:57:56-0500
_audit_creation_method            fapswitch 2.2
_symmetry_space_group_name_H-M    P1
_symmetry_Int_Tables_number       1
_space_group_crystal_system       triclinic
_cell_length_a                    14.88909
_cell_length_b                    15.128999
_cell_length_c                    17.029207
_cell_angle_alpha                 108.953925
_cell_angle_beta                  106.430591
_cell_angle_gamma                 108.48576
_cell_volume                      3106.17316993

loop_
_atom_site_label
_atom_site_type_symbol
_atom_site_description
_atom_site_fract_x
_atom_site_fract_y
_atom_site_fract_z
_atom_type_partial_charge
C1    C     C_R   0.087106 0.289484 0.078874 -0.074727
C2    C     C_R   0.905900 0.720586 0.963510 -0.119565
H1    H     H_    0.166181 0.312802 0.125583 0.098036
H2    H     H_    0.824874 0.702791 0.928032 0.121755
N1    N     N_R   0.055660 0.348550 0.045620 -0.045672
N2    N     N_R   0.944340 0.651450 0.954380 -0.053986
C3    C     C_R   0.934559 0.508758 0.742675 -0.142138
C4    C     C_R   0.063663 0.549951 0.264017 -0.067719
H3    H     H_    0.855306 0.487071 0.697945 0.121356
H4    H     H_    0.142780 0.599006 0.316814 0.128135
N3    N     N_R   0.960830 0.507850 0.823700 -0.042622
N4    N     N_R   0.039170 0.492150 0.176300 -0.051750
C5    C     C_R   0.776748 0.203411 0.812688 -0.088453
C6    C     C_R   0.278954 0.784671 0.176989 -0.075288
N5    N     N_R   0.811290 0.303410 0.871650 -0.052947
N6    N     N_R   0.188710 0.696590 0.128350 -0.044866
C7    C     C_R   0.257925 0.529442 0.948203 -0.103349
C8    C     C_R   0.696824 0.402266 0.991547 -0.135496
H5    H     H_    0.275754 0.564304 0.905018 0.130074
H6    H     H_    0.670251 0.339849 0.009608 0.095966
N7    N     N_R   0.205200 0.552990 0.997670 -0.051190
N8    N     N_R   0.794800 0.447010 0.002330 -0.042318
C9    C     C_R   0.781197 0.297802 0.735112 -0.093288
C10   C     C_R   0.274039 0.690266 0.253488 -0.142598
H7    H     H_    0.774560 0.322352 0.681982 0.132472
H8    H     H_    0.298111 0.655168 0.296252 0.130839
N9    N     N_R   0.814800 0.361830 0.823700 -0.051667
N10   N     N_R   0.185200 0.638170 0.176300 -0.046046
C11   C     C_R   0.246624 0.433722 0.024025 -0.068115
C12   C     C_R   0.703307 0.499387 0.917903 -0.073738
H9    H     H_    0.245487 0.377157 0.048284 0.118186
H10   H     H_    0.683690 0.530884 0.870914 0.100636
N11   N     N_R   0.201680 0.494570 0.045620 -0.053040
N12   N     N_R   0.798320 0.505430 0.954380 -0.044646
C13   C     C_R   0.108664 0.593154 0.819850 -0.143613
C14   C     C_R   0.888770 0.464365 0.185969 -0.123965
H11   H     H_    0.189267 0.649127 0.845581 0.104204
H12   H     H_    0.805581 0.434703 0.166370 0.106604
N13   N     N_R   0.068420 0.560530 0.871650 -0.040769
N14   N     N_R   0.931580 0.439470 0.128350 -0.051924
C15   C     C_R   0.913682 0.206060 0.002159 -0.060894
C16   C     C_R   0.081597 0.806410 0.042848 -0.102656
N15   N     N_R   0.948070 0.295860 0.997670 -0.043912
N16   N     N_R   0.051930 0.704140 0.002330 -0.057468
C17   C     C_R   0.999304 0.200676 0.052371 0.120885
C18   C     C_R   0.990911 0.817977 0.020226 0.206428
C19   C     C_R   0.026239 0.559884 0.737176 0.090405
C20   C     C_R   0.970208 0.535711 0.272038 0.065384
C21   C     C_R   0.759490 0.197558 0.726181 0.103832
C22   C     C_R   0.335390 0.782793 0.255948 0.108074
C23   C     C_R   0.284098 0.452790 0.962855 0.072848
C24   C     C_R   0.635925 0.431281 0.936776 0.082553
C25   C     C_R   0.994150 0.983201 0.110844 0.497690
C26   C     C_R   0.991285 0.035569 0.966041 0.460790
C27   C     C_R   0.989379 0.914573 0.029152 -0.179010
C28   C     C_R   0.998559 0.104962 0.048080 -0.168053
C29   C     C_R   0.987015 0.939621 0.956267 -0.150440
C30   C     C_R   0.998130 0.079890 0.120507 -0.111473
C31   C     C_R   0.904768 0.126026 0.216712 -0.097015
C32   C     C_R   0.084206 0.876577 0.872780 -0.097064
Ni1   Ni    Ni4+2 0.119340 0.493420 0.109960 0.247419
Ni2   Ni    Ni4+2 0.880660 0.506580 0.890040 0.228906
Ni3   Ni    Ni4+2 0.872590 0.372590 0.000000 0.223349
Ni4   Ni    Ni4+2 0.127410 0.627410 0.000000 0.227621
C33   C     C_R   0.985737 0.295444 0.349650 -0.193728
C34   C     C_R   0.008046 0.802941 0.707065 -0.166812
C35   C     C_R   0.402135 0.335562 0.183074 0.469276
C36   C     C_R   0.525146 0.391271 0.645670 0.427878
C37   C     C_R   0.423453 0.374228 0.122675 -0.439745
C38   C     C_R   0.497912 0.372697 0.712932 -0.371096
C39   C     C_R   0.366994 0.311325 0.026978 -0.135875
C40   C     C_R   0.488345 0.449195 0.779106 -0.093888
C41   C     C_R   0.292293 0.207215 0.992081 0.530288
C42   C     C_R   0.506128 0.545532 0.776692 0.432728
C43   C     C_R   0.271318 0.168896 0.052742 -0.417189
C44   C     C_R   0.532495 0.563324 0.708687 -0.348938
H13   H     H_    0.213378 0.089365 0.026179 0.201605
H14   H     H_    0.547121 0.637589 0.707444 0.239338
C45   C     C_R   0.325528 0.232378 0.147872 0.370281
C46   C     C_R   0.542115 0.486867 0.643328 0.423956
C47   C     C_R   0.476645 0.342981 0.949675 -0.188208
C48   C     C_R   0.375414 0.432772 0.862208 -0.140497
H15   H     H_    0.512734 0.305063 0.982575 0.136176
H16   H     H_    0.331933 0.461223 0.822917 0.157784
C49   C     C_R   0.522183 0.394730 0.906351 0.003548
C50   C     C_R   0.348058 0.408449 0.927757 0.044547
C51   C     C_R   0.463365 0.427163 0.851206 0.160883
C52   C     C_R   0.393302 0.352687 0.964694 0.176959
C53   C     C_R   0.899738 0.197331 0.290016 -0.144450
C54   C     C_R   0.094171 0.843021 0.790536 -0.094166
C55   C     C_R   0.960119 0.575911 0.357639 0.101982
C56   C     C_R   0.033388 0.587646 0.664143 0.096511
C57   C     C_R   0.137726 0.662438 0.595288 -0.141385
C58   C     C_R   0.854745 0.541166 0.438757 -0.073987
C59   C     C_R   0.131685 0.640679 0.667124 -0.175646
C60   C     C_R   0.861335 0.538847 0.358588 -0.155714
C61   C     C_R   0.941237 0.559326 0.589738 -0.233996
C62   C     C_R   0.051125 0.632586 0.440338 -0.185600
C63   C     C_R   0.946695 0.577983 0.516580 0.114287
C64   C     C_R   0.045641 0.627974 0.518616 0.138061
H17   H     H_    0.789305 0.499907 0.296518 0.140946
H18   H     H_    0.204176 0.663690 0.723554 0.146731
H19   H     H_    0.214082 0.700624 0.597355 0.165538
H20   H     H_    0.778247 0.505672 0.437401 0.201659
C65   C     C_R   0.718807 0.102523 0.640189 0.034084
C66   C     C_R   0.444064 0.857580 0.323326 0.018989
C67   C     C_R   0.588378 0.031224 0.393652 0.515678
C68   C     C_R   0.619091 0.913860 0.555667 0.506873
C69   C     C_R   0.496196 0.950071 0.319368 -0.211340
C70   C     C_R   0.686335 0.003888 0.638359 -0.215667
C71   C     C_R   0.492510 0.841355 0.397138 -0.150246
C72   C     C_R   0.699119 0.109198 0.557485 -0.126977
C73   C     C_R   0.581411 0.923500 0.474564 -0.040236
C74   C     C_R   0.626424 0.021271 0.474470 -0.029160
H21   H     H_    0.980954 0.350717 0.405700 0.169218
H22   H     H_    0.017721 0.782831 0.644119 0.159731
C75   C     C_R   0.077439 0.322090 0.336625 0.513380
C76   C     C_R   0.909907 0.789165 0.704917 0.542359
C77   C     C_R   0.082913 0.250624 0.263649 -0.175411
C78   C     C_R   0.899686 0.823127 0.787239 -0.192658
C79   C     C_R   0.996319 0.152299 0.202816 0.139993
C80   C     C_R   0.988122 0.871503 0.871791 0.127597
H23   H     H_    0.836819 0.051124 0.169853 0.152684
H24   H     H_    0.153012 0.912899 0.937150 0.117827
Cl1   Cl    Cl    0.297159 0.179827 0.221086 -0.529078
Cl2   Cl    Cl    0.576767 0.513335 0.560039 -0.381766
Cl3   Cl    Cl    0.472481 0.417883 0.302236 -0.433356
Cl4   Cl    Cl    0.538823 0.293981 0.566040 -0.520474
H25   H     H_    0.482957 0.453708 0.149999 0.215442
H26   H     H_    0.485288 0.298752 0.714362 0.209659
Cl5   Cl    Cl    0.227219 0.122732 0.873105 -0.580949
Cl6   Cl    Cl    0.504095 0.648544 0.861322 -0.668211
H27   H     H_    0.127597 0.668147 0.442101 0.138471
H28   H     H_    0.864659 0.519275 0.585958 0.164837
H29   H     H_    0.828735 0.176915 0.300051 0.191155
H30   H     H_    0.169673 0.851916 0.791782 0.152650
H31   H     H_    0.730703 0.184501 0.558525 0.182833
H32   H     H_    0.455424 0.768451 0.398539 0.186805
H33   H     H_    0.706696 0.996251 0.701169 0.171401
H34   H     H_    0.462987 0.962701 0.261209 0.168885
Cl7   Cl    Cl    0.645766 0.147604 0.385624 -0.608136
Cl8   Cl    Cl    0.574359 0.793145 0.559580 -0.524346
Cl9   Cl    Cl    0.185014 0.445614 0.411014 -0.610376
Cl10  Cl    Cl    0.801815 0.736712 0.599504 -0.516688
H35   H     H_    0.153851 0.272200 0.253645 0.194660
H36   H     H_    0.825345 0.819593 0.785718 0.173594
H37   H     H_    0.767512 0.140628 0.831356 0.114471
H38   H     H_    0.308072 0.836723 0.149454 0.094946
H39   H     H_    0.832270 0.152090 0.976805 0.093825
H40   H     H_    0.161664 0.867331 0.080034 0.128859
Cl11  Cl    Cl    0.997816 0.948871 0.201232 -0.578226
Cl12  Cl    Cl    0.989266 0.070285 0.875232 -0.598619

loop_
_geom_bond_atom_site_label_1
_geom_bond_atom_site_label_2
_geom_bond_distance
_ccdc_geom_bond_type
C36   C46   1.403056 A    
C65   C70   1.401890 A    
C41   Cl5   1.760486 S    
C31   C79   1.404302 A    
C53   H29   1.082427 S    
C42   Cl6   1.761328 S    
C33   H21   1.083098 S    
C19   C56   1.456145 S    
C13   N13   1.332318 A    
C38   H26   1.083706 S    
N3    Ni2   1.861143 S    
C13   C19   1.382791 A    
C57   H19   1.084026 S    
C68   Cl8   1.765278 S    
C8    C24   1.387355 A    
C34   C54   1.395854 A    
C6    C22   1.384077 A    
C2    C18   1.381030 A    
C33   C53   1.397875 A    
N13   Ni4   1.867160 S    
C62   H27   1.080965 S    
N14   Ni3   1.867159 S    
C42   C44   1.400128 A    
C69   H34   1.080615 S    
C1    N1    1.335091 A    
C70   H33   1.080910 S    
C13   H11   1.079983 S    
C44   H14   1.083114 S    
C76   Cl10  1.752894 S    
C75   C77   1.400121 A    
C31   C53   1.398912 A    
N3    N13   1.376861 A    
C50   C52   1.423565 A    
C9    C21   1.392547 A    
C15   H39   1.081531 S    
C48   C51   1.398587 A    
C11   N11   1.319245 A    
C78   H36   1.083533 S    
N12   Ni2   1.860783 S    
C37   C39   1.406529 A    
C16   C18   1.378965 A    
C32   H24   1.081433 S    
N7    Ni4   1.853274 S    
C47   H15   1.079659 S    
N8    Ni3   1.853274 S    
C17   C28   1.422322 S    
C28   C30   1.404250 A    
C20   C55   1.457148 S    
C18   C27   1.427627 S    
C9    N9    1.334486 A    
C67   Cl7   1.765597 S    
C36   Cl4   1.759687 S    
N6    N10   1.383592 A    
C59   H18   1.080383 S    
C58   C60   1.386179 A    
N10   Ni1   1.854182 S    
C49   C51   1.412836 A    
C55   C60   1.405103 A    
C58   H20   1.084163 S    
C57   C59   1.384930 A    
N2    N16   1.376865 A    
C60   H17   1.080758 S    
C31   H23   1.083179 S    
C41   C43   1.399090 A    
C7    C23   1.406593 A    
C2    N2    1.330451 A    
C16   N16   1.328842 A    
C61   H28   1.079966 S    
C23   C50   1.476733 S    
C72   C74   1.392587 A    
C61   C63   1.381853 A    
C78   C80   1.405129 A    
C56   C61   1.400937 A    
C3    N3    1.329438 A    
C66   C71   1.400108 A    
C25   C27   1.406193 A    
C10   C22   1.387472 A    
N8    N12   1.383594 A    
C26   C28   1.398273 A    
C12   N12   1.333956 A    
N15   Ni3   1.853302 S    
C44   C46   1.398657 A    
C14   N14   1.332998 A    
C35   C45   1.404793 A    
C40   C42   1.412946 A    
C39   C41   1.406483 A    
C6    H38   1.079971 S    
C21   C65   1.468574 S    
C48   C50   1.405820 A    
C56   C59   1.405415 A    
C7    N7    1.345101 A    
C1    H1    1.080675 S    
C3    C19   1.385705 A    
C68   C73   1.409927 A    
N4    N14   1.376862 A    
C2    H2    1.081174 S    
C4    C20   1.392034 A    
C67   C74   1.409016 A    
N9    Ni2   1.854181 S    
C35   Cl3   1.759152 S    
C54   H30   1.082134 S    
N5    N9    1.383592 A    
C63   C64   1.411055 A    
C4    N4    1.330430 A    
N1    Ni1   1.854106 S    
C71   C73   1.392860 A    
C32   C80   1.403095 A    
C43   H13   1.078893 S    
C57   C64   1.395766 A    
C77   C79   1.405495 A    
C34   H22   1.079648 S    
C5    C21   1.389507 A    
C4    H4    1.076931 S    
C65   C72   1.399023 A    
C48   H16   1.082042 S    
C27   C29   1.405216 A    
C29   C80   1.480845 S    
C6    N6    1.336107 A    
C5    H37   1.077144 S    
N16   Ni4   1.853304 S    
C40   C51   1.484098 S    
C22   C66   1.469774 S    
C73   C74   1.417979 A    
C11   C23   1.378980 A    
C3    H3    1.078859 S    
C12   C24   1.383294 A    
C24   C49   1.471700 S    
C30   C79   1.485961 S    
C15   C17   1.362868 A    
C75   Cl9   1.754633 S    
C8    N8    1.327203 A    
C72   H31   1.077884 S    
C15   N15   1.327486 A    
C10   N10   1.334517 A    
C10   H8    1.079350 S    
C26   Cl12  1.783112 S    
C25   C30   1.397704 A    
C32   C54   1.394518 A    
C77   H35   1.081870 S    
C62   C64   1.380885 A    
N5    Ni3   1.866916 S    
N2    Ni2   1.854105 S    
C5    N5    1.337592 A    
C11   H9    1.061941 S    
C12   H10   1.075364 S    
N4    Ni1   1.861145 S    
C1    C17   1.369814 A    
C67   C69   1.389852 A    
C46   Cl2   1.757885 S    
C58   C63   1.396921 A    
C37   H25   1.084018 S    
C14   H12   1.078562 S    
C7    H5    1.078464 S    
C68   C70   1.390056 A    
C14   C20   1.385830 A    
C8    H6    1.078633 S    
C9    H7    1.075772 S    
C55   C62   1.397787 A    
C45   Cl1   1.758927 S    
C16   H40   1.081051 S    
C76   C78   1.398133 A    
C47   C52   1.377496 A    
C39   C52   1.476738 S    
N7    N11   1.383591 A    
N11   Ni1   1.860782 S    
C34   C76   1.396974 A    
C25   Cl11  1.769663 S    
C36   C38   1.398186 A    
C33   C75   1.398679 A    
N1    N15   1.376863 A    
C38   C40   1.406317 A    
N6    Ni4   1.866914 S    
C35   C37   1.399519 A    
C43   C45   1.398657 A    
C66   C69   1.402551 A    
C47   C49   1.392327 A    
C71   H32   1.077191 S    
C26   C29   1.384723 A    
