data_mof_unit_29580.cif
_audit_creation_date              2012-12-11T17:41:23-0500
_audit_creation_method            fapswitch 2.2
_symmetry_space_group_name_H-M    P1
_symmetry_Int_Tables_number       1
_space_group_crystal_system       triclinic
_cell_length_a                    15.546793
_cell_length_b                    15.120444
_cell_length_c                    15.092601
_cell_angle_alpha                 109.71355
_cell_angle_beta                  121.463907
_cell_angle_gamma                 58.808976
_cell_volume                      2577.84367821

loop_
_atom_site_label
_atom_site_type_symbol
_atom_type_description
_atom_site_fract_x
_atom_site_fract_y
_atom_site_fract_z
_atom_type_partial_charge
C1    C     C_R   0.756143 0.992290 0.790728 -0.118931
C2    C     C_R   0.197077 0.061416 0.226626 -0.128227
C3    C     C_R   0.140133 0.276213 0.485754 0.148713
C4    C     C_R   0.810270 0.702904 0.453446 0.146254
C5    C     C_R   0.497552 0.300945 0.437519 0.052542
C6    C     C_R   0.494949 0.678176 0.470496 0.046898
C7    C     C_R   0.495487 0.930692 0.793522 0.060907
C8    C     C_R   0.495033 0.979510 0.173338 0.050137
C9    C     C_R   0.731083 0.589617 0.839632 -0.112540
C10   C     C_R   0.258226 0.300372 0.088209 -0.115928
C11   C     C_R   0.645795 0.678215 0.859726 -0.155111
C12   C     C_R   0.337699 0.204264 0.069116 -0.142755
C13   C     C_R   0.669177 0.756769 0.936658 0.049691
C14   C     C_R   0.307610 0.122755 0.007763 0.043631
C15   C     C_R   0.780878 0.744217 0.995715 0.075461
C16   C     C_R   0.194854 0.140053 0.962212 0.063212
C17   C     C_R   0.865981 0.654753 0.975222 -0.172002
C18   C     C_R   0.115642 0.236930 0.981629 -0.182370
C19   C     C_R   0.841035 0.577925 0.897267 -0.125391
C20   C     C_R   0.147397 0.316611 0.044706 -0.124976
C21   C     C_R   0.574341 0.868820 0.050958 -0.222810
C22   C     C_R   0.393303 0.996693 0.894559 -0.230363
C23   C     C_R   0.201860 0.276004 0.444599 -0.115335
C24   C     C_R   0.772902 0.712181 0.523075 -0.120509
C25   C     C_R   0.487913 0.956540 0.070431 0.057209
C26   C     C_R   0.486560 0.918414 0.878583 0.040353
C27   C     C_R   0.395237 0.020745 0.990959 0.040553
C28   C     C_R   0.575842 0.849567 0.955109 0.040499
C29   C     C_2   0.026476 0.351338 0.469210 -0.224268
C30   C     C_2   0.875654 0.605704 0.410237 -0.214450
C31   C     C_2   0.966902 0.420046 0.398969 -0.099017
C32   C     C_2   0.878061 0.516876 0.412632 -0.107872
C33   C     C_2   0.848756 0.115335 0.898324 -0.211432
C34   C     C_2   0.017076 0.044532 0.154961 -0.220564
C35   C     C_R   0.286036 0.801643 0.634685 -0.123002
C36   C     C_R   0.705735 0.139874 0.272619 -0.117055
C37   C     C_R   0.362055 0.719358 0.597661 -0.128170
C38   C     C_R   0.626014 0.227827 0.301179 -0.145239
C39   C     C_R   0.324190 0.668071 0.498058 0.116015
C40   C     C_R   0.656149 0.302790 0.379935 0.122843
C41   C     C_R   0.208947 0.699610 0.436435 -0.181422
C42   C     C_R   0.767840 0.288217 0.428951 -0.169834
C43   C     C_R   0.133059 0.782454 0.473382 -0.113748
C44   C     C_R   0.847349 0.200250 0.399982 -0.102234
C45   C     C_R   0.591529 0.218688 0.491100 -0.128945
C46   C     C_R   0.404392 0.771992 0.448270 -0.109405
C47   C     C_R   0.171597 0.833456 0.572432 -0.091783
C48   C     C_R   0.816349 0.126120 0.321941 -0.085838
C49   C     C_R   0.405488 0.484515 0.443423 -0.242027
C50   C     C_R   0.567989 0.493555 0.421909 -0.244071
C51   C     C_R   0.489932 0.394048 0.424024 0.058233
C52   C     C_R   0.488237 0.582596 0.449507 0.070078
C53   C     C_R   0.570710 0.397020 0.409311 0.021140
C54   C     C_R   0.404981 0.578932 0.459436 0.014341
C55   C     C_2   0.863295 0.102593 0.989462 -0.105386
C56   C     C_2   0.957754 0.112868 0.084126 -0.099552
C57   C     C_R   0.405541 0.983671 0.709754 -0.131054
C58   C     C_R   0.590295 0.965473 0.266693 -0.142872
C59   C     C_R   0.406397 0.288611 0.412991 -0.137297
C60   C     C_R   0.590047 0.694337 0.535265 -0.142877
C61   C     C_R   0.589863 0.912624 0.789093 -0.126468
C62   C     C_R   0.404669 0.028571 0.194878 -0.106948
C63   C     C_R   0.200288 0.186150 0.534999 -0.146610
C64   C     C_R   0.772770 0.801588 0.431022 -0.141919
C65   C     C_R   0.757287 0.083597 0.700765 -0.142007
C66   C     C_R   0.196026 0.970880 0.315574 -0.161772
C67   C     C_R   0.787688 0.067259 0.800456 0.148918
C68   C     C_R   0.133446 0.023480 0.227384 0.156075
H1    H     H_    0.768985 0.959230 0.852134 0.094592
H2    H     H_    0.168955 0.117857 0.177724 0.089878
H3    H     H_    0.984224 0.994702 0.152009 0.136381
H4    H     H_    0.893132 0.150922 0.896361 0.130747
H5    H     H_    0.907091 0.509069 0.881805 0.114489
H6    H     H_    0.085914 0.391153 0.059582 0.112304
H7    H     H_    0.711977 0.529648 0.779847 0.113390
H8    H     H_    0.282589 0.362336 0.136618 0.113342
H9    H     H_    0.561515 0.685003 0.816966 0.113733
H10   H     H_    0.422994 0.192762 0.101894 0.112871
H11   H     H_    0.951728 0.644589 0.019303 0.117652
H12   H     H_    0.029307 0.250713 0.948344 0.112326
H13   H     H_    0.642047 0.817085 0.111323 0.132302
H14   H     H_    0.324157 0.050647 0.836950 0.128732
H15   H     H_    0.827740 0.515712 0.441648 0.124001
H16   H     H_    0.996019 0.415236 0.345258 0.124561
H17   H     H_    0.926663 0.606154 0.381534 0.131084
H18   H     H_    0.996340 0.357648 0.522896 0.127873
H19   H     H_    0.112820 0.897409 0.601051 0.110471
H20   H     H_    0.878046 0.058127 0.299690 0.107868
H21   H     H_    0.176192 0.328516 0.392771 0.081991
H22   H     H_    0.797839 0.651683 0.565189 0.086901
H23   H     H_    0.315778 0.840709 0.711589 0.120640
H24   H     H_    0.681555 0.082592 0.212025 0.121619
H25   H     H_    0.450337 0.695955 0.645475 0.108450
H26   H     H_    0.540716 0.237724 0.262062 0.108032
H27   H     H_    0.178106 0.660574 0.359636 0.113275
H28   H     H_    0.793747 0.344322 0.490224 0.101102
H29   H     H_    0.044397 0.806944 0.425334 0.109064
H30   H     H_    0.933089 0.189486 0.438161 0.107607
H31   H     H_    0.345496 0.481496 0.457639 0.135826
H32   H     H_    0.628377 0.499841 0.411237 0.129392
H33   H     H_    0.677415 0.199903 0.514854 0.105634
H34   H     H_    0.317576 0.787555 0.401872 0.111358
H35   H     H_    0.319315 0.999656 0.680759 0.090870
H36   H     H_    0.674141 0.936870 0.276804 0.097915
H37   H     H_    0.320342 0.332545 0.362127 0.093341
H38   H     H_    0.673107 0.636936 0.575054 0.095180
H39   H     H_    0.675555 0.866653 0.837826 0.107468
H40   H     H_    0.318340 0.048846 0.141900 0.112179
H41   H     H_    0.170263 0.156523 0.563927 0.091203
H42   H     H_    0.795777 0.821217 0.386618 0.091774
H43   H     H_    0.770632 0.136282 0.680799 0.099931
H44   H     H_    0.164648 0.945666 0.347228 0.099304
H45   H     H_    0.989556 0.162749 0.085652 0.125167
H46   H     H_    0.820105 0.066489 0.992439 0.132818
N1    N     N_R   0.705410 0.966550 0.689210 -0.047672
N2    N     N_R   0.294590 0.033450 0.310790 -0.045169
N3    N     N_R   0.294590 0.188320 0.465660 -0.045393
N4    N     N_R   0.705410 0.811680 0.534340 -0.044158
N5    N     N_R   0.556610 0.157790 0.497330 -0.040650
N6    N     N_R   0.443390 0.842210 0.502670 -0.041507
N7    N     N_R   0.443390 0.997080 0.657540 -0.038343
N8    N     N_R   0.556610 0.002920 0.342460 -0.037040
N9    N     N_R   0.443390 0.203250 0.451380 -0.038078
N10   N     N_R   0.556610 0.796750 0.548620 -0.037295
N11   N     N_R   0.556610 0.951620 0.703500 -0.043588
N12   N     N_R   0.443390 0.048380 0.296500 -0.043233
N13   N     N_R   0.294590 0.131500 0.522480 -0.041401
N14   N     N_R   0.705410 0.868500 0.477520 -0.041928
N15   N     N_R   0.705410 0.023370 0.632390 -0.045128
N16   N     N_R   0.294590 0.976630 0.367610 -0.040952
Ni1   Ni    Ni4+2 0.629830 0.882720 0.617850 0.217725
Ni2   Ni    Ni4+2 0.370170 0.117280 0.382150 0.211586
Ni3   Ni    Ni4+2 0.629830 0.013030 0.487540 0.217300
Ni4   Ni    Ni4+2 0.370170 0.986970 0.512460 0.213331
C69   C     C_1   0.809356 0.823355 0.074705 -0.020245
N17   N     N_1   0.832245 0.886763 0.137992 -0.115393
C70   C     C_1   0.159801 0.058677 0.898628 -0.003066
N18   N     N_1   0.131701 0.993439 0.847656 -0.087655

loop_
_geom_bond_atom_site_label_1
_geom_bond_atom_site_label_2
_ccdc_geom_bond_type
C33   C55   D    
C66   C68   A    
C55   C56   S    
C34   C56   D    
N9    Ni2   S    
C3    C23   A    
C16   C70   S    
N13   Ni4   S    
C35   C47   A    
C49   C51   A    
C69   N17   T    
C39   C41   A    
N1    Ni1   S    
C46   H34   S    
N5    Ni3   S    
C7    C26   S    
N4    N14   A    
C42   H28   S    
C22   H14   S    
C35   C37   A    
C2    C68   A    
C4    C24   A    
C39   C54   S    
C15   C69   S    
C49   C54   A    
C17   H11   S    
C60   N10   A    
C3    C29   S    
N3    Ni2   S    
C65   H43   S    
N4    Ni1   S    
C11   H9    S    
C33   H4    S    
C8    C58   A    
C10   H8    S    
C9    C19   A    
C7    C61   A    
C10   C20   A    
C64   N14   A    
C12   H10   S    
C50   C52   A    
C56   H45   S    
C48   H20   S    
C13   C28   S    
C14   C27   S    
N6    Ni4   S    
C36   H24   S    
C40   C42   A    
C38   C40   A    
C8    C25   S    
C41   C43   A    
N16   Ni4   S    
C42   C44   A    
C10   C12   A    
C52   C54   A    
C59   N9    A    
C57   H35   S    
C58   N8    A    
C50   C53   A    
C5    C59   A    
C46   N6    A    
C6    C60   A    
C19   H5    S    
C34   C68   S    
C62   N12   A    
C17   C19   A    
C65   C67   A    
C5    C45   A    
C1    H1    S    
C31   H16   S    
N10   Ni1   S    
C51   C53   A    
N2    N16   A    
C47   H19   S    
N8    N12   A    
N8    Ni3   S    
N7    N11   A    
C49   H31   S    
N3    N13   A    
N11   Ni1   S    
C64   H42   S    
C31   C32   S    
N2    Ni2   S    
N12   Ni2   S    
C38   H26   S    
C23   H21   S    
C37   H25   S    
C59   H37   S    
C30   H17   S    
C9    C11   A    
C29   H18   S    
C45   H33   S    
N15   Ni3   S    
C18   H12   S    
C21   C28   A    
C12   C14   A    
C44   H30   S    
C3    C63   A    
C22   C27   A    
C13   C15   A    
N7    Ni4   S    
C14   C16   A    
C58   H36   S    
C60   H38   S    
C33   C67   S    
N1    N15   A    
C15   C17   A    
C32   H15   S    
C21   C25   A    
C6    C46   A    
C26   C28   A    
C43   H29   S    
C21   H13   S    
C24   H22   S    
C23   N3    A    
C2    N2    A    
C65   N15   A    
C20   H6    S    
C55   H46   S    
N5    N9    A    
C25   C27   A    
C1    N1    A    
C70   N18   T    
C4    C64   A    
C24   N4    A    
C6    C52   S    
C36   C38   A    
C29   C31   D    
N14   Ni3   S    
C30   C32   D    
C11   C13   A    
C45   N5    A    
C41   H27   S    
C1    C67   A    
C36   C48   A    
C18   C20   A    
C61   H39   S    
C4    C30   S    
C50   H32   S    
C57   N7    A    
C44   C48   A    
C37   C39   A    
C62   H40   S    
C16   C18   A    
C40   C53   S    
C22   C26   A    
C5    C51   S    
C61   N11   A    
C9    H7    S    
C66   H44   S    
C2    H2    S    
C43   C47   A    
C34   H3    S    
C7    C57   A    
C63   N13   A    
N6    N10   A    
C8    C62   A    
C63   H41   S    
C66   N16   A    
C35   H23   S    
