data_mof_unit_19627.cif
_audit_creation_date              2012-12-11T17:23:07-0500
_audit_creation_method            fapswitch 2.2
_symmetry_space_group_name_H-M    P1
_symmetry_Int_Tables_number       1
_space_group_crystal_system       triclinic
_cell_length_a                    22.331335
_cell_length_b                    7.091502
_cell_length_c                    19.423393
_cell_angle_alpha                 89.995652
_cell_angle_beta                  99.807302
_cell_angle_gamma                 90.00136
_cell_volume                      3030.989889

loop_
_atom_site_label
_atom_site_type_symbol
_atom_type_description
_atom_site_fract_x
_atom_site_fract_y
_atom_site_fract_z
_atom_type_partial_charge
O1    O     O_R   0.443980 0.494320 0.557430 -0.532957
O2    O     O_R   0.556020 0.994320 0.442570 -0.532968
O3    O     O_R   0.441210 0.822520 0.414610 -0.536268
O4    O     O_R   0.558790 0.322520 0.585390 -0.536245
C1    C     C_R   0.426734 0.655362 0.388544 0.685846
C2    C     C_R   0.573265 0.155354 0.611455 0.685851
O5    O     O_R   0.436920 0.823940 0.555180 -0.537544
O6    O     O_R   0.563080 0.323940 0.444820 -0.537537
O7    O     O_R   0.551700 0.995760 0.584140 -0.532269
O8    O     O_R   0.448300 0.495760 0.415860 -0.532247
C3    C     C_R   0.421648 0.655425 0.574875 0.724638
C4    C     C_R   0.578353 0.155435 0.425125 0.724630
O9    O     O_3   0.537660 0.661290 0.509340 -0.370544
O10   O     O_3   0.462340 0.161290 0.490660 -0.370544
V1    V     V_3+5 0.493010 0.935560 0.498270 1.425428
V2    V     V_3+5 0.506990 0.435560 0.501730 1.425490
H1    H     H_    0.732412 0.842914 0.327113 0.140890
H2    H     H_    0.267584 0.342904 0.672906 0.140887
C5    C     C_R   0.783034 0.938984 0.249029 0.353773
C6    C     C_R   0.216963 0.438988 0.750983 0.353789
C7    C     C_R   0.793066 0.090227 0.204387 0.007746
C8    C     C_R   0.206933 0.590239 0.795613 0.007743
C9    C     C_R   0.758942 0.256359 0.205280 -0.187874
C10   C     C_R   0.241062 0.756362 0.794711 -0.187883
H3    H     H_    0.766485 0.371943 0.171215 0.149419
H4    H     H_    0.233521 0.871951 0.828768 0.149446
C11   C     C_R   0.715049 0.275405 0.249258 0.154935
C12   C     C_R   0.284957 0.775396 0.750734 0.154916
C13   C     C_R   0.705420 0.124723 0.293911 0.039261
C14   C     C_R   0.294582 0.624709 0.706091 0.039287
C15   C     C_R   0.739551 0.958878 0.293058 -0.195833
C16   C     C_R   0.260447 0.458870 0.706954 -0.195846
C17   C     C_1   0.838137 0.079821 0.158052 -0.039722
C18   C     C_1   0.161862 0.579846 0.841949 -0.039730
C19   C     C_1   0.661012 0.136879 0.340980 -0.023734
C20   C     C_1   0.338990 0.636854 0.659021 -0.023718
C21   C     C_1   0.623637 0.146157 0.379680 -0.186044
C22   C     C_1   0.376365 0.646130 0.620320 -0.186058
C23   C     C_1   0.875994 0.071294 0.119905 -0.162043
C24   C     C_1   0.124005 0.571321 0.880095 -0.162053
C25   C     C_R   0.630398 0.151987 0.806788 -0.103222
C26   C     C_R   0.369614 0.651614 0.193210 -0.103209
H5    H     H_    0.611564 0.167528 0.854328 0.189791
H6    H     H_    0.388454 0.666959 0.145665 0.189795
C27   C     C_R   0.613754 0.146359 0.680191 -0.135361
C28   C     C_R   0.386246 0.646371 0.319809 -0.135363
C29   C     C_R   0.908376 0.020212 0.760826 0.327151
C30   C     C_R   0.091610 0.520397 0.239186 0.327133
C31   C     C_R   0.868966 0.971477 0.699356 -0.248132
C32   C     C_R   0.131009 0.471792 0.300684 -0.248129
C33   C     C_R   0.805580 0.972244 0.695538 0.117750
C34   C     C_R   0.194396 0.472488 0.304517 0.117760
C35   C     C_R   0.780428 0.057571 0.751185 0.072679
C36   C     C_R   0.219565 0.557606 0.248836 0.072659
C37   C     C_R   0.820444 0.086617 0.816284 -0.075112
C38   C     C_R   0.179558 0.586515 0.183720 -0.075101
C39   C     C_R   0.717082 0.101344 0.747118 0.024234
C40   C     C_R   0.282917 0.601307 0.252892 0.024243
C41   C     C_R   0.693457 0.130037 0.809694 0.013362
C42   C     C_R   0.306552 0.629758 0.190307 0.013362
C43   C     C_R   0.732839 0.140718 0.874329 0.360693
C44   C     C_R   0.267177 0.640285 0.125662 0.360696
C45   C     C_R   0.795755 0.127171 0.876497 -0.247880
C46   C     C_R   0.204258 0.626842 0.123493 -0.247815
C47   C     C_R   0.676865 0.128156 0.683010 -0.245215
C48   C     C_R   0.323131 0.628263 0.316991 -0.245188
C49   C     C_R   0.590227 0.154650 0.743274 0.322278
C50   C     C_R   0.409779 0.654431 0.256725 0.322275
C51   C     C_R   0.884429 0.065887 0.820816 -0.105435
C52   C     C_R   0.115570 0.565877 0.179185 -0.105427
H7    H     H_    0.694099 0.146522 0.635052 0.117942
H8    H     H_    0.305896 0.646778 0.364939 0.117962
H9    H     H_    0.888322 0.917923 0.655724 0.117201
H10   H     H_    0.111640 0.418410 0.344336 0.117200
H11   H     H_    0.825335 0.144563 0.926375 0.092976
H12   H     H_    0.174684 0.644116 0.073603 0.092911
O11   O     O_R   0.051730 0.724670 0.084120 -0.537537
O12   O     O_R   0.948270 0.224670 0.915880 -0.537563
O13   O     O_R   0.063080 0.393540 0.944820 -0.536719
O14   O     O_R   0.936920 0.893540 0.055180 -0.536714
C53   C     C_R   0.078282 0.562107 0.925021 0.715627
C54   C     C_R   0.921717 0.062097 0.074979 0.715624
O15   O     O_R   0.058800 0.395030 0.085390 -0.535153
O16   O     O_R   0.941200 0.895030 0.914610 -0.535129
O17   O     O_R   0.943980 0.223310 0.057440 -0.529728
O18   O     O_R   0.056020 0.723310 0.942560 -0.529718
C55   C     C_R   0.073144 0.563215 0.111336 0.764034
C56   C     C_R   0.926856 0.063222 0.888663 0.764021
O19   O     O_3   0.962360 0.556290 0.990650 -0.374142
O20   O     O_3   0.037640 0.056290 0.009350 -0.374136
V3    V     V_3+5 0.006980 0.281990 0.001730 1.478115
V4    V     V_3+5 0.993020 0.781990 0.998270 1.478172
C57   C     C_3   0.769868 0.845482 0.639298 -0.345121
C58   C     C_3   0.736939 0.686104 0.670718 -0.701501
H13   H     H_    0.769540 0.605152 0.709282 0.227755
H14   H     H_    0.700099 0.741399 0.696755 0.235465
H15   H     H_    0.716237 0.588377 0.628626 0.207436
H16   H     H_    0.738433 0.922797 0.599231 0.163595
H17   H     H_    0.801269 0.775721 0.608507 0.176123
C59   C     C_3   0.230088 0.345890 0.360836 -0.345105
C60   C     C_3   0.263024 0.186356 0.329524 -0.701581
H18   H     H_    0.230431 0.105296 0.290992 0.227757
H19   H     H_    0.299880 0.241515 0.303479 0.235475
H20   H     H_    0.283704 0.088757 0.371677 0.207407
H21   H     H_    0.261513 0.423319 0.400874 0.163573
H22   H     H_    0.198672 0.276265 0.391647 0.176136
O21   O     O_3   0.814298 0.770145 0.251972 -0.650719
H23   H     H_    0.842645 0.770985 0.218026 0.300933
O22   O     O_3   0.185697 0.270152 0.748053 -0.650713
H24   H     H_    0.157349 0.271002 0.781998 0.300934
C61   C     C_3   0.679682 0.457795 0.247990 -0.360044
C62   C     C_3   0.615357 0.436111 0.207055 -0.688770
H25   H     H_    0.616975 0.392313 0.152489 0.232500
H26   H     H_    0.589372 0.329844 0.231845 0.235585
H27   H     H_    0.591207 0.573260 0.205871 0.240367
H28   H     H_    0.677857 0.504723 0.302178 0.182729
H29   H     H_    0.702679 0.571736 0.223093 0.205789
C63   C     C_3   0.320330 0.957776 0.751994 -0.360028
C64   C     C_3   0.384659 0.936063 0.792919 -0.688804
H30   H     H_    0.383048 0.892123 0.847474 0.232520
H31   H     H_    0.410648 0.829894 0.768097 0.235559
H32   H     H_    0.408800 0.073238 0.794137 0.240353
H33   H     H_    0.322149 0.004725 0.697804 0.182715
H34   H     H_    0.297341 0.071712 0.776896 0.205775
O23   O     O_3   0.528970 0.171507 0.745947 -0.648346
H35   H     H_    0.504868 0.168060 0.698290 0.280473
O24   O     O_3   0.471040 0.671182 0.254050 -0.648358
H36   H     H_    0.495134 0.668057 0.301714 0.280476
O25   O     O_3   0.709077 0.171509 0.934656 -0.647367
H37   H     H_    0.742582 0.174939 0.975354 0.289941
O26   O     O_3   0.290949 0.670818 0.065325 -0.647363
H38   H     H_    0.257447 0.674166 0.024623 0.289949
O27   O     O_3   0.970730 0.008618 0.765226 -0.647101
H39   H     H_    0.980328 0.974112 0.718839 0.292938
O28   O     O_3   0.029254 0.508878 0.234780 -0.647105
H40   H     H_    0.019648 0.474555 0.281183 0.292941

loop_
_geom_bond_atom_site_label_1
_geom_bond_atom_site_label_2
_ccdc_geom_bond_type
O15   C55   A    
O11   V4    S    
O4    V2    S    
C57   C58   S    
C2    C27   S    
C11   C13   A    
C30   O28   S    
C61   C62   S    
O1    C3    A    
C5    C15   A    
C2    O7    A    
C62   H26   S    
O17   V3    S    
O28   H40   S    
C29   C31   A    
O5    C3    A    
C59   H21   S    
C17   C23   T    
C18   C24   T    
C30   C52   A    
C5    C7    A    
C10   H4    S    
C28   C48   A    
C32   H10   S    
C6    C16   A    
C39   C41   A    
C7    C17   S    
C40   C42   A    
C42   C44   A    
C4    C21   S    
C43   C45   A    
C63   C64   S    
C29   C51   A    
C44   C46   A    
C40   C48   A    
C48   H8    S    
C31   C33   A    
C37   C45   A    
C27   C49   A    
C32   C34   A    
O21   H23   S    
C38   C46   A    
C61   H28   S    
C9    C11   A    
O19   V3    S    
C57   H17   S    
O13   V3    S    
C53   O18   A    
C43   O25   S    
C30   C32   A    
C11   C61   S    
O6    V2    S    
C29   O27   S    
C26   C50   A    
C25   H5    S    
C26   H6    S    
C52   C55   S    
C44   O26   S    
C62   H25   S    
C34   C36   A    
C64   H31   S    
C8    C18   S    
C36   C38   A    
C41   C43   A    
C60   H18   S    
C10   C12   A    
C25   C41   A    
C25   C49   A    
C26   C42   A    
O13   C53   A    
C35   C39   A    
C58   H15   S    
C47   H7    S    
C34   C59   S    
C33   C35   A    
O14   V4    S    
C3    C22   S    
C28   C50   A    
O20   V4    S    
O6    C4    A    
C46   H12   S    
O1    V2    S    
C63   H34   S    
O19   V4    S    
C58   H14   S    
O2    V1    S    
C50   O24   S    
C37   C51   A    
C51   C56   S    
C33   C57   S    
O4    C2    A    
C6    C8    A    
C60   H20   S    
C38   C52   A    
C7    C9    A    
C27   C47   A    
O23   H35   S    
H1    C15   S    
C8    C10   A    
H2    C16   S    
C35   C37   A    
O24   H36   S    
O18   V4    S    
O3    V1    S    
O2    C4    A    
C36   C40   A    
C64   H32   S    
O12   C56   A    
C19   C21   T    
C24   C53   S    
O16   C56   A    
C23   C54   S    
C39   C47   A    
O3    C1    A    
C64   H30   S    
O12   V3    S    
C54   O17   A    
O15   V3    S    
C1    C28   S    
C13   C19   S    
C59   H22   S    
C14   C20   S    
C61   H29   S    
C49   O23   S    
O25   H37   S    
C12   C14   A    
C13   C15   A    
O8    V2    S    
O22   H24   S    
C20   C22   T    
C14   C16   A    
O20   V3    S    
O27   H39   S    
C45   H11   S    
O5    V1    S    
C59   C60   S    
O14   C54   A    
C31   H9    S    
C63   H33   S    
C9    H3    S    
O7    V1    S    
C58   H13   S    
C6    O22   S    
C1    O8    A    
O11   C55   A    
C60   H19   S    
O9    V2    S    
O10   V1    S    
C12   C63   S    
O16   V4    S    
C57   H16   S    
C62   H27   S    
O26   H38   S    
C5    O21   S    
