data_mof_unit_22283.cif
_audit_creation_date              2012-12-11T15:28:36-0500
_audit_creation_method            fapswitch 2.2
_symmetry_space_group_name_H-M    P1
_symmetry_Int_Tables_number       1
_space_group_crystal_system       triclinic
_cell_length_a                    6.958759
_cell_length_b                    19.575381
_cell_length_c                    23.395563
_cell_angle_alpha                 96.062621
_cell_angle_beta                  90.919872
_cell_angle_gamma                 89.009862
_cell_volume                      3168.3298418

loop_
_atom_site_label
_atom_site_type_symbol
_atom_type_description
_atom_site_fract_x
_atom_site_fract_y
_atom_site_fract_z
_atom_type_partial_charge
O1    O     O_R   0.617180 0.809390 0.808140 -0.520712
O2    O     O_R   0.382820 0.190610 0.191860 -0.520711
O3    O     O_R   0.293300 0.672410 0.795490 -0.534835
O4    O     O_R   0.706700 0.327590 0.204510 -0.534835
O5    O     O_R   0.117220 0.690610 0.691850 -0.520802
O6    O     O_R   0.882780 0.309390 0.308150 -0.520802
C1    C     C_R   0.464264 0.647884 0.805349 0.699298
C2    C     C_R   0.535736 0.352116 0.194651 0.699299
O7    O     O_R   0.287840 0.807750 0.814460 -0.527321
O8    O     O_R   0.712160 0.192250 0.185540 -0.527321
O9    O     O_R   0.111720 0.826910 0.710960 -0.535525
O10   O     O_R   0.888280 0.173090 0.289040 -0.535524
C3    C     C_R   0.456491 0.830733 0.833202 0.712685
C4    C     C_R   0.543508 0.169267 0.166798 0.712683
O11   O     O_R   0.622680 0.673080 0.789040 -0.531966
O12   O     O_R   0.377320 0.326920 0.210960 -0.531966
O13   O     O_3   0.448820 0.756130 0.716020 -0.358701
O14   O     O_3   0.551180 0.243870 0.283980 -0.358701
V1    V     V_3+5 0.176220 0.748860 0.756300 1.408754
V2    V     V_3+5 0.823780 0.251140 0.243700 1.408754
O15   O     O_R   0.781670 0.827580 0.704500 -0.534663
O16   O     O_R   0.218330 0.172420 0.295500 -0.534663
C5    C     C_R   0.949145 0.851857 0.694117 0.695185
C6    C     C_R   0.050855 0.148143 0.305883 0.695186
O17   O     O_R   0.787130 0.692240 0.685530 -0.525315
O18   O     O_R   0.212870 0.307760 0.314470 -0.525315
C7    C     C_R   0.956061 0.669238 0.666798 0.717444
C8    C     C_R   0.043938 0.330761 0.333201 0.717444
V3    V     V_3+5 0.675510 0.751130 0.743690 1.412175
V4    V     V_3+5 0.324490 0.248870 0.256310 1.412175
O19   O     O_3   0.952780 0.743870 0.783980 -0.357899
O20   O     O_3   0.047220 0.256130 0.216020 -0.357899
C9    C     C_1   0.966543 0.617179 0.614739 -0.219507
C10   C     C_1   0.033457 0.382821 0.385261 -0.219508
C11   C     C_1   0.978123 0.573664 0.571922 -0.002839
C12   C     C_1   0.021876 0.426336 0.428078 -0.002839
C13   C     C_1   0.993399 0.521860 0.521316 -0.004593
C14   C     C_1   0.006601 0.478140 0.478684 -0.004593
C15   C     C_R   0.956192 0.915350 0.664925 -0.067393
C16   C     C_R   0.043808 0.084650 0.335074 -0.067393
C17   C     C_R   0.973608 0.039334 0.668405 -0.190770
C18   C     C_R   0.026392 0.960666 0.331595 -0.190771
C19   C     C_R   0.962824 0.980386 0.697185 0.075360
C20   C     C_R   0.037176 0.019614 0.302815 0.075360
C21   C     C_R   0.964300 0.910778 0.604444 -0.243487
C22   C     C_R   0.035699 0.089222 0.395555 -0.243487
C23   C     C_R   0.979348 0.970457 0.574740 0.087203
C24   C     C_R   0.020652 0.029543 0.425260 0.087203
C25   C     C_R   0.982611 0.035014 0.608318 0.115310
C26   C     C_R   0.017389 0.964986 0.391682 0.115310
C27   C     C_R   0.992354 0.968591 0.513213 0.063587
C28   C     C_R   0.007646 0.031409 0.486786 0.063587
C29   C     C_R   0.008763 0.093909 0.522772 -0.185935
C30   C     C_R   0.991238 0.906091 0.477228 -0.185935
C31   C     C_R   0.996540 0.095438 0.582043 -0.195540
C32   C     C_R   0.003461 0.904562 0.417957 -0.195540
H1    H     H_    0.998721 0.144875 0.607758 0.121722
H2    H     H_    0.001280 0.855125 0.392242 0.121722
H3    H     H_    0.039504 0.140202 0.417895 0.100500
H4    H     H_    0.960495 0.859798 0.582105 0.100500
H5    H     H_    0.977561 0.089249 0.693408 0.113128
H6    H     H_    0.022440 0.910751 0.306592 0.113128
H7    H     H_    0.019226 0.143107 0.506515 0.122838
H8    H     H_    0.980775 0.856892 0.493485 0.122838
C33   C     C_R   0.482538 0.585697 0.835506 -0.045542
C34   C     C_R   0.517461 0.414303 0.164494 -0.045542
C35   C     C_R   0.577121 0.466054 0.832863 -0.162581
C36   C     C_R   0.422879 0.533946 0.167137 -0.162581
C37   C     C_R   0.543242 0.524347 0.804785 -0.167323
C38   C     C_R   0.456758 0.475653 0.195215 -0.167323
C39   C     C_R   0.456614 0.588572 0.895176 -0.214997
C40   C     C_R   0.543386 0.411428 0.104824 -0.214998
C41   C     C_R   0.494604 0.530019 0.925279 0.086844
C42   C     C_R   0.505396 0.469981 0.074721 0.086844
C43   C     C_R   0.555026 0.468407 0.892542 0.140093
C44   C     C_R   0.444974 0.531593 0.107458 0.140093
C45   C     C_R   0.477989 0.530554 0.986472 0.057604
C46   C     C_R   0.522010 0.469446 0.013528 0.057604
C47   C     C_R   0.580360 0.409833 0.978475 -0.187142
C48   C     C_R   0.419639 0.590167 0.021525 -0.187143
C49   C     C_R   0.595907 0.409509 0.919410 -0.202184
C50   C     C_R   0.404093 0.590491 0.080590 -0.202184
H9    H     H_    0.642085 0.362441 0.894423 0.122283
H10   H     H_    0.357914 0.637559 0.105577 0.122284
H11   H     H_    0.587453 0.362429 0.083336 0.095023
H12   H     H_    0.412547 0.637571 0.916664 0.095023
H13   H     H_    0.434059 0.478223 0.241113 0.106925
H14   H     H_    0.565941 0.521776 0.758887 0.106925
H15   H     H_    0.624106 0.419114 0.807887 0.112484
H16   H     H_    0.375894 0.580886 0.192113 0.112483
H17   H     H_    0.616120 0.362079 0.995324 0.123542
H18   H     H_    0.383880 0.637921 0.004675 0.123542
C51   C     C_1   0.466894 0.882619 0.885378 -0.215552
C52   C     C_1   0.533106 0.117381 0.114622 -0.215551
C53   C     C_1   0.478000 0.926054 0.928269 -0.012075
C54   C     C_1   0.522000 0.073946 0.071731 -0.012075
C55   C     C_1   0.493303 0.978031 0.978761 -0.006698
C56   C     C_1   0.506697 0.021969 0.021239 -0.006698
C57   C     C_3   0.038995 0.010796 0.237721 -0.370630
C58   C     C_3   0.239799 0.989423 0.215826 -0.306267
C59   C     C_3   0.238450 0.974036 0.150542 -0.753509
H19   H     H_    0.141467 0.930653 0.136930 0.225567
H20   H     H_    0.189099 0.020023 0.130036 0.236060
H21   H     H_    0.385881 0.959541 0.135806 0.220299
H22   H     H_    0.342159 0.031510 0.228606 0.195598
H23   H     H_    0.290580 0.942661 0.235071 0.194741
H24   H     H_    0.933347 0.970982 0.221675 0.172624
H25   H     H_    0.992489 0.058560 0.219404 0.167428
C60   C     C_3   0.961005 0.989204 0.762279 -0.370630
C61   C     C_3   0.760202 0.010579 0.784174 -0.306267
C62   C     C_3   0.761552 0.025964 0.849459 -0.753506
H26   H     H_    0.810898 0.979976 0.869964 0.236059
H27   H     H_    0.858538 0.069346 0.863071 0.225568
H28   H     H_    0.614122 0.040461 0.864194 0.220298
H29   H     H_    0.709427 0.057342 0.764930 0.194741
H30   H     H_    0.657838 0.968494 0.771394 0.195598
H31   H     H_    0.007507 0.941439 0.780596 0.167428
H32   H     H_    0.066657 0.029016 0.778325 0.172624

loop_
_geom_bond_atom_site_label_1
_geom_bond_atom_site_label_2
_ccdc_geom_bond_type
C21   H4    S    
C2    C34   S    
C59   H19   S    
O6    C8    A    
C22   H3    S    
O13   V3    S    
C62   H26   S    
C17   H5    S    
O4    C2    A    
V1    O19   S    
C55   C56   T    
C60   H31   S    
C23   C25   A    
C45   C46   A    
C7    C9    S    
C16   C22   A    
C57   H25   S    
O9    V1    S    
C58   H22   S    
C42   C44   A    
C11   C13   S    
O3    C1    A    
C9    C11   T    
C20   C57   S    
C33   C37   A    
O12   V4    S    
C35   H15   S    
C21   C23   A    
O7    C3    A    
C61   C62   S    
C6    C16   S    
O5    C7    A    
O7    V1    S    
C34   C40   A    
O8    V2    S    
C54   C56   S    
C36   H16   S    
O3    V1    S    
O14   V4    S    
C18   H6    S    
C47   H17   S    
C15   C21   A    
C24   C26   A    
C8    C10   S    
C51   C53   T    
C17   C19   A    
C18   C20   A    
C38   H13   S    
C17   C25   A    
C49   H9    S    
C60   H32   S    
O11   V3    S    
C30   C32   A    
C29   C31   A    
C40   H11   S    
O17   V3    S    
C22   C24   A    
C27   C28   A    
C48   C50   A    
O8    C4    A    
C44   C50   A    
C39   C41   A    
C46   C47   A    
C43   C49   A    
C15   C19   A    
C1    O11   A    
C33   C39   A    
O15   V3    S    
C26   C32   A    
C3    C51   S    
C35   C37   A    
C48   H18   S    
C13   C14   T    
C1    C33   S    
C39   H12   S    
C57   C58   S    
C16   C20   A    
O10   V2    S    
O1    V3    S    
C62   H27   S    
C36   C44   A    
C52   C54   T    
C37   H14   S    
C18   C26   A    
C40   C42   A    
O18   V4    S    
C59   H21   S    
C50   H10   S    
O15   C5    A    
O16   C6    A    
O1    C3    A    
C41   C43   A    
C12   C14   S    
C61   H30   S    
O6    V2    S    
C28   C29   A    
C47   C49   A    
V2    O20   S    
C45   C48   A    
O16   V4    S    
O18   C8    A    
C23   C27   A    
C53   C55   S    
O5    V1    S    
O17   C7    A    
C57   H24   S    
O10   C6    A    
C58   H23   S    
C59   H20   S    
O2    V4    S    
C27   C30   A    
C31   H1    S    
V3    O19   S    
C25   C31   A    
C60   C61   S    
V4    O20   S    
C29   H7    S    
C34   C38   A    
C30   H8    S    
C5    C15   S    
O9    C5    A    
C58   C59   S    
O13   V1    S    
C10   C12   T    
C32   H2    S    
C62   H28   S    
O14   V2    S    
O2    C4    A    
O4    V2    S    
C24   C28   A    
C35   C43   A    
C2    O12   A    
C42   C46   A    
C36   C38   A    
C41   C45   A    
C19   C60   S    
C61   H29   S    
C4    C52   S    
