data_mof_unit_8150.cif
_audit_creation_date              2012-12-10T17:02:01-0500
_audit_creation_method            fapswitch 2.2
_symmetry_space_group_name_H-M    P1
_symmetry_Int_Tables_number       1
_space_group_crystal_system       triclinic
_cell_length_a                    10.830649
_cell_length_b                    11.008599
_cell_length_c                    9.93405
_cell_angle_alpha                 110.127253
_cell_angle_beta                  98.648029
_cell_angle_gamma                 91.476367
_cell_volume                      1095.62345615

loop_
_atom_site_label
_atom_site_type_symbol
_atom_type_description
_atom_site_fract_x
_atom_site_fract_y
_atom_site_fract_z
_atom_type_partial_charge
C1    C     C_R   0.486362 0.254375 0.443338 0.829531
C2    C     C_R   0.076208 0.617420 0.617879 -0.059635
C3    C     C_R   0.129192 0.511689 0.514982 -0.108458
C4    C     C_R   0.049786 0.403698 0.414475 0.169323
C5    C     C_R   0.921305 0.402472 0.410746 -0.212349
C6    C     C_R   0.869558 0.509030 0.497277 -0.119121
C7    C     C_2   0.483890 0.115588 0.423509 -0.023678
C8    C     C_2   0.464566 0.077525 0.536857 0.241696
C9    C     C_2   0.450574 0.868148 0.571473 0.087211
C10   C     C_2   0.522129 0.963144 0.556370 0.159076
C11   C     C_2   0.508950 0.514229 0.081400 0.298133
C12   C     C_R   0.263362 0.510102 0.505112 0.814669
C13   C     C_2   0.481947 0.500292 0.922355 0.005546
C14   C     C_R   0.500047 0.743611 0.556312 0.784591
C15   C     C_R   0.736487 0.498853 0.498393 0.790468
C16   C     C_R   0.142930 0.717518 0.748411 0.208599
C17   C     C_R   0.078587 0.826988 0.822777 0.229992
C18   C     C_R   0.955325 0.837331 0.766732 -0.194572
C19   C     C_R   0.888017 0.734091 0.656387 -0.226425
C20   C     C_R   0.944522 0.620503 0.589978 0.060826
Cu1   Cu    Cu3+1 0.521920 0.521810 0.644910 0.922755
Cu2   Cu    Cu3+1 0.478080 0.478190 0.355090 0.949004
H1    H     H_    0.395495 0.449364 0.854672 0.110057
H2    H     H_    0.906330 0.921103 0.817917 0.146361
H3    H     H_    0.789418 0.742521 0.625593 0.148448
H4    H     H_    0.860386 0.317852 0.339625 0.143870
N1    N     N_2   0.445130 0.445430 0.137370 -0.073150
N2    N     N_2   0.554930 0.554500 0.862630 -0.106898
O1    O     O_R   0.511700 0.332330 0.577400 -0.589474
O2    O     O_R   0.474680 0.295500 0.332650 -0.558270
O3    O     O_R   0.338160 0.518420 0.622400 -0.571100
O4    O     O_R   0.301140 0.481590 0.377650 -0.552374
O5    O     O_R   0.525320 0.704500 0.667350 -0.588674
O6    O     O_R   0.488300 0.667670 0.422600 -0.597185
O7    O     O_R   0.698860 0.518410 0.622350 -0.569391
O8    O     O_R   0.661840 0.481580 0.377600 -0.589705
C21   C     C_3   0.099941 0.284608 0.315474 -0.849601
H5    H     H_    0.026640 0.202280 0.264375 0.214617
H6    H     H_    0.133986 0.307147 0.226268 0.261761
H7    H     H_    0.177073 0.251308 0.377959 0.216714
C22   C     C_3   0.523151 0.024396 0.287221 -0.930409
H8    H     H_    0.465363 0.035246 0.190464 0.239442
H9    H     H_    0.623174 0.048826 0.286927 0.241287
H10   H     H_    0.509947 0.921128 0.277231 0.250526
C23   C     C_3   0.620802 0.608708 0.173479 -0.702564
H11   H     H_    0.621410 0.697694 0.144718 0.188014
H12   H     H_    0.628760 0.647271 0.289574 0.247798
H13   H     H_    0.709122 0.561612 0.158779 0.220333
N3    N     N_2   0.682370 0.563172 0.912439 -0.334758
H14   H     H_    0.730822 0.637027 0.895601 0.271000
C24   C     C_3   0.741004 0.440904 0.872077 -0.542984
H15   H     H_    0.782383 0.421753 0.971054 0.180847
H16   H     H_    0.818567 0.445676 0.812072 0.206227
H17   H     H_    0.672913 0.357677 0.803872 0.234242
N4    N     N_2   0.326997 0.389565 0.065106 -0.323841
H18   H     H_    0.276416 0.433150 0.000490 0.207677
C25   C     C_3   0.315650 0.249598 0.014547 -0.629880
H19   H     H_    0.228445 0.211436 0.933645 0.193847
H20   H     H_    0.310534 0.216266 0.106941 0.248967
H21   H     H_    0.397487 0.210278 0.963928 0.209617
N5    N     N_2   0.257979 0.691802 0.820823 -0.401354
H22   H     H_    0.248442 0.622197 0.867145 0.239135
C26   C     C_3   0.357105 0.794041 0.898441 -0.639836
H23   H     H_    0.448801 0.753925 0.894912 0.261412
H24   H     H_    0.350621 0.834600 0.015465 0.203257
H25   H     H_    0.357459 0.870631 0.849643 0.218103
C27   C     C_3   0.131118 0.928661 0.969024 -0.887497
H26   H     H_    0.211756 0.987804 0.960829 0.231278
H27   H     H_    0.061749 0.998405 0.011705 0.219348
H28   H     H_    0.156569 0.881754 0.050769 0.239745
C28   C     C_3   0.662475 0.958724 0.564923 -0.951191
H29   H     H_    0.706324 0.048200 0.557953 0.252437
H30   H     H_    0.704144 0.951823 0.670822 0.221630
H31   H     H_    0.684623 0.874148 0.474555 0.230258
C29   C     C_3   0.398806 0.158444 0.658742 -0.835051
H32   H     H_    0.346581 0.097926 0.703473 0.241725
H33   H     H_    0.469576 0.222718 0.749721 0.225416
H34   H     H_    0.329020 0.216495 0.620016 0.221638
N6    N     N_2   0.317085 0.869519 0.553026 -0.453591
H35   H     H_    0.276993 0.818151 0.606502 0.252313
C30   C     C_3   0.252626 0.833039 0.404158 -0.672615
H36   H     H_    0.151282 0.846048 0.403900 0.225065
H37   H     H_    0.262877 0.729525 0.342342 0.241331
H38   H     H_    0.289128 0.894616 0.348620 0.238468

loop_
_geom_bond_atom_site_label_1
_geom_bond_atom_site_label_2
_ccdc_geom_bond_type
N4    H18   S    
C26   H24   S    
C22   H8    S    
C19   C20   A    
C29   H32   S    
C14   O5    A    
C30   H36   S    
C7    C8    D    
C23   H11   S    
Cu1   O3    S    
Cu2   O4    S    
C18   H2    S    
C21   H7    S    
C5    C6    A    
N1    N4    S    
C25   H20   S    
Cu1   O5    S    
C13   H1    S    
C18   C19   A    
C9    N6    S    
N5    C26   S    
C3    C12   S    
C6    C15   S    
C16   C17   A    
N3    C24   S    
C13   N2    D    
C2    C16   A    
C9    C10   D    
C10   C28   S    
C26   H25   S    
Cu1   Cu2   S    
C12   O4    A    
C22   H9    S    
C27   H26   S    
C15   O7    A    
C30   H37   S    
C23   H12   S    
Cu2   O6    S    
C17   C27   S    
C2    C20   A    
C24   H15   S    
N6    H35   S    
N6    C30   S    
C25   H21   S    
Cu1   O1    S    
C8    C29   S    
C5    H4    S    
C24   H16   S    
C9    C14   S    
C21   H5    S    
N2    N3    S    
C11   N1    D    
C1    O1    A    
C17   C18   A    
C29   H33   S    
Cu1   N2    S    
Cu2   N1    S    
N4    C25   S    
C12   O3    A    
C22   H10   S    
C11   C23   S    
C16   N5    S    
C3    C4    A    
C15   O8    A    
C30   H38   S    
Cu2   O8    S    
C28   H30   S    
C23   H13   S    
Cu2   O2    S    
C1    C7    S    
C4    C5    A    
C14   O6    A    
C28   H31   S    
Cu1   O7    S    
C6    C20   A    
C24   H17   S    
C27   H28   S    
C2    C3    A    
C28   H29   S    
C21   H6    S    
C11   C13   S    
C25   H19   S    
C1    O2    A    
C7    C22   S    
N5    H22   S    
C19   H3    S    
C29   H34   S    
C26   H23   S    
C4    C21   S    
C8    C10   S    
N3    H14   S    
C27   H27   S    
