data_mof_unit_5949.cif
_audit_creation_date              2012-12-10T17:27:07-0500
_audit_creation_method            fapswitch 2.2
_symmetry_space_group_name_H-M    P1
_symmetry_Int_Tables_number       1
_space_group_crystal_system       triclinic
_cell_length_a                    18.195054
_cell_length_b                    18.499462
_cell_length_c                    11.993344
_cell_angle_alpha                 89.781264
_cell_angle_beta                  87.282648
_cell_angle_gamma                 89.873142
_cell_volume                      4032.36709234

loop_
_atom_site_label
_atom_site_type_symbol
_atom_type_description
_atom_site_fract_x
_atom_site_fract_y
_atom_site_fract_z
_atom_type_partial_charge
C1    C     C_R   0.401817 0.101787 0.519490 0.959344
C2    C     C_R   0.535582 0.999150 0.021396 -0.070210
C3    C     C_R   0.964750 0.497691 0.978704 -0.070458
C4    C     C_R   0.035582 0.499152 0.021396 -0.070182
C5    C     C_R   0.587561 0.997921 0.830635 -0.116392
C6    C     C_R   0.412712 0.993717 0.169229 -0.116018
C7    C     C_R   0.087561 0.497914 0.830636 -0.116406
C8    C     C_R   0.912713 0.493706 0.169229 -0.116018
C9    C     C_R   0.597032 0.996185 0.945592 -0.349351
C10   C     C_R   0.403416 0.992044 0.054238 -0.356915
C11   C     C_R   0.097032 0.496184 0.945593 -0.349379
C12   C     C_R   0.598731 0.898733 0.480072 0.974239
C13   C     C_R   0.903416 0.492038 0.054237 -0.356917
C14   C     C_R   0.457675 0.000571 0.861059 0.628271
C15   C     C_R   0.542432 0.002494 0.139161 0.622810
C16   C     C_R   0.957675 0.500575 0.861059 0.628286
C17   C     C_R   0.042431 0.502501 0.139160 0.622792
C18   C     C_R   0.645804 0.164226 0.475150 -0.290173
C19   C     C_R   0.350100 0.839016 0.529329 -0.277776
C20   C     C_R   0.353247 0.163135 0.525085 -0.293239
C21   C     C_R   0.649723 0.839506 0.471771 -0.272818
C22   C     C_R   0.145809 0.664220 0.475151 -0.290185
C23   C     C_R   0.597381 0.102597 0.480585 0.944557
C24   C     C_R   0.850094 0.339020 0.529335 -0.277798
C25   C     C_R   0.853241 0.663129 0.525088 -0.293219
C26   C     C_R   0.149725 0.339506 0.471769 -0.272855
C27   C     C_R   0.299579 0.736826 0.630476 -0.268080
C28   C     C_R   0.692793 0.269559 0.378319 -0.254112
C29   C     C_R   0.685742 0.725550 0.391213 -0.265638
C30   C     C_R   0.320542 0.279943 0.598759 -0.292089
C31   C     C_R   0.799535 0.236863 0.630521 -0.268087
C32   C     C_R   0.192773 0.769576 0.378354 -0.254069
C33   C     C_R   0.185771 0.225572 0.391161 -0.265634
C34   C     C_R   0.401816 0.898004 0.520084 0.962238
C35   C     C_R   0.820560 0.779953 0.598715 -0.292082
C36   C     C_R   0.348950 0.793752 0.623997 0.442495
C37   C     C_R   0.641303 0.214781 0.388024 0.413152
C38   C     C_R   0.639420 0.785075 0.392821 0.438233
C39   C     C_R   0.367577 0.220054 0.598365 0.428816
C40   C     C_R   0.848915 0.293780 0.624032 0.442487
C41   C     C_R   0.141288 0.714796 0.388054 0.413138
C42   C     C_R   0.139442 0.285091 0.392783 0.438231
C43   C     C_R   0.867588 0.720060 0.598333 0.428742
C44   C     C_R   0.302342 0.826776 0.441814 0.462846
C45   C     C_R   0.901813 0.601783 0.519491 0.959364
C46   C     C_R   0.693685 0.175898 0.562689 0.475622
C47   C     C_R   0.706194 0.834895 0.547783 0.456108
C48   C     C_R   0.297247 0.167851 0.448006 0.457754
C49   C     C_R   0.802352 0.326765 0.441804 0.462855
C50   C     C_R   0.193714 0.675872 0.562667 0.475634
C51   C     C_R   0.206182 0.334885 0.547806 0.456137
C52   C     C_R   0.797225 0.667832 0.448036 0.457740
C53   C     C_R   0.247186 0.775486 0.456552 -0.088424
C54   C     C_R   0.746656 0.229492 0.550469 -0.085541
C55   C     C_R   0.758140 0.779919 0.534816 -0.078681
C56   C     C_R   0.098730 0.398732 0.480072 0.974185
C57   C     C_R   0.246954 0.224223 0.457710 -0.085548
C58   C     C_R   0.747187 0.275484 0.456543 -0.088388
C59   C     C_R   0.246681 0.729470 0.550449 -0.085545
C60   C     C_R   0.258135 0.279917 0.534831 -0.078694
C61   C     C_R   0.746938 0.724210 0.457732 -0.085541
C62   C     C_3   0.642901 0.073929 0.166823 -0.240212
C63   C     C_3   0.358346 0.071810 0.828394 -0.299504
C64   C     C_3   0.142870 0.573970 0.166824 -0.240299
C65   C     C_3   0.858355 0.571827 0.828405 -0.299576
C66   C     C_3   0.650359 0.169766 0.743628 -0.305068
C67   C     C_R   0.097383 0.602595 0.480585 0.944563
C68   C     C_3   0.346500 0.825488 0.261284 -0.297011
C69   C     C_3   0.316214 0.142035 0.262647 -0.310426
C70   C     C_3   0.687585 0.854457 0.734803 -0.304848
C71   C     C_3   0.150442 0.669706 0.743633 -0.305054
C72   C     C_3   0.846558 0.325438 0.261301 -0.297016
C73   C     C_3   0.816145 0.641972 0.262687 -0.310426
C74   C     C_3   0.187530 0.354406 0.734834 -0.304851
C75   C     C_3   0.525525 0.249766 0.351468 -0.284674
C76   C     C_3   0.367421 0.818559 0.807154 -0.241192
C77   C     C_3   0.428644 0.258952 0.755712 -0.380517
C78   C     C_R   0.901816 0.398004 0.520084 0.962189
C79   C     C_3   0.601900 0.797374 0.215270 -0.275604
C80   C     C_3   0.025472 0.749748 0.351631 -0.284448
C81   C     C_3   0.867347 0.318619 0.807192 -0.241132
C82   C     C_3   0.928676 0.758966 0.755652 -0.380431
C83   C     C_3   0.101954 0.297422 0.215215 -0.275582
C84   C     C_R   0.464751 0.997691 0.978704 -0.070449
H1    H     H_    0.365345 0.989363 0.226728 0.221374
H2    H     H_    0.689948 0.307019 0.308980 0.210007
H3    H     H_    0.673915 0.681026 0.336549 0.207587
H4    H     H_    0.331808 0.326565 0.649167 0.202723
H5    H     H_    0.652318 0.991315 0.973642 0.187101
H6    H     H_    0.348451 0.985030 0.025556 0.190773
H7    H     H_    0.152318 0.491314 0.973647 0.187111
H8    H     H_    0.848451 0.485021 0.025554 0.190771
H9    H     H_    0.675213 0.087575 0.239900 0.204488
H10   H     H_    0.602092 0.118073 0.155443 0.188011
H11   H     H_    0.682754 0.073212 0.094172 0.129362
H12   H     H_    0.635027 0.997845 0.772983 0.219003
H13   H     H_    0.316462 0.079212 0.765025 0.195137
H14   H     H_    0.399848 0.115465 0.815474 0.190721
H15   H     H_    0.329696 0.078541 0.911290 0.134968
H16   H     H_    0.175217 0.587604 0.239870 0.204460
H17   H     H_    0.102038 0.618104 0.155532 0.188072
H18   H     H_    0.182683 0.573287 0.094122 0.129366
H19   H     H_    0.816451 0.579228 0.765067 0.195133
H20   H     H_    0.899859 0.615477 0.815443 0.190738
H21   H     H_    0.829734 0.578568 0.911320 0.134976
H22   H     H_    0.591887 0.176650 0.722539 0.203599
H23   H     H_    0.865347 0.489343 0.226728 0.221360
H24   H     H_    0.674186 0.223475 0.762108 0.139570
H25   H     H_    0.651479 0.137323 0.821396 0.180807
H26   H     H_    0.320340 0.772174 0.247439 0.148087
H27   H     H_    0.404714 0.817263 0.282956 0.204643
H28   H     H_    0.346560 0.855120 0.180813 0.177750
H29   H     H_    0.377134 0.146513 0.259158 0.186172
H30   H     H_    0.292552 0.195457 0.241064 0.134662
H31   H     H_    0.300602 0.103917 0.196778 0.179266
H32   H     H_    0.712487 0.800684 0.750862 0.142429
H33   H     H_    0.626713 0.849143 0.739783 0.199632
H34   H     H_    0.135028 0.497830 0.772984 0.219028
H35   H     H_    0.703824 0.890176 0.803375 0.173231
H36   H     H_    0.091958 0.676590 0.722602 0.203555
H37   H     H_    0.174272 0.723413 0.762109 0.139560
H38   H     H_    0.151595 0.637254 0.821388 0.180787
H39   H     H_    0.820402 0.272122 0.247462 0.148093
H40   H     H_    0.904763 0.317217 0.283022 0.204669
H41   H     H_    0.846645 0.355057 0.180817 0.177767
H42   H     H_    0.877064 0.646450 0.259156 0.186184
H43   H     H_    0.792478 0.695389 0.241088 0.134663
H44   H     H_    0.800513 0.603837 0.196852 0.179269
H45   H     H_    0.802529 0.198954 0.699163 0.206128
H46   H     H_    0.212424 0.300625 0.750872 0.142426
H47   H     H_    0.126657 0.349098 0.739785 0.199640
H48   H     H_    0.203757 0.390105 0.803437 0.173227
H49   H     H_    0.538562 0.308211 0.359563 0.166871
H50   H     H_    0.503396 0.227785 0.432751 0.174397
H51   H     H_    0.481576 0.244829 0.290965 0.171186
H52   H     H_    0.339332 0.770978 0.846456 0.130572
H53   H     H_    0.327958 0.864309 0.799997 0.184732
H54   H     H_    0.410433 0.836125 0.863694 0.185295
H55   H     H_    0.375354 0.251862 0.804095 0.153254
H56   H     H_    0.189907 0.807055 0.309042 0.210027
H57   H     H_    0.439481 0.316830 0.736392 0.184824
H58   H     H_    0.472715 0.240123 0.809736 0.179698
H59   H     H_    0.631412 0.749282 0.180218 0.139600
H60   H     H_    0.637029 0.846442 0.205177 0.189163
H61   H     H_    0.552621 0.806318 0.165883 0.178632
H62   H     H_    0.038472 0.808191 0.359869 0.166850
H63   H     H_    0.003359 0.727676 0.432866 0.174421
H64   H     H_    0.981513 0.744848 0.291129 0.171155
H65   H     H_    0.839255 0.271044 0.846505 0.130559
H66   H     H_    0.827883 0.364365 0.799995 0.184721
H67   H     H_    0.173962 0.181059 0.336465 0.207590
H68   H     H_    0.910346 0.336200 0.863744 0.185309
H69   H     H_    0.875391 0.751875 0.804048 0.153240
H70   H     H_    0.939509 0.816844 0.736331 0.184808
H71   H     H_    0.972754 0.740137 0.809664 0.179705
H72   H     H_    0.131475 0.249339 0.180150 0.139590
H73   H     H_    0.137082 0.346494 0.205161 0.189169
H74   H     H_    0.052684 0.306374 0.165812 0.178639
H75   H     H_    0.831842 0.826585 0.649093 0.202722
H76   H     H_    0.302595 0.698900 0.699092 0.206126
N1    N     N_R   0.480750 1.000000 0.209750 -0.135431
N2    N     N_R   0.519250 1.000000 0.790250 -0.135702
N3    N     N_R   0.980750 0.500000 0.209750 -0.135434
N4    N     N_R   0.019250 0.500000 0.790250 -0.135703
O1    O     O_R   0.418020 0.076820 0.422210 -0.607641
O2    O     O_R   0.569630 0.923170 0.391410 -0.571739
O3    O     O_R   0.569630 0.076830 0.391410 -0.579218
O4    O     O_R   0.430370 0.923170 0.608590 -0.558917
O5    O     O_R   0.930370 0.576830 0.608590 -0.582561
O6    O     O_R   0.069630 0.423170 0.391410 -0.571729
O7    O     O_R   0.069630 0.576830 0.391410 -0.579242
O8    O     O_R   0.930370 0.423170 0.608590 -0.558898
O9    O     O_3   0.610888 0.004890 0.184827 -0.618000
O10   O     O_3   0.389080 0.001832 0.815997 -0.612209
O11   O     O_3   0.110887 0.504918 0.184823 -0.617997
O12   O     O_R   0.581980 0.923180 0.577790 -0.604954
O13   O     O_3   0.889080 0.501847 0.815998 -0.612200
O14   O     O_3   0.691213 0.132912 0.657904 -0.586041
O15   O     O_3   0.307426 0.866803 0.343718 -0.593116
O16   O     O_3   0.289318 0.114981 0.367544 -0.582873
O17   O     O_3   0.712194 0.885760 0.631651 -0.590715
O18   O     O_3   0.191263 0.632864 0.657859 -0.586032
O19   O     O_3   0.807459 0.366770 0.343688 -0.593129
O20   O     O_3   0.789276 0.614943 0.367612 -0.582887
O21   O     O_3   0.212160 0.385731 0.631708 -0.590700
O22   O     O_3   0.587552 0.210450 0.310731 -0.619162
O23   O     O_R   0.581980 0.076820 0.577790 -0.585203
O24   O     O_3   0.401770 0.800311 0.702979 -0.583240
O25   O     O_3   0.432219 0.217607 0.656890 -0.607025
O26   O     O_3   0.578497 0.785877 0.327778 -0.594629
O27   O     O_3   0.087513 0.710494 0.310790 -0.619196
O28   O     O_3   0.901718 0.300352 0.703040 -0.583244
O29   O     O_3   0.932241 0.717622 0.656830 -0.607050
O30   O     O_3   0.078532 0.285901 0.327711 -0.594640
O31   O     O_R   0.418020 0.923180 0.422210 -0.590795
O32   O     O_R   0.918020 0.576820 0.422210 -0.607691
O33   O     O_R   0.081980 0.423180 0.577790 -0.604933
O34   O     O_R   0.081980 0.576820 0.577790 -0.585215
O35   O     O_R   0.918020 0.423180 0.422210 -0.590782
O36   O     O_R   0.430370 0.076830 0.608590 -0.582569
Zn1   Zn    Zn3+2 0.491750 1.000000 0.375560 1.020489
Zn2   Zn    Zn3+2 0.508250 1.000000 0.624440 1.027246
Zn3   Zn    Zn3+2 0.991750 0.500000 0.375560 1.020467
Zn4   Zn    Zn3+2 0.008250 0.500000 0.624440 1.027249

loop_
_geom_bond_atom_site_label_1
_geom_bond_atom_site_label_2
_ccdc_geom_bond_type
C34   O31   A    
C23   O23   A    
C8    C13   A    
C74   H48   S    
C46   O14   S    
C71   H38   S    
C2    C84   A    
C7    H34   S    
C14   C84   A    
C47   O17   S    
C67   O34   A    
C25   C43   A    
C53   C59   A    
C75   H50   S    
C48   C57   A    
C79   H61   S    
C76   H53   S    
C16   N4    A    
C7    C11   A    
C66   O14   S    
O23   Zn2   S    
N3    Zn3   S    
C6    H1    S    
C71   H36   S    
N2    Zn2   S    
C50   C59   A    
N1    Zn1   S    
C18   C37   A    
C32   H56   S    
C63   H14   S    
C52   C61   A    
C69   O16   S    
C12   O2    A    
C39   O25   S    
C75   H51   S    
C64   H16   S    
C22   C41   A    
C70   H33   S    
C73   H42   S    
C31   C40   A    
O33   Zn4   S    
O8    Zn4   S    
C68   H28   S    
C42   O30   S    
O1    Zn1   S    
C77   H58   S    
C82   O29   S    
C63   H15   S    
N4    Zn4   S    
C49   O19   S    
C82   H69   S    
C77   H55   S    
C44   C53   A    
C80   H63   S    
C79   H59   S    
C21   C38   A    
C79   H60   S    
C38   O26   S    
C79   O26   S    
C40   O28   S    
C29   C38   A    
C32   C41   A    
C31   H45   S    
C35   C43   A    
C3    C13   A    
C12   O12   A    
C74   O21   S    
C45   O32   A    
C80   H62   S    
C31   C54   A    
C62   H11   S    
C72   H40   S    
O35   Zn3   S    
C43   O29   S    
C71   O18   S    
C50   O18   S    
C66   H22   S    
C34   O4    A    
C18   C46   A    
C44   O15   S    
C65   H21   S    
C71   H37   S    
C77   H57   S    
C76   H52   S    
C64   H17   S    
C4    C11   A    
C29   C61   A    
C69   H30   S    
C41   O27   S    
C35   C55   A    
C18   C23   S    
O12   Zn2   S    
C33   H67   S    
C9    H5    S    
C20   C39   A    
C15   O9    S    
C57   C60   A    
C83   H72   S    
C67   O7    A    
C27   H76   S    
C73   H43   S    
C62   O9    S    
C12   C21   S    
C8    N3    A    
C49   C58   A    
C26   C56   S    
C64   O11   S    
C68   H27   S    
C14   N2    A    
C64   H18   S    
C81   O28   S    
C5    C9    A    
C51   O21   S    
C70   O17   S    
C37   O22   S    
C83   H73   S    
C6    N1    A    
C1    O1    A    
C70   H35   S    
C69   H29   S    
C46   C54   A    
C78   O8    A    
C68   H26   S    
O32   Zn3   S    
C2    C15   A    
O6    Zn3   S    
C20   C48   A    
C23   O3    A    
C4    C17   A    
C24   C78   S    
C76   O24   S    
C76   H54   S    
C62   H10   S    
C13   H8    S    
O34   Zn4   S    
C80   O27   S    
C1    O36   A    
C78   O35   A    
C82   H71   S    
C30   H4    S    
C3    C4    A    
C73   H44   S    
C8    H23   S    
C25   C45   S    
C32   C53   A    
C48   O16   S    
C5    H12   S    
C30   C60   A    
C19   C44   A    
C26   C42   A    
C63   O10   S    
C47   C55   A    
C56   O33   A    
C54   C58   A    
C75   O22   S    
C24   C49   A    
C73   O20   S    
C33   C42   A    
C69   H31   S    
C1    C20   S    
C33   C57   A    
C56   O6    A    
C15   N1    A    
C52   O20   S    
C72   O19   S    
C66   H24   S    
C19   C34   S    
C45   O5    A    
C6    C10   A    
C75   H49   S    
O31   Zn1   S    
C28   C58   A    
C27   C36   A    
C81   H68   S    
C7    N4    A    
C68   O15   S    
C22   C50   A    
C72   H41   S    
C19   C36   A    
C77   O25   S    
C5    N2    A    
C83   O30   S    
C74   H46   S    
C25   C52   A    
C72   H39   S    
C63   H13   S    
C27   C59   A    
C26   C51   A    
O5    Zn4   S    
C28   H2    S    
C17   N3    A    
C83   H74   S    
C65   O13   S    
C28   C37   A    
C81   H65   S    
C55   C61   A    
C10   C84   A    
C24   C40   A    
O4    Zn2   S    
C30   C39   A    
O3    Zn1   S    
C66   H25   S    
O7    Zn3   S    
C16   O13   S    
C35   H75   S    
C22   C67   S    
C29   H3    S    
C81   H66   S    
C82   H70   S    
C11   H7    S    
C80   H64   S    
C10   H6    S    
C14   O10   S    
C62   H9    S    
C70   H32   S    
C65   H19   S    
C51   C60   A    
C65   H20   S    
C36   O24   S    
C74   H47   S    
C2    C9    A    
O2    Zn1   S    
O36   Zn2   S    
C3    C16   A    
C17   O11   S    
C21   C47   A    
