data_mof_unit_44494.cif
_audit_creation_date              2013-03-05T16:12:48-0500
_audit_creation_method            fapswitch 2.2
_symmetry_space_group_name_H-M    P1
_symmetry_Int_Tables_number       1
_space_group_crystal_system       triclinic
_cell_length_a                    8.405493
_cell_length_b                    16.100364
_cell_length_c                    18.872303
_cell_angle_alpha                 112.043565
_cell_angle_beta                  91.571734
_cell_angle_gamma                 84.532242
_cell_volume                      2356.44773309

loop_
_atom_site_label
_atom_site_type_symbol
_atom_site_description
_atom_site_fract_x
_atom_site_fract_y
_atom_site_fract_z
_atom_type_partial_charge
P1    P     P_3+3 0.582960 0.413890 0.320860 0.544368
O1    O     O_2   0.402610 0.439360 0.314250 -0.307135
O2    O     O_3   0.648560 0.446300 0.404730 -0.420124
O3    O     O_3   0.108870 0.604000 0.387500 -0.325428
O4    O     O_2   0.223848 0.517596 0.248264 -0.342646
O5    O     O_3   0.601926 0.295932 0.280188 -0.508089
O6    O     O_3   0.149816 0.685273 0.275635 -0.607431
C1    C     C_3   0.018637 0.796721 0.231222 -0.468248
H1    H     H_    0.137649 0.811407 0.218002 0.228617
H2    H     H_    0.976839 0.745815 0.178017 0.206845
P2    P     P_3+3 0.071690 0.707860 0.593450 0.542484
P3    P     P_3+3 0.502979 0.768871 0.460838 0.526148
O7    O     O_2   0.241370 0.719440 0.573960 -0.337920
O8    O     O_3   0.507090 0.652150 0.432150 -0.387434
O9    O     O_2   0.359822 0.811352 0.515851 -0.277298
O10   O     O_3   0.074644 0.738363 0.692719 -0.511895
O11   O     O_3   0.446987 0.794767 0.381544 -0.462038
C2    C     C_3   0.565111 0.757635 0.324203 0.378381
H3    H     H_    0.639216 0.697878 0.327231 0.020130
H4    H     H_    0.644726 0.810477 0.330045 0.054037
C3    C     C_3   0.482528 0.728797 0.246643 -0.364611
H5    H     H_    0.457429 0.657172 0.228097 0.212369
H6    H     H_    0.368349 0.770488 0.252377 0.256903
C4    C     C_3   0.624818 0.739030 0.665141 0.379167
H7    H     H_    0.748985 0.716227 0.644184 0.074469
H8    H     H_    0.539998 0.718644 0.616794 0.122455
C5    C     C_3   0.606662 0.841134 0.703536 -0.799910
H9    H     H_    0.695983 0.863621 0.749730 0.272847
H10   H     H_    0.624763 0.872385 0.661704 0.179912
H11   H     H_    0.484576 0.864326 0.728372 0.303363
Ba1   Ba    Ba6+2 0.333520 0.539550 0.472180 1.683585
C6    C     C_3   0.560312 0.259855 0.332860 0.231586
H12   H     H_    0.433484 0.280777 0.348885 0.103838
H13   H     H_    0.636897 0.283231 0.384254 0.073136
C7    C     C_3   0.588269 0.156765 0.296773 -0.114997
H14   H     H_    0.595208 0.129040 0.342289 0.039977
H15   H     H_    0.703954 0.135962 0.265984 0.124264
C8    C     C_3   0.152122 0.669169 0.712033 0.195170
H16   H     H_    0.277298 0.654929 0.691048 0.090630
H17   H     H_    0.088525 0.607286 0.687538 0.103540
C9    C     C_3   0.149227 0.699314 0.799096 -0.074296
H18   H     H_    0.186225 0.641393 0.815792 0.102338
H19   H     H_    0.025216 0.724242 0.820499 0.186202
P4    P     P_3+3 0.606720 0.586180 0.679160 0.469501
O12   O     O_2   0.787080 0.560670 0.685800 -0.366224
O13   O     O_3   0.541120 0.553770 0.595290 -0.421882
O14   O     O_3   0.080800 0.396070 0.612520 -0.315229
O15   O     O_3   0.591337 0.703820 0.719705 -0.535348
P5    P     P_3+3 0.703682 0.231268 0.543125 0.513935
O16   O     O_3   0.164600 0.390590 0.443970 -0.346874
O17   O     O_3   0.682580 0.347920 0.567870 -0.391943
O18   O     O_2   0.856792 0.192801 0.494165 -0.324453
O19   O     O_3   0.746563 0.209795 0.627006 -0.486174
Ba2   Ba    Ba6+2 0.856270 0.460520 0.527840 1.635432
P6    P     P_3+3 0.090789 0.591043 0.290786 0.515430
C10   C     C_3   0.028953 0.757733 0.295312 0.882265
H20   H     H_    0.909136 0.736648 0.300477 -0.211718
O20   O     O_3   0.025080 0.609480 0.556050 -0.411480
C11   C     C_3   0.997771 0.219585 0.259115 0.806200
H21   H     H_    0.890184 0.235844 0.295558 -0.021975
C12   C     C_3   0.034677 0.117205 0.222611 -0.874393
H22   H     H_    0.061083 0.088535 0.266734 0.204866
H23   H     H_    0.931040 0.084920 0.189560 0.241281
H24   H     H_    0.138094 0.099890 0.182857 0.322969
P7    P     P_3+3 0.125256 0.278013 0.398209 0.480672
O21   O     O_2   0.948320 0.280590 0.426090 -0.384943
O22   O     O_3   0.131982 0.258948 0.299931 -0.555261
C13   C     C_3   0.664986 0.276863 0.690168 0.704426
H25   H     H_    0.704940 0.344342 0.700493 0.143061
C14   C     C_3   0.696267 0.256424 0.763083 -0.809646
H26   H     H_    0.810646 0.279228 0.788574 0.285912
H27   H     H_    0.607890 0.294369 0.809341 0.235674
H28   H     H_    0.692087 0.183528 0.750608 0.256775
P8    P     P_3+3 0.091000 0.406822 0.708543 0.526030
C15   C     C_3   0.119702 0.238175 0.704356 0.618918
H29   H     H_    0.235776 0.256785 0.725528 -0.024110
O23   O     O_2   0.955008 0.480202 0.744184 -0.330671
O24   O     O_3   0.011966 0.316363 0.724277 -0.552994
H30   H     H_    0.174138 0.115409 0.725585 0.169575
C16   C     C_3   0.084509 0.174838 0.745335 -0.156904
H31   H     H_    0.966436 0.148478 0.729334 0.156645
C17   C     C_R   0.505651 0.465580 0.042490 0.016304
C18   C     C_R   0.443084 0.411101 0.076191 -0.237594
C19   C     C_R   0.291498 0.442594 0.947694 -0.222650
C20   C     C_R   0.442027 0.471253 0.973766 0.036324
C21   C     C_R   0.226598 0.449034 0.881279 0.386553
C22   C     C_R   0.319983 0.473103 0.832199 -0.177118
C23   C     C_R   0.464813 0.511544 0.860909 -0.000263
C24   C     C_R   0.521501 0.514632 0.934060 0.023733
C25   C     C_R   0.272015 0.462646 0.756586 0.175470
C26   C     C_R   0.369347 0.491182 0.711965 -0.526465
C27   C     C_R   0.504203 0.537534 0.741537 0.258097
C28   C     C_R   0.548158 0.551188 0.818797 -0.052072
C29   C     C_R   0.644012 0.507743 0.074282 0.051156
C30   C     C_R   0.705298 0.503222 0.144671 0.012444
C31   C     C_R   0.627230 0.456820 0.183370 -0.186602
C32   C     C_R   0.505020 0.403481 0.142986 0.391924
H32   H     H_    0.334996 0.480778 0.653802 0.171939
C33   C     C_R   0.662750 0.609467 0.858170 -0.066350
C34   C     C_R   0.703590 0.622651 0.934560 0.384188
C35   C     C_R   0.652778 0.563609 0.968384 -0.085623
C36   C     C_R   0.722680 0.553289 0.035561 0.116018
C37   C     C_R   0.876007 0.578995 0.061509 -0.061361
C38   C     C_R   0.849376 0.541324 0.174128 0.047535
C39   C     C_R   0.938881 0.571506 0.128326 -0.267779
C40   C     C_R   0.900883 0.546304 0.247543 0.179268
C41   C     C_R   0.810571 0.512206 0.289851 -0.372301
C42   C     C_R   0.678471 0.464546 0.258976 0.254273
H33   H     H_    0.713182 0.650277 0.831869 0.188717
H34   H     H_    0.058014 0.591167 0.144031 0.170403
H35   H     H_    0.850496 0.517637 0.346303 0.159556
H36   H     H_    0.212006 0.426813 0.983940 0.184762
H37   H     H_    0.354778 0.365684 0.047077 0.196420
H38   H     H_    0.951783 0.603524 0.029971 0.187456
C43   C     C_2   0.413698 0.236018 0.470749 -0.441922
C44   C     C_R   0.806979 0.754163 0.519382 -0.499712
C45   C     C_2   0.240274 0.115309 0.407879 -0.122660
C46   C     C_2   0.266602 0.202065 0.427986 0.258810
C47   C     C_2   0.522510 0.181990 0.491229 0.169216
C48   C     C_3   0.476633 0.090202 0.484011 -0.064469
C49   C     C_3   0.368248 0.047990 0.416128 0.242131
C50   C     C_2   0.610077 0.022720 0.486349 0.192742
C51   C     C_2   0.586429 0.974065 0.528769 -0.080049
C52   C     C_R   0.844719 0.937920 0.578542 0.091024
C53   C     C_R   0.708580 0.906846 0.536612 -0.117087
C54   C     C_R   0.959417 0.878629 0.593682 0.246380
C55   C     C_R   0.939407 0.785973 0.564441 0.214201
C56   C     C_R   0.688005 0.814237 0.507629 0.129399
H39   H     H_    0.130812 0.090799 0.379788 0.125716
H40   H     H_    0.434398 0.305662 0.483696 0.150228
H41   H     H_    0.790846 0.683051 0.498040 0.168696
H42   H     H_    0.473417 0.983941 0.558747 0.177565
N1    N     N_R   0.069977 0.825297 0.368727 0.237169
O25   O     O_R   0.056551 0.807905 0.429895 -0.394991
O26   O     O_R   0.153163 0.890772 0.372032 -0.401596
N2    N     N_R   0.462221 0.117173 0.243658 0.275034
O27   O     O_R   0.437157 0.137106 0.183412 -0.234735
O28   O     O_R   0.396794 0.049314 0.248220 -0.422983
N3    N     N_R   0.254713 0.770462 0.834451 0.287035
O29   O     O_R   0.374023 0.758110 0.875842 -0.352223
O30   O     O_R   0.222235 0.849133 0.830348 -0.245944
C57   C     C_3   0.906295 0.882706 0.248991 -0.830876
H43   H     H_    0.887589 0.897436 0.196244 0.302079
H44   H     H_    0.789003 0.875163 0.269395 0.237609
H45   H     H_    0.957882 0.941293 0.292462 0.273617
N4    N     N_R   0.962459 0.255424 0.199089 0.251267
O31   O     O_R   0.882479 0.211321 0.138813 -0.300334
O32   O     O_R   0.997669 0.335837 0.208845 -0.351177
C58   C     C_3   0.578526 0.741703 0.185269 -0.879919
H46   H     H_    0.575580 0.814350 0.195497 0.301671
H47   H     H_    0.703591 0.713384 0.184965 0.263327
H48   H     H_    0.524029 0.707448 0.128747 0.285206
C59   C     C_3   0.487751 0.278635 0.677203 -0.996027
H49   H     H_    0.447946 0.311170 0.636717 0.245402
H50   H     H_    0.452904 0.208625 0.656242 0.262386
H51   H     H_    0.432895 0.320094 0.732304 0.212028
N5    N     N_R   0.122771 0.189445 0.621429 0.232652
O33   O     O_R   0.183949 0.224133 0.577934 -0.415370
O34   O     O_R   0.063015 0.112407 0.589844 -0.368726
N6    N     N_R   0.099191 0.217334 0.828204 0.280568
O35   O     O_R   0.984778 0.215462 0.872477 -0.280469
O36   O     O_R   0.237503 0.240403 0.857795 -0.372823
N7    N     N_R   0.057333 0.460760 0.878822 0.239524
O37   O     O_R   0.995977 0.540608 0.886660 -0.441563
O38   O     O_R   0.970366 0.407991 0.895680 -0.373270
N8    N     N_R   0.465858 0.327039 0.157338 0.262617
O39   O     O_R   0.560609 0.253632 0.128657 -0.250898
O40   O     O_R   0.317459 0.320111 0.170067 -0.268699
N9    N     N_R   0.787090 0.699785 0.977724 0.242230
O41   O     O_R   0.745727 0.747806 0.048204 -0.401098
O42   O     O_R   0.884516 0.731203 0.943651 -0.357790
N10   N     N_R   0.093291 0.913898 0.639733 0.249692
O43   O     O_R   0.186205 0.960601 0.618622 -0.364331
O44   O     O_R   0.103835 0.915034 0.708921 -0.328743
C60   C     C_3   0.757649 0.003766 0.437008 -0.796813
H52   H     H_    0.744650 0.038920 0.396472 0.210296
H53   H     H_    0.863554 0.025297 0.473256 0.309738
H54   H     H_    0.778779 0.930751 0.403583 0.219062

loop_
_geom_bond_atom_site_label_1
_geom_bond_atom_site_label_2
_geom_bond_distance
_ccdc_geom_bond_type
O5    C6    1.392496 S    
C39   H34   1.079122 S    
C35   C36   1.441782 A    
C17   C29   1.407055 A    
C51   H42   1.086680 S    
C5    H10   1.104040 S    
C2    C3    1.528222 S    
C9    H19   1.110160 S    
N9    O41   1.300035 A    
C18   H37   1.080280 S    
N7    O37   1.294472 A    
C4    C5    1.521490 S    
O6    P6    1.762514 S    
O8    Ba1   2.752883 S    
C22   C23   1.419259 A    
C1    C10   1.555079 S    
C38   C40   1.415567 A    
C10   N1    1.461461 S    
C60   H53   1.108142 S    
C36   C37   1.409600 A    
P5    C47   1.863562 S    
C30   C38   1.414453 A    
C19   H36   1.080193 S    
Ba1   O20   2.970799 S    
N7    O38   1.300542 A    
C4    H8    1.110257 S    
P1    O1    1.546392 D    
C58   H47   1.104553 S    
C8    H16   1.106888 S    
O2    Ba2   2.820110 S    
C51   C53   1.465436 S    
C40   C41   1.398885 A    
C50   C60   1.508893 S    
C33   H33   1.080388 S    
P1    Ba1   3.439155 S    
C10   H20   1.111045 S    
C2    H3    1.114458 S    
C9    H18   1.107034 S    
C12   H23   1.109605 S    
O19   C13   1.412316 S    
C45   C49   1.500459 S    
C34   C35   1.428750 A    
C11   O22   1.410586 S    
N5    O33   1.293106 A    
C7    H14   1.104834 S    
P4    O13   1.571190 S    
C1    H1    1.105399 S    
P7    O22   1.764257 S    
P8    O23   1.530743 D    
P3    O11   1.739826 S    
C53   C56   1.408578 A    
P7    C46   1.850633 S    
C14   H26   1.095383 S    
C3    C58   1.516496 S    
C59   H50   1.111174 S    
P2    O20   1.557076 S    
C45   H39   1.081074 S    
C15   C16   1.545156 S    
C28   C33   1.403539 A    
P8    O24   1.780575 S    
P4    C27   1.902127 S    
C15   N5    1.463632 S    
C31   C42   1.442277 A    
P2    Ba1   3.450978 S    
C11   H21   1.101458 S    
N5    O34   1.301301 A    
C3    H5    1.111847 S    
C5    H11   1.110939 S    
N8    O40   1.299670 A    
N9    O42   1.300755 A    
C57   H45   1.108338 S    
C32   N8    1.424333 S    
C29   C30   1.436379 A    
O6    C10   1.414438 S    
C38   C39   1.403547 A    
C15   O24   1.411489 S    
C48   C50   1.497172 S    
C60   H54   1.105058 S    
N4    O32   1.299534 A    
C11   C12   1.532910 S    
P6    C40   1.854537 S    
P1    O5    1.753919 S    
C4    O15   1.394782 S    
C6    C7    1.536190 S    
Ba1   Ba2   4.584965 S    
C37   H38   1.077545 S    
C54   N10   1.428873 S    
C19   C20   1.400926 A    
O14   P8    1.755039 S    
C8    C9    1.528800 S    
N2    O28   1.300476 A    
C13   C59   1.502388 S    
C47   C48   1.518511 S    
C58   H48   1.109777 S    
C26   C27   1.402563 A    
C20   C24   1.415900 A    
C21   C22   1.411222 A    
C13   H25   1.112719 S    
P5    O17   1.749181 S    
Ba1   O13   2.819553 S    
O1    Ba1   2.851363 S    
P1    O2    1.571190 S    
C6    H13   1.111173 S    
C12   H24   1.108529 S    
P2    C55   1.826104 S    
C15   H29   1.070423 S    
N3    O30   1.300563 A    
P2    O10   1.749496 S    
C60   H52   1.107329 S    
P3    O9    1.540236 D    
C41   C42   1.397325 A    
C43   C46   1.490573 S    
C31   C32   1.416845 A    
O13   Ba2   2.980625 S    
C14   H28   1.110912 S    
O11   C2    1.405173 S    
C37   C39   1.396189 A    
O16   Ba2   2.970011 S    
C4    H7    1.105046 S    
C59   H51   1.089107 S    
O2    Ba1   2.979836 S    
C44   C55   1.397959 A    
O14   Ba2   2.810453 S    
Ba2   O21   2.856052 S    
C13   C14   1.540968 S    
P3    O8    1.746668 S    
O12   Ba2   2.851891 S    
C17   C18   1.405515 A    
C43   C47   1.350528 D    
C3    H6    1.100805 S    
O3    P6    1.761541 S    
C18   C32   1.393942 A    
N1    O25   1.295973 A    
C57   H44   1.101721 S    
Ba1   O16   2.774956 S    
N10   O43   1.299204 A    
C48   C49   1.527592 S    
C7    H15   1.103719 S    
C52   C54   1.391629 A    
N4    O31   1.301101 A    
Ba2   O20   2.774411 S    
C23   C28   1.423491 A    
C24   C35   1.414995 A    
C34   N9    1.440081 S    
C41   H35   1.082281 S    
O4    P6    1.542112 D    
P4    O12   1.546689 D    
P5    O18   1.541879 D    
C19   C21   1.388745 A    
C16   H31   1.106305 S    
C7    N2    1.457556 S    
C14   H27   1.111726 S    
N3    O29   1.300413 A    
C50   C51   1.342850 D    
P3    C56   1.840934 S    
C17   C20   1.420588 A    
C33   C34   1.413623 A    
O17   Ba2   2.753490 S    
N6    O35   1.300919 A    
P8    C25   1.875672 S    
C30   C31   1.432278 A    
C45   C46   1.341814 D    
C6    H12   1.101903 S    
C8    H17   1.111021 S    
P2    O7    1.528123 D    
C25   C26   1.410471 A    
N8    O39   1.299317 A    
C44   H41   1.082559 S    
C54   C55   1.408206 A    
P5    O19   1.763858 S    
C27   C28   1.433931 A    
N10   O44   1.299685 A    
C2    H4    1.103565 S    
C26   H32   1.081710 S    
C12   H22   1.102085 S    
O7    Ba1   2.855907 S    
O16   P7    1.750447 S    
C9    N3    1.459778 S    
O3    Ba1   2.811077 S    
C16   N6    1.459978 S    
P1    C42   1.888091 S    
H30   C16   1.110103 S    
C11   N4    1.464213 S    
P4    Ba2   3.439690 S    
C23   C24   1.432582 A    
C29   C36   1.424842 A    
C1    H2    1.105070 S    
P7    O21   1.582787 D    
C44   C56   1.396170 A    
C22   C25   1.424163 A    
O10   C8    1.397002 S    
C5    H9    1.110739 S    
N1    O26   1.301074 A    
C57   H43   1.110577 S    
N2    O27   1.299239 A    
C1    C57   1.529854 S    
C21   N7    1.419081 S    
C59   H49   1.105938 S    
C58   H46   1.109602 S    
P4    O15   1.749433 S    
N6    O36   1.300920 A    
C52   C53   1.395782 A    
C43   H40   1.084649 S    
