data_mof_unit_42598.cif
_audit_creation_date              2012-12-10T18:43:46-0500
_audit_creation_method            fapswitch 2.2
_symmetry_space_group_name_H-M    P1
_symmetry_Int_Tables_number       1
_space_group_crystal_system       triclinic
_cell_length_a                    10.662881
_cell_length_b                    10.651536
_cell_length_c                    9.851159
_cell_angle_alpha                 90.060951
_cell_angle_beta                  104.278642
_cell_angle_gamma                 90.087175
_cell_volume                      1084.28939503

loop_
_atom_site_label
_atom_site_type_symbol
_atom_type_description
_atom_site_fract_x
_atom_site_fract_y
_atom_site_fract_z
_atom_type_partial_charge
C1    C     C_R   0.499940 0.260369 0.499875 0.949646
C2    C     C_2   0.881269 0.474621 0.593185 -0.073300
C3    C     C_2   0.068735 0.425065 0.507281 -0.138582
C4    C     C_2   0.931029 0.423785 0.493513 -0.178923
C5    C     C_R   0.597043 0.065318 0.453465 0.018051
C6    C     C_R   0.403010 0.934823 0.546615 0.015048
C7    C     C_R   0.597103 0.934990 0.453601 0.017382
C8    C     C_R   0.402866 0.065150 0.546324 0.018927
C9    C     C_R   0.500117 0.872095 0.500233 -0.078686
C10   C     C_R   0.499893 0.127997 0.499769 -0.071471
C11   C     C_R   0.500066 0.739658 0.500126 0.960507
C12   C     C_R   0.257613 0.495578 0.441164 0.889580
C13   C     C_R   0.742291 0.495524 0.558832 0.892198
C14   C     C_R   0.582517 0.576045 0.093979 -0.066861
C15   C     C_R   0.417511 0.423921 0.906025 -0.061825
C16   C     C_R   0.582490 0.575997 0.950152 -0.074276
C17   C     C_R   0.417531 0.423979 0.049851 -0.076889
C18   C     C_2   0.118264 0.475747 0.407257 -0.067729
H1    H     H_    0.869558 0.395980 0.392562 0.189557
H2    H     H_    0.980505 0.588005 0.290374 0.188507
H3    H     H_    0.694260 0.111010 0.307044 0.189933
H4    H     H_    0.786096 0.111102 0.474779 0.172993
H5    H     H_    0.214025 0.889258 0.525779 0.172790
H6    H     H_    0.306182 0.889254 0.693348 0.192040
H7    H     H_    0.693647 0.888980 0.306725 0.181847
H8    H     H_    0.786137 0.890287 0.474159 0.174542
H9    H     H_    0.213763 0.110065 0.525284 0.174831
H10   H     H_    0.305932 0.111276 0.692887 0.181216
H11   H     H_    0.130451 0.397647 0.608074 0.169317
H12   H     H_    0.648518 0.636888 0.166051 0.132019
H13   H     H_    0.351552 0.363034 0.833963 0.124368
H14   H     H_    0.648474 0.636764 0.913355 0.122770
H15   H     H_    0.351569 0.363190 0.086652 0.127019
H16   H     H_    0.908823 0.563222 0.783115 0.188187
H17   H     H_    0.993620 0.430536 0.783729 0.183213
H18   H     H_    0.093283 0.545059 0.208133 0.191396
N1    N     N_R   0.499970 0.499970 0.857200 -0.075725
N2    N     N_R   0.500030 0.500030 0.142800 -0.077766
N3    N     N_3   0.962653 0.512224 0.726593 -0.453919
N4    N     N_3   0.036778 0.512007 0.273432 -0.466048
N5    N     N_3   0.695986 0.135170 0.410334 -0.458778
N6    N     N_3   0.304187 0.865039 0.590002 -0.448198
N7    N     N_3   0.695930 0.865376 0.410252 -0.461753
N8    N     N_3   0.303917 0.134829 0.589415 -0.468914
O1    O     O_R   0.499990 0.316750 0.614620 -0.612910
O2    O     O_R   0.500010 0.683250 0.385380 -0.608885
O3    O     O_R   0.499990 0.316780 0.385290 -0.612795
O4    O     O_R   0.500010 0.683220 0.614710 -0.608522
O5    O     O_R   0.317810 0.500000 0.571850 -0.612763
O6    O     O_R   0.682190 0.500000 0.428150 -0.617054
O7    O     O_R   0.317810 0.500030 0.342520 -0.622628
O8    O     O_R   0.682190 0.499970 0.657480 -0.625139
Zn1   Zn    Zn3+2 0.500000 0.499980 0.653120 0.952407
Zn2   Zn    Zn3+2 0.500000 0.500020 0.346880 0.950049

loop_
_geom_bond_atom_site_label_1
_geom_bond_atom_site_label_2
_ccdc_geom_bond_type
C2    C4    D    
O5    Zn1   S    
C15   H13   S    
C7    N7    S    
C14   N2    A    
C13   O8    A    
H6    N6    S    
H16   N3    S    
H17   N3    S    
N2    Zn2   S    
C16   N1    A    
O7    Zn2   S    
N1    Zn1   S    
O2    Zn2   S    
C6    C9    A    
C12   O5    A    
O1    Zn1   S    
C5    C10   A    
C9    C11   S    
C1    O1    A    
C11   O4    A    
O6    Zn2   S    
H5    N6    S    
C17   H15   S    
C14   H12   S    
O3    Zn2   S    
H3    N5    S    
C6    C8    A    
H7    N7    S    
H8    N7    S    
C5    C7    A    
C17   N2    A    
O4    Zn1   S    
H2    N4    S    
C14   C16   A    
H4    N5    S    
C16   H14   S    
C2    N3    S    
C3    C4    S    
C7    C9    A    
H18   N4    S    
C12   O7    A    
O8    Zn1   S    
C3    C18   D    
C8    C10   A    
C6    N6    S    
C12   C18   S    
C3    H11   S    
C2    C13   S    
C5    N5    S    
C1    O3    A    
C11   O2    A    
C18   N4    S    
C15   C17   A    
C4    H1    S    
H9    N8    S    
H10   N8    S    
C15   N1    A    
C1    C10   S    
C13   O6    A    
C8    N8    S    
