data_mof_unit_5811.cif
_audit_creation_date              2012-12-10T18:57:48-0500
_audit_creation_method            fapswitch 2.2
_symmetry_space_group_name_H-M    P1
_symmetry_Int_Tables_number       1
_space_group_crystal_system       triclinic
_cell_length_a                    10.728095
_cell_length_b                    9.952015
_cell_length_c                    8.917146
_cell_angle_alpha                 90.181508
_cell_angle_beta                  92.986699
_cell_angle_gamma                 90.179423
_cell_volume                      950.746297367

loop_
_atom_site_label
_atom_site_type_symbol
_atom_type_description
_atom_site_fract_x
_atom_site_fract_y
_atom_site_fract_z
_atom_type_partial_charge
C1    C     C_R   0.260335 0.500289 0.504254 0.833997
C2    C     C_R   0.739705 0.500837 0.498471 0.835599
C3    C     C_R   0.499943 0.499794 0.218957 0.925047
C4    C     C_R   0.500724 0.500077 0.781091 0.922458
C5    C     C_1   0.500752 0.499447 0.065488 -0.204379
C6    C     C_1   0.500922 0.499859 0.934628 -0.204903
C7    C     C_R   0.061535 0.384745 0.474249 -0.204908
C8    C     C_R   0.937522 0.621341 0.539463 -0.179235
C9    C     C_R   0.934579 0.387957 0.458109 -0.230648
C10   C     C_R   0.065973 0.621062 0.542487 -0.177533
C11   C     C_R   0.872233 0.503895 0.497437 -0.008857
C12   C     C_R   0.127722 0.501852 0.509214 -0.007307
C13   C     C_R   0.574392 0.070950 0.601930 0.333687
C14   C     C_R   0.430824 0.926777 0.392307 0.287665
C15   C     C_R   0.428072 0.072286 0.394566 0.306440
C16   C     C_R   0.567796 0.927644 0.607817 0.341935
N1    N     N_R   0.500000 0.857200 0.500000 -0.185763
N2    N     N_R   0.500000 0.142800 0.500000 -0.191358
O1    O     O_R   0.316770 0.614620 0.499990 -0.586296
O2    O     O_R   0.683230 0.385380 0.500010 -0.640386
O3    O     O_R   0.683230 0.614620 0.500010 -0.595286
O4    O     O_R   0.316770 0.385380 0.499990 -0.610780
O5    O     O_R   0.500010 0.614640 0.285340 -0.602707
O6    O     O_R   0.499990 0.385360 0.714660 -0.575045
O7    O     O_R   0.499990 0.614640 0.714660 -0.611519
O8    O     O_R   0.500010 0.385360 0.285340 -0.553879
Zn1   Zn    Zn3+2 0.500000 0.653120 0.500000 0.999815
Zn2   Zn    Zn3+2 0.500000 0.346880 0.500000 1.006236
H1    H     H_    0.107327 0.291490 0.456179 0.162268
H2    H     H_    0.889825 0.712454 0.569712 0.165670
H3    H     H_    0.885865 0.299477 0.416277 0.136903
H4    H     H_    0.116394 0.712655 0.572236 0.158489
O9    O     O_3   0.658421 0.136647 0.699994 -0.579604
C17   C     C_3   0.775608 0.147833 0.633941 0.208090
H5    H     H_    0.814651 0.247465 0.666533 0.178924
H6    H     H_    0.768868 0.140611 0.508862 0.105936
C18   C     C_3   0.872001 0.046248 0.693589 -0.914596
H7    H     H_    0.843240 0.942219 0.664888 0.289034
H8    H     H_    0.961590 0.065326 0.640131 0.201673
H9    H     H_    0.889833 0.058012 0.816395 0.258177
O10   O     O_3   0.353237 0.853663 0.293578 -0.576287
C19   C     C_3   0.395509 0.860981 0.146391 0.108315
H10   H     H_    0.488340 0.813997 0.141354 0.157612
H11   H     H_    0.403369 0.965605 0.105402 0.160171
C20   C     C_3   0.302881 0.786668 0.040203 -0.854244
H12   H     H_    0.210386 0.836452 0.039016 0.243973
H13   H     H_    0.335687 0.786852 0.924264 0.199961
H14   H     H_    0.291901 0.681177 0.077395 0.268591
O11   O     O_3   0.367855 0.144938 0.279940 -0.571448
C21   C     C_3   0.237832 0.121128 0.272176 0.149301
H15   H     H_    0.199906 0.117528 0.385469 0.109863
H16   H     H_    0.213208 0.025206 0.215592 0.178482
C22   C     C_3   0.174779 0.230090 0.175841 -0.848644
H17   H     H_    0.202609 0.220228 0.058047 0.249626
H18   H     H_    0.071751 0.219802 0.177526 0.204681
H19   H     H_    0.203250 0.331309 0.217713 0.268834
O12   O     O_3   0.638319 0.857456 0.715649 -0.576221
C23   C     C_3   0.594742 0.880921 0.860926 0.192182
H20   H     H_    0.557904 0.784981 0.902247 0.158269
H21   H     H_    0.518351 0.956514 0.865910 0.104319
C24   C     C_3   0.702158 0.922500 0.970172 -0.847493
H22   H     H_    0.722104 0.031121 0.958762 0.280019
H23   H     H_    0.677008 0.905702 0.087693 0.184306
H24   H     H_    0.786884 0.862659 0.949863 0.262780

loop_
_geom_bond_atom_site_label_1
_geom_bond_atom_site_label_2
_ccdc_geom_bond_type
C15   N2    A    
C21   H16   S    
C13   O9    S    
C18   H7    S    
C7    H1    S    
O5    Zn1   S    
O7    Zn1   S    
C17   C18   S    
O1    Zn1   S    
O10   C19   S    
O8    Zn2   S    
C17   H5    S    
C8    H2    S    
C7    C9    A    
C23   C24   S    
C22   H18   S    
C4    O7    A    
O3    Zn1   S    
C1    O4    A    
C18   H8    S    
O4    Zn2   S    
C22   H17   S    
C24   H24   S    
C9    C11   A    
C14   N1    A    
O12   C23   S    
C7    C12   A    
C1    C12   S    
C19   H11   S    
C13   N2    A    
C2    O3    A    
C8    C11   A    
C5    C6    T    
C2    C11   S    
C10   C12   A    
C8    C10   A    
O9    C17   S    
C18   H9    S    
C17   H6    S    
C16   O12   S    
C14   O10   S    
C24   H22   S    
C4    O6    A    
C22   H19   S    
C21   C22   S    
C1    O1    A    
C19   H10   S    
C9    H3    S    
C23   H21   S    
N1    Zn1   S    
O2    Zn2   S    
C10   H4    S    
N2    Zn2   S    
C4    C6    S    
O11   C21   S    
C20   H13   S    
C13   C16   A    
C24   H23   S    
C3    O5    A    
C14   C15   A    
C20   H14   S    
C21   H15   S    
C23   H20   S    
C20   H12   S    
C2    O2    A    
C3    O8    A    
O6    Zn2   S    
C15   O11   S    
C16   N1    A    
C3    C5    S    
C19   C20   S    
