data_mof_unit_29308.cif
_audit_creation_date              2012-12-11T17:43:42-0500
_audit_creation_method            fapswitch 2.2
_symmetry_space_group_name_H-M    P1
_symmetry_Int_Tables_number       1
_space_group_crystal_system       triclinic
_cell_length_a                    15.052898
_cell_length_b                    15.202748
_cell_length_c                    16.925411
_cell_angle_alpha                 108.771576
_cell_angle_beta                  106.126991
_cell_angle_gamma                 109.370752
_cell_volume                      3122.72613035

loop_
_atom_site_label
_atom_site_type_symbol
_atom_type_description
_atom_site_fract_x
_atom_site_fract_y
_atom_site_fract_z
_atom_type_partial_charge
C1    C     C_R   0.087059 0.291533 0.079797 -0.164304
C2    C     C_R   0.085050 0.092114 0.047298 -0.235029
C3    C     C_R   0.001247 0.920689 0.034228 0.066368
C4    C     C_R   0.004493 0.110704 0.060602 0.058703
C5    C     C_R   0.083739 0.997470 0.032000 0.016923
C6    C     C_R   0.924237 0.037073 0.067363 0.021532
C7    C     C_R   0.736928 0.984964 0.038428 -0.171897
C8    C     C_R   0.271385 0.044351 0.070284 -0.188259
C9    C     C_R   0.689151 0.102562 0.131675 -0.098144
C10   C     C_R   0.322775 0.955981 0.958394 -0.098953
C11   C     C_R   0.481389 0.579668 0.270191 -0.120788
C12   C     C_R   0.909531 0.722632 0.962417 -0.142430
C13   C     C_R   0.510032 0.310846 0.647707 -0.113433
C14   C     C_R   0.474388 0.558288 0.181346 -0.116065
C15   C     C_R   0.497891 0.322203 0.728785 -0.134136
C16   C     C_R   0.935674 0.515989 0.745118 -0.141678
C17   C     C_R   0.064384 0.549397 0.264930 -0.127606
C18   C     C_R   0.445814 0.456165 0.118240 0.110247
C19   C     C_R   0.473703 0.400817 0.772833 0.116632
C20   C     C_R   0.425934 0.376278 0.145611 -0.195741
C21   C     C_R   0.460205 0.466508 0.733204 -0.171120
C22   C     C_R   0.431833 0.397879 0.234194 -0.119109
C23   C     C_R   0.027092 0.573327 0.742141 0.064913
C24   C     C_R   0.472019 0.454541 0.651868 -0.108293
C25   C     C_R   0.459551 0.499545 0.296465 -0.101908
C26   C     C_R   0.497158 0.376994 0.609303 -0.101236
C27   C     C_R   0.520928 0.416751 0.011355 -0.229958
C28   C     C_R   0.380298 0.427816 0.872311 -0.241799
C29   C     C_R   0.537248 0.415382 0.934039 0.058226
C30   C     C_R   0.371008 0.440461 0.954870 0.069428
C31   C     C_R   0.464122 0.414964 0.860659 0.022756
C32   C     C_R   0.441601 0.433391 0.024824 0.016991
C33   C     C_R   0.660544 0.006837 0.059086 -0.106890
C34   C     C_R   0.972182 0.535742 0.274027 0.057232
C35   C     C_R   0.349408 0.031142 0.046307 -0.118718
C36   C     C_R   0.963830 0.580853 0.360692 0.129577
C37   C     C_R   0.035768 0.611160 0.673836 0.131166
C38   C     C_R   0.140792 0.681113 0.602464 -0.222366
C39   C     C_R   0.860080 0.563383 0.446611 -0.226882
C40   C     C_R   0.777136 0.203735 0.812436 -0.135108
C41   C     C_R   0.279030 0.784976 0.176853 -0.147989
C42   C     C_R   0.133713 0.660116 0.674941 -0.204231
C43   C     C_R   0.866114 0.549722 0.363284 -0.174488
C44   C     C_R   0.945483 0.590541 0.602375 -0.286162
C45   C     C_R   0.760732 0.198276 0.725735 0.057235
C46   C     C_R   0.054939 0.641088 0.443628 -0.278081
C47   C     C_R   0.951344 0.603840 0.526192 0.189427
C48   C     C_R   0.049657 0.646785 0.525414 0.192769
C49   C     C_R   0.720080 0.103394 0.639550 0.132410
C50   C     C_R   0.443127 0.858487 0.323301 0.131912
C51   C     C_R   0.589159 0.031594 0.393275 -0.225762
C52   C     C_R   0.615781 0.915098 0.555016 -0.231580
C53   C     C_R   0.496722 0.950698 0.318642 -0.175691
C54   C     C_R   0.684988 0.004586 0.637924 -0.170146
C55   C     C_R   0.489641 0.843305 0.398459 -0.304276
C56   C     C_R   0.334975 0.783447 0.255999 0.066942
C57   C     C_R   0.700589 0.109799 0.556126 -0.286129
C58   C     C_R   0.579831 0.924817 0.474334 0.197877
C59   C     C_R   0.626757 0.021567 0.473597 0.190611
C60   C     C_R   0.794246 0.176469 0.184067 -0.112900
C61   C     C_R   0.218123 0.894177 0.894392 -0.122072
C62   C     C_R   0.870922 0.154809 0.163943 -0.132819
C63   C     C_R   0.139650 0.906297 0.918216 -0.119827
C64   C     C_R   0.262698 0.536902 0.952222 -0.137385
C65   C     C_R   0.699139 0.402488 0.994208 -0.154835
C66   C     C_R   0.842940 0.059099 0.090324 0.115844
C67   C     C_R   0.289915 0.463573 0.969082 0.045440
C68   C     C_R   0.165803 0.981116 0.006694 0.113921
C69   C     C_R   0.782404 0.298319 0.734733 -0.129110
C70   C     C_R   0.273778 0.690581 0.253534 -0.137044
C71   C     C_R   0.245267 0.434371 0.022792 -0.107075
C72   C     C_R   0.704556 0.500780 0.920917 -0.122265
C73   C     C_R   0.108652 0.599712 0.822402 -0.139520
C74   C     C_R   0.890265 0.464527 0.187415 -0.135198
C75   C     C_R   0.914499 0.204038 0.999915 -0.126174
C76   C     C_R   0.083824 0.805693 0.045494 -0.110767
C77   C     C_R   0.000568 0.200043 0.050972 0.058928
C78   C     C_R   0.640945 0.435044 0.944287 0.056575
C79   C     C_R   0.996895 0.820215 0.018815 0.048636
C80   C     C_R   0.923414 0.941206 0.053304 -0.240810
H1    H     H_    0.165315 0.318700 0.129709 0.106305
H2    H     H_    0.442369 0.528120 0.766020 0.105856
H3    H     H_    0.415392 0.335928 0.254676 0.104427
H4    H     H_    0.462206 0.505809 0.622073 0.102803
H5    H     H_    0.577876 0.418249 0.068278 0.128958
H6    H     H_    0.322999 0.429242 0.817941 0.131619
H7    H     H_    0.130962 0.671401 0.443904 0.117459
H8    H     H_    0.869479 0.554998 0.600991 0.115391
H9    H     H_    0.216731 0.714464 0.602709 0.124793
H10   H     H_    0.784057 0.532209 0.446642 0.127315
H11   H     H_    0.857113 0.495183 0.701003 0.087592
H12   H     H_    0.829693 0.705951 0.926784 0.098942
H13   H     H_    0.143356 0.598656 0.317595 0.094859
H14   H     H_    0.579064 0.949706 0.018527 0.099961
H15   H     H_    0.430481 0.079506 0.095705 0.099905
H16   H     H_    0.732047 0.184596 0.555577 0.119102
H17   H     H_    0.451034 0.772696 0.403315 0.111855
H18   H     H_    0.703269 0.996269 0.700684 0.115287
H19   H     H_    0.464609 0.963892 0.260551 0.114688
H20   H     H_    0.625576 0.104945 0.391236 0.125296
H21   H     H_    0.582518 0.840433 0.555772 0.122879
H22   H     H_    0.629896 0.119433 0.147365 0.092548
H23   H     H_    0.713223 0.910969 0.981119 0.107158
H24   H     H_    0.383226 0.946124 0.939636 0.095656
H25   H     H_    0.816359 0.250600 0.240333 0.113574
H26   H     H_    0.197893 0.837525 0.826068 0.122100
H27   H     H_    0.952052 0.212775 0.205607 0.113545
H28   H     H_    0.058878 0.858061 0.867833 0.114499
H29   H     H_    0.767518 0.140964 0.831085 0.093303
H30   H     H_    0.308565 0.836899 0.148975 0.093486
H31   H     H_    0.286419 0.577473 0.913917 0.097450
H32   H     H_    0.670918 0.341246 0.013796 0.096199
H33   H     H_    0.777152 0.323333 0.681592 0.094742
H34   H     H_    0.292992 0.103293 0.138481 0.111866
H35   H     H_    0.297832 0.655286 0.295885 0.088272
H36   H     H_    0.247596 0.376575 0.045811 0.113017
H37   H     H_    0.682135 0.533971 0.875851 0.104975
H38   H     H_    0.189069 0.657082 0.850083 0.086758
H39   H     H_    0.807837 0.435808 0.168590 0.094111
H40   H     H_    0.833562 0.149155 0.974243 0.103747
H41   H     H_    0.163985 0.864221 0.089122 0.111938
H42   H     H_    0.862953 0.882821 0.058180 0.132584
H43   H     H_    0.145379 0.148372 0.040336 0.134057
H44   H     H_    0.464787 0.516406 0.365266 0.096201
H45   H     H_    0.504586 0.658500 0.318887 0.115951
H46   H     H_    0.506637 0.368155 0.546550 0.097225
H47   H     H_    0.794207 0.507735 0.300809 0.118967
H48   H     H_    0.204972 0.677863 0.729194 0.112743
H49   H     H_    0.529490 0.250765 0.614692 0.114722
H50   H     H_    0.491592 0.621034 0.161798 0.114214
H51   H     H_    0.507789 0.269984 0.757412 0.114501
H52   H     H_    0.404843 0.297318 0.097993 0.123972
N1    N     N_R   0.055660 0.348550 0.045620 -0.037773
N2    N     N_R   0.185200 0.638170 0.176300 -0.038569
N3    N     N_R   0.201680 0.494570 0.045620 -0.042276
N4    N     N_R   0.798320 0.505430 0.954380 -0.039814
N5    N     N_R   0.068420 0.560530 0.871650 -0.036740
N6    N     N_R   0.931580 0.439470 0.128350 -0.038952
N7    N     N_R   0.948070 0.295860 0.997670 -0.039830
N8    N     N_R   0.051930 0.704140 0.002330 -0.042406
N9    N     N_R   0.944340 0.651450 0.954380 -0.040119
N10   N     N_R   0.960830 0.507850 0.823700 -0.038436
N11   N     N_R   0.039170 0.492150 0.176300 -0.041189
N12   N     N_R   0.811290 0.303410 0.871650 -0.040751
N13   N     N_R   0.188710 0.696590 0.128350 -0.038982
N14   N     N_R   0.205200 0.552990 0.997670 -0.040798
N15   N     N_R   0.794800 0.447010 0.002330 -0.037661
N16   N     N_R   0.814800 0.361830 0.823700 -0.039798
Ni1   Ni    Ni4+2 0.119340 0.493420 0.109960 0.215513
Ni2   Ni    Ni4+2 0.880660 0.506580 0.890040 0.214143
Ni3   Ni    Ni4+2 0.872590 0.372590 0.000000 0.214583
Ni4   Ni    Ni4+2 0.127410 0.627410 0.000000 0.215449

loop_
_geom_bond_atom_site_label_1
_geom_bond_atom_site_label_2
_ccdc_geom_bond_type
N5    N10   A    
C27   C29   A    
C1    C77   A    
C14   C18   A    
C16   N10   A    
C76   C79   A    
N12   N16   A    
C19   C31   S    
C33   H14   S    
C41   C56   A    
C80   H42   S    
C2    H43   S    
C53   H19   S    
C15   C19   A    
C74   H39   S    
C74   N6    A    
C38   H9    S    
C69   H33   S    
C18   C32   S    
C76   H41   S    
C19   C21   A    
C20   H52   S    
C38   C42   A    
N12   Ni3   S    
N6    N11   A    
C71   N3    A    
C11   C14   A    
C57   C59   A    
C11   C25   A    
C1    H1    S    
C49   C54   A    
C12   C79   A    
C49   C57   A    
C12   N9    A    
C18   C20   A    
C60   C62   A    
C26   H46   S    
C37   C42   A    
C27   H5    S    
C72   C78   A    
C29   C78   S    
C9    H22   S    
C22   C25   A    
C72   H37   S    
N11   Ni1   S    
N5    Ni4   S    
C36   C46   A    
C10   C35   A    
C65   C78   A    
C65   N15   A    
N8    Ni4   S    
C39   H10   S    
C38   C48   A    
C30   C67   S    
C44   C47   A    
C42   H48   S    
C64   N14   A    
C3    C79   S    
C10   H24   S    
C7    H23   S    
C9    C33   A    
C7    C33   A    
C23   C73   A    
C5    C68   S    
C1    N1    A    
C3    C80   A    
C52   C54   A    
N9    Ni2   S    
C51   C59   A    
C76   N8    A    
C40   C45   A    
C46   C48   A    
C52   H21   S    
C50   C53   A    
C62   C66   A    
C45   C69   A    
N4    N15   A    
C64   C67   A    
N1    Ni1   S    
N8    N9    A    
C4    C6    A    
C43   H47   S    
C64   H31   S    
C39   C43   A    
C62   H27   S    
C58   C59   A    
N3    Ni1   S    
N2    Ni1   S    
C57   H16   S    
C50   C56   S    
C51   C53   A    
C8    C35   A    
C2    C4    A    
C65   H32   S    
C6    C80   A    
C47   C48   A    
C45   C49   S    
N3    N14   A    
C55   H17   S    
C61   C63   A    
C15   H51   S    
C61   H26   S    
C75   C77   A    
C52   C58   A    
C34   C74   A    
N14   Ni4   S    
N16   Ni2   S    
C20   C22   A    
C8    C68   A    
C16   C23   A    
C56   C70   A    
C41   H30   S    
C13   C15   A    
C28   H6    S    
C70   H35   S    
C13   C26   A    
C21   C24   A    
C10   C61   A    
C17   H13   S    
C17   C34   A    
C39   C47   A    
C46   H7    S    
C14   H50   S    
C51   H20   S    
N2    N13   A    
C63   C68   A    
C73   H38   S    
C11   H45   S    
C27   C32   A    
C12   H12   S    
C28   C31   A    
C75   H40   S    
C24   C26   A    
C3    C5    A    
N4    Ni2   S    
N1    N7    A    
C40   H29   S    
C8    H34   S    
N6    Ni3   S    
C50   C55   A    
C17   N11   A    
C9    C60   A    
C22   H3    S    
N10   Ni2   S    
C37   C44   A    
C40   N12   A    
C24   H4    S    
C4    C77   S    
C29   C31   A    
C23   C37   S    
C7    C66   A    
C30   C32   A    
C73   N5    A    
N15   Ni3   S    
N7    Ni3   S    
C34   C36   S    
C28   C30   A    
C71   H36   S    
C67   C71   A    
C25   H44   S    
N13   Ni4   S    
C72   N4    A    
C2    C5    A    
C6    C66   S    
C41   N13   A    
C21   H2    S    
C16   H11   S    
C55   C58   A    
C70   N2    A    
C69   N16   A    
C13   H49   S    
C54   H18   S    
C36   C43   A    
C75   N7    A    
C63   H28   S    
C44   H8    S    
C60   H25   S    
C35   H15   S    
