data_mof_unit_6414.cif
_audit_creation_date              2012-12-10T19:43:25-0500
_audit_creation_method            fapswitch 2.2
_symmetry_space_group_name_H-M    P1
_symmetry_Int_Tables_number       1
_space_group_crystal_system       triclinic
_cell_length_a                    10.956256
_cell_length_b                    10.855563
_cell_length_c                    9.641771
_cell_angle_alpha                 89.894043
_cell_angle_beta                  91.249905
_cell_angle_gamma                 91.824139
_cell_volume                      1145.90221562

loop_
_atom_site_label
_atom_site_type_symbol
_atom_type_description
_atom_site_fract_x
_atom_site_fract_y
_atom_site_fract_z
_atom_type_partial_charge
C1    C     C_R   0.507897 0.262646 0.500966 0.788209
C2    C     C_R   0.901111 0.548414 0.971468 0.216312
C3    C     C_R   0.885391 0.437575 0.044967 -0.141861
C4    C     C_R   0.262748 0.496086 0.498230 0.791630
C5    C     C_R   0.879204 0.325306 0.974392 -0.192340
C6    C     C_R   0.890687 0.323330 0.830505 -0.110510
C7    C     C_R   0.897131 0.434034 0.755626 0.125865
C8    C     C_R   0.560037 0.110323 0.761772 0.181714
C9    C     C_R   0.522526 0.054038 0.884609 -0.151256
C10   C     C_R   0.452699 0.945392 0.880109 -0.196780
C11   C     C_R   0.431187 0.885343 0.753776 -0.165237
C12   C     C_R   0.214486 0.749709 0.048955 -0.123314
C13   C     C_R   0.475024 0.937600 0.629092 0.068103
C14   C     C_R   0.518251 0.061058 0.631543 0.061868
C15   C     C_R   0.516987 0.127888 0.504287 -0.127122
C16   C     C_R   0.490102 0.737015 0.500240 0.786141
C17   C     C_R   0.505257 0.063688 0.378417 -0.216859
C18   C     C_R   0.493174 0.936438 0.377721 -0.221230
C19   C     C_R   0.480018 0.871530 0.502462 -0.104744
C20   C     C_R   0.632953 0.686575 0.144284 -0.174436
C21   C     C_R   0.680211 0.788177 0.072878 -0.262229
C22   C     C_R   0.687427 0.783150 0.930228 -0.191038
C23   C     C_R   0.935224 0.553343 0.397710 -0.259522
C24   C     C_R   0.639479 0.680770 0.859504 -0.123826
C25   C     C_R   0.566916 0.589998 0.926592 0.205474
C26   C     C_R   0.565418 0.591240 0.075462 0.228666
C27   C     C_R   0.437392 0.412998 0.072411 -0.074330
C28   C     C_R   0.737924 0.499141 0.502060 0.776391
C29   C     C_R   0.436773 0.413515 0.924811 -0.123061
C30   C     C_R   0.179226 0.813705 0.166453 -0.133035
C31   C     C_R   0.132387 0.749090 0.280111 -0.151584
C32   C     C_R   0.121348 0.619988 0.276523 0.149840
C33   C     C_R   0.161017 0.556105 0.159910 -0.031979
C34   C     C_R   0.872667 0.496287 0.505602 -0.135292
C35   C     C_R   0.207715 0.621140 0.046602 -0.095533
C36   C     C_R   0.940070 0.438071 0.612431 0.011672
C37   C     C_R   0.066087 0.424296 0.599296 0.115850
C38   C     C_R   0.128900 0.488619 0.493975 -0.135262
C39   C     C_R   0.062094 0.552014 0.391039 -0.036982
C40   C     C_R   0.901191 0.546108 0.826892 -0.165136
Cu1   Cu    Cu3+1 0.499990 0.499990 0.640660 0.910299
Cu2   Cu    Cu3+1 0.500010 0.500010 0.359340 0.934184
H1    H     H_    0.243520 0.799511 0.958038 0.113938
H2    H     H_    0.385446 0.341867 0.125925 0.133068
H3    H     H_    0.185257 0.913402 0.167988 0.124955
H4    H     H_    0.659788 0.682364 0.250945 0.195520
H5    H     H_    0.726197 0.863137 0.129025 0.155850
H6    H     H_    0.737290 0.854951 0.875097 0.155894
H7    H     H_    0.665022 0.674425 0.753911 0.194929
H8    H     H_    0.384719 0.342476 0.869024 0.147456
H9    H     H_    0.102324 0.799428 0.369351 0.117692
H10   H     H_    0.152389 0.456505 0.155393 0.105461
H11   H     H_    0.234205 0.572297 0.954946 0.124287
H12   H     H_    0.884009 0.437215 0.156747 0.151445
H13   H     H_    0.884244 0.604395 0.321920 0.149520
H14   H     H_    0.917369 0.631195 0.770091 0.111157
H15   H     H_    0.628545 0.279028 0.820031 0.264235
H16   H     H_    0.694627 0.220750 0.675817 0.214850
H17   H     H_    0.175350 0.407198 0.772053 0.239063
H18   H     H_    0.190318 0.293858 0.649990 0.218399
H19   H     H_    0.935099 0.735551 0.975735 0.218254
H20   H     H_    0.870049 0.675627 0.117743 0.217833
H21   H     H_    0.872362 0.239699 0.031832 0.145834
H22   H     H_    0.899002 0.236011 0.777988 0.152488
H23   H     H_    0.506602 0.111604 0.279768 0.159711
H24   H     H_    0.551799 0.092119 0.984115 0.137314
H25   H     H_    0.424729 0.902921 0.976207 0.152147
H26   H     H_    0.379236 0.799095 0.755046 0.162441
H27   H     H_    0.492846 0.889148 0.278901 0.175033
N1    N     N_R   0.501190 0.501210 0.147910 -0.193868
N2    N     N_R   0.501230 0.501290 0.852040 -0.209498
N3    N     N_3   0.658779 0.199439 0.772788 -0.608100
N4    N     N_3   0.129206 0.350067 0.699916 -0.607540
N5    N     N_3   0.934115 0.660130 0.043314 -0.591592
O1    O     O_R   0.499990 0.319640 0.618810 -0.591715
O2    O     O_R   0.500000 0.319660 0.381240 -0.583118
O3    O     O_R   0.319640 0.500000 0.618780 -0.589677
O4    O     O_R   0.319650 0.500020 0.381210 -0.575345
O5    O     O_R   0.500000 0.680340 0.618760 -0.607434
O6    O     O_R   0.500010 0.680360 0.381190 -0.593278
O7    O     O_R   0.680350 0.499980 0.618790 -0.599709
O8    O     O_R   0.680360 0.500000 0.381220 -0.595627

loop_
_geom_bond_atom_site_label_1
_geom_bond_atom_site_label_2
_ccdc_geom_bond_type
C22   H6    S    
Cu2   O6    S    
C35   H11   S    
C7    C36   S    
C30   H3    S    
Cu2   O8    S    
C10   H25   S    
C33   H10   S    
C36   C37   A    
C12   H1    S    
Cu1   O3    S    
C38   C39   A    
C3    H12   S    
C27   C29   A    
H18   N4    S    
Cu2   N1    S    
C5    H21   S    
C18   C19   A    
Cu1   Cu2   S    
C32   C39   S    
C6    H22   S    
C9    H24   S    
C27   H2    S    
C8    C9    A    
C40   H14   S    
C7    C40   A    
C25   N2    A    
C9    C10   A    
H17   N4    S    
C2    N5    S    
Cu1   N2    S    
C18   H27   S    
C28   C34   S    
C13   C14   A    
C29   H8    S    
C8    N3    S    
C13   C19   A    
C28   O8    A    
C1    O1    A    
C24   C25   A    
C25   C26   A    
C16   O6    A    
C4    O4    A    
C37   C38   A    
Cu1   O1    S    
C31   C32   A    
C30   C31   A    
C23   C34   A    
Cu1   O7    S    
C17   C18   A    
C12   C35   A    
C27   N1    A    
C1    C15   S    
C4    C38   S    
Cu2   O4    S    
C26   N1    A    
C22   C24   A    
C11   H26   S    
C24   H7    S    
C15   C17   A    
C37   N4    S    
C8    C14   A    
C12   C30   A    
C28   O7    A    
C1    O2    A    
Cu2   O2    S    
C31   H9    S    
C3    C5    A    
Cu1   O5    S    
C23   H13   S    
C6    C7    A    
H19   N5    S    
C17   H23   S    
C16   O5    A    
C32   C33   A    
C2    C3    A    
C4    O3    A    
C11   C13   A    
H16   N3    S    
C5    C6    A    
C20   C26   A    
C16   C19   S    
C23   C39   A    
C33   C35   A    
C34   C36   A    
H15   N3    S    
C10   C11   A    
C2    C40   A    
C20   C21   A    
C14   C15   A    
H20   N5    S    
C21   H5    S    
C21   C22   A    
C20   H4    S    
C29   N2    A    
