data_mof_unit_66149.cif
_audit_creation_date              2012-12-10T19:15:23-0500
_audit_creation_method            fapswitch 2.2
_symmetry_space_group_name_H-M    P1
_symmetry_Int_Tables_number       1
_space_group_crystal_system       triclinic
_cell_length_a                    24.400786
_cell_length_b                    24.420927
_cell_length_c                    43.180761
_cell_angle_alpha                 90.006226
_cell_angle_beta                  89.984801
_cell_angle_gamma                 90.080073
_cell_volume                      25730.9494416

loop_
_atom_site_label
_atom_site_type_symbol
_atom_type_description
_atom_site_fract_x
_atom_site_fract_y
_atom_site_fract_z
_atom_type_partial_charge
C1    C     C_R   0.270898 0.228927 0.249951 0.065743
C2    C     C_R   0.728482 0.228987 0.250406 0.068329
C3    C     C_R   0.999982 0.500050 0.967449 0.106156
C4    C     C_R   0.000239 0.499985 0.532552 0.106230
C5    C     C_R   0.000325 0.499989 0.467461 0.106605
C6    C     C_R   0.499881 0.000037 0.532545 0.106602
C7    C     C_R   0.499883 0.999931 0.467450 0.106240
C8    C     C_R   0.999758 0.450361 0.384609 -0.191201
C9    C     C_R   0.000660 0.549619 0.615397 -0.191410
C10   C     C_R   0.549564 0.997421 0.384605 -0.195473
C11   C     C_R   0.450343 0.002545 0.615416 -0.193223
C12   C     C_R   0.000728 0.549619 0.384618 -0.190877
C13   C     C_R   0.771589 0.728489 0.749995 0.062815
C14   C     C_R   0.999507 0.450361 0.615393 -0.191377
C15   C     C_R   0.450340 0.002402 0.384595 -0.195125
C16   C     C_R   0.549567 0.997697 0.615370 -0.191058
C17   C     C_R   0.501531 0.950399 0.884607 -0.191251
C18   C     C_R   0.498250 0.049603 0.115409 -0.194945
C19   C     C_R   0.049657 0.500253 0.884604 -0.191459
C20   C     C_R   0.950335 0.500106 0.115396 -0.190042
C21   C     C_R   0.498581 0.049615 0.884612 -0.191341
C22   C     C_R   0.502093 0.950411 0.115398 -0.195405
C23   C     C_R   0.950310 0.499808 0.884616 -0.191457
C24   C     C_R   0.228148 0.271762 0.249945 0.072766
C25   C     C_R   0.049678 0.499966 0.115380 -0.191106
C26   C     C_R   0.999857 0.450369 0.416884 -0.182972
C27   C     C_R   0.000705 0.549603 0.583123 -0.182894
C28   C     C_R   0.549520 0.997375 0.416879 -0.184081
C29   C     C_R   0.450326 0.002586 0.583141 -0.183509
C30   C     C_R   0.000794 0.549603 0.416892 -0.183075
C31   C     C_R   0.999597 0.450370 0.583119 -0.182869
C32   C     C_R   0.450328 0.002417 0.416869 -0.183850
C33   C     C_R   0.549520 0.997668 0.583096 -0.182992
C34   C     C_R   0.501622 0.950417 0.916883 -0.182899
C35   C     C_R   0.728179 0.228780 0.749575 0.062729
C36   C     C_R   0.498297 0.049595 0.083136 -0.183957
C37   C     C_R   0.049642 0.500236 0.916878 -0.182860
C38   C     C_R   0.950344 0.500136 0.083123 -0.182087
C39   C     C_R   0.498588 0.049604 0.916886 -0.182979
C40   C     C_R   0.502173 0.950433 0.083124 -0.184029
C41   C     C_R   0.950321 0.499851 0.916890 -0.182767
C42   C     C_R   0.049663 0.499969 0.083105 -0.182908
C43   C     C_R   0.000343 0.499985 0.433297 0.114838
C44   C     C_R   0.000185 0.499985 0.566713 0.114875
C45   C     C_R   0.499910 0.999901 0.433284 0.116407
C46   C     C_R   0.270382 0.772224 0.249464 0.067556
C47   C     C_R   0.499907 0.000105 0.566709 0.115282
C48   C     C_R   0.500131 0.000012 0.933292 0.114858
C49   C     C_R   0.500250 0.000018 0.066717 0.116443
C50   C     C_R   0.999980 0.500047 0.933290 0.114876
C51   C     C_R   0.000002 0.500058 0.066704 0.114561
C52   C     C_R   0.499992 0.999984 0.334122 0.784701
C53   C     C_R   0.499999 0.000017 0.665876 0.784826
C54   C     C_R   0.000043 0.500000 0.334119 0.782947
C55   C     C_R   0.000004 0.499997 0.665883 0.787314
C56   C     C_R   0.999994 0.500004 0.834124 0.787832
C57   C     C_R   0.228013 0.270990 0.749397 0.063389
C58   C     C_R   0.000005 0.500004 0.165875 0.785366
C59   C     C_R   0.500003 0.000002 0.834118 0.787295
C60   C     C_R   0.500025 0.999999 0.165885 0.784100
C61   C     C_R   0.604994 0.105061 0.250039 0.819466
C62   C     C_R   0.395040 0.895040 0.749991 0.812073
C63   C     C_R   0.895097 0.605024 0.249939 0.793320
C64   C     C_R   0.104998 0.395025 0.749983 0.811940
C65   C     C_R   0.394902 0.895053 0.249957 0.819375
C66   C     C_R   0.604974 0.104973 0.749993 0.814215
C67   C     C_R   0.104910 0.395104 0.249993 0.821844
C68   C     C_R   0.773243 0.730211 0.250030 0.058244
C69   C     C_R   0.895017 0.604970 0.750008 0.811982
C70   C     C_R   0.605108 0.894906 0.749993 0.818225
C71   C     C_R   0.394877 0.105085 0.250000 0.779425
C72   C     C_R   0.894875 0.394954 0.749981 0.818141
C73   C     C_R   0.104940 0.605057 0.249958 0.812527
C74   C     C_R   0.394888 0.105025 0.750055 0.799805
C75   C     C_R   0.605123 0.895024 0.249973 0.779160
C76   C     C_R   0.105089 0.605068 0.750001 0.818066
C77   C     C_R   0.895074 0.394966 0.249952 0.810596
C78   C     C_R   0.000171 0.499994 0.368192 -0.003680
C79   C     C_R   0.285536 0.202655 0.277533 -0.212301
C80   C     C_R   0.000049 0.499992 0.631815 -0.003689
C81   C     C_R   0.499967 0.999936 0.368185 -0.001396
C82   C     C_R   0.499973 0.000084 0.631810 -0.002344
C83   C     C_R   0.500032 0.000005 0.868189 -0.003662
C84   C     C_R   0.500117 0.000002 0.131820 -0.001309
C85   C     C_R   0.999985 0.500020 0.868192 -0.003849
C86   C     C_R   0.000008 0.500025 0.131807 -0.003996
C87   C     C_R   0.967037 0.536791 0.483866 -0.183621
C88   C     C_R   0.033526 0.463180 0.516149 -0.183711
C89   C     C_R   0.465114 0.035349 0.483850 -0.184005
C90   C     C_R   0.701884 0.784599 0.722521 -0.219959
C91   C     C_R   0.534639 0.964610 0.516145 -0.183595
C92   C     C_R   0.033571 0.463184 0.483876 -0.183729
C93   C     C_R   0.966997 0.536791 0.516138 -0.183705
C94   C     C_R   0.534639 0.964557 0.483871 -0.183979
C95   C     C_R   0.465111 0.035399 0.516124 -0.183678
C96   C     C_R   0.465315 0.035303 0.983877 -0.183708
C97   C     C_R   0.535114 0.964753 0.016117 -0.183913
C98   C     C_R   0.963461 0.533631 0.983864 -0.183661
C99   C     C_R   0.036511 0.466471 0.016120 -0.183717
C100  C     C_R   0.535070 0.964739 0.983842 -0.183561
C101  C     C_R   0.821316 0.262022 0.235594 -0.212439
C102  C     C_R   0.465336 0.035296 0.016151 -0.184055
C103  C     C_R   0.036510 0.466474 0.983847 -0.183702
C104  C     C_R   0.963475 0.533644 0.016137 -0.183375
C105  C     C_3   0.345917 0.144072 0.309881 -0.392123
C106  C     C_3   0.308472 0.098696 0.321958 -0.806935
C107  C     C_3   0.632400 0.836209 0.691525 -0.409110
C108  C     C_3   0.573882 0.813946 0.691321 -0.873786
C109  C     C_3   0.913915 0.290969 0.216830 -0.428585
C110  C     C_3   0.910968 0.316806 0.184675 -0.866467
C111  C     C_3   0.164309 0.631686 0.691623 -0.408588
C112  C     C_R   0.728973 0.771127 0.749985 0.067705
C113  C     C_R   0.215786 0.701466 0.722551 -0.219762
C114  C     C_3   0.186511 0.573252 0.691643 -0.873883
C115  C     C_3   0.633895 0.837628 0.308464 -0.403308
C116  C     C_3   0.667432 0.876026 0.328948 -0.819611
C117  C     C_3   0.370975 0.166110 0.692152 -0.410653
C118  C     C_3   0.338310 0.129309 0.670333 -0.815590
C119  C     C_3   0.081408 0.711873 0.220701 -0.433208
C120  C     C_3   0.077017 0.685931 0.188633 -0.867596
C121  C     C_3   0.835001 0.369489 0.691669 -0.409489
C122  C     C_3   0.813018 0.427996 0.692029 -0.873540
C123  C     C_3   0.290208 0.915394 0.782012 -0.428733
C124  C     C_R   0.704675 0.787815 0.277668 -0.211990
C125  C     C_3   0.316034 0.915123 0.814207 -0.870142
C126  C     C_3   0.626568 0.168097 0.307555 -0.413923
C127  C     C_3   0.568670 0.191551 0.305552 -0.873847
C128  C     C_3   0.915333 0.709481 0.782392 -0.428327
C129  C     C_3   0.914908 0.683363 0.814507 -0.871291
C130  C     C_3   0.171028 0.376535 0.306524 -0.418563
C131  C     C_3   0.192989 0.434789 0.303857 -0.873449
C132  C     C_3   0.711671 0.083392 0.779731 -0.428081
C133  C     C_3   0.687185 0.082105 0.812260 -0.873548
C134  C     C_3   0.374389 0.829592 0.306596 -0.414864
C135  C     C_R   0.299003 0.215631 0.722292 -0.208334
C136  C     C_3   0.431855 0.805342 0.303770 -0.876401
C137  C     C_3   0.084254 0.290064 0.781813 -0.427952
C138  C     C_3   0.084721 0.315798 0.814031 -0.872263
C139  C     C_3   0.794195 0.591125 0.287762 -0.413325
C140  C     C_3   0.747054 0.557022 0.274727 -0.869873
C141  C     C_3   0.790461 0.584871 0.717563 -0.428398
C142  C     C_3   0.816488 0.585539 0.685414 -0.870981
C143  C     C_3   0.123099 0.328803 0.193482 -0.418748
C144  C     C_3   0.064792 0.306930 0.196370 -0.872968
C145  C     C_3   0.415712 0.790327 0.717996 -0.429207
C146  C     C_R   0.176764 0.739325 0.235817 -0.215868
C147  C     C_3   0.415716 0.816281 0.685837 -0.870087
C148  C     C_3   0.668336 0.127548 0.192750 -0.412683
C149  C     C_3   0.692021 0.069762 0.194627 -0.875558
C150  C     C_3   0.209978 0.415417 0.717950 -0.428812
C151  C     C_3   0.184085 0.415581 0.685772 -0.871603
C152  C     C_3   0.910904 0.703350 0.211484 -0.432749
C153  C     C_3   0.902948 0.675939 0.180035 -0.853604
C154  C     C_3   0.581625 0.211863 0.720926 -0.430990
C155  C     C_3   0.577153 0.186131 0.688798 -0.873159
C156  C     C_3   0.329596 0.876254 0.193009 -0.415875
C157  C     C_R   0.783422 0.299486 0.722403 -0.219517
C158  C     C_3   0.306067 0.933946 0.196008 -0.874892
C159  C     C_3   0.790516 0.415768 0.282008 -0.439806
C160  C     C_3   0.816896 0.417054 0.314043 -0.867860
C161  C     C_3   0.131741 0.664277 0.808353 -0.408831
C162  C     C_3   0.073275 0.686515 0.808311 -0.873178
C163  C     C_3   0.355810 0.153735 0.190079 -0.392035
C164  C     C_3   0.401170 0.191150 0.177937 -0.806917
C165  C     C_3   0.663678 0.867477 0.808481 -0.408443
C166  C     C_3   0.685917 0.925951 0.808780 -0.875334
C167  C     C_3   0.211000 0.585102 0.280786 -0.427357
C168  C     C_R   0.262024 0.821583 0.764682 -0.213637
C169  C     C_3   0.187044 0.586893 0.313442 -0.869595
C170  C     C_3   0.868519 0.334950 0.808093 -0.409592
C171  C     C_3   0.926876 0.312460 0.807824 -0.873776
C172  C     C_3   0.663128 0.867394 0.191393 -0.404475
C173  C     C_3   0.625226 0.832777 0.171192 -0.818277
C174  C     C_3   0.334381 0.131057 0.808097 -0.410822
C175  C     C_3   0.312041 0.072625 0.807828 -0.868791
C176  C     C_R   0.699255 0.217295 0.277470 -0.217946
C177  C     C_R   0.821595 0.737812 0.764963 -0.213947
C178  C     C_R   0.220600 0.305151 0.275986 -0.219639
C179  C     C_R   0.738726 0.177961 0.763228 -0.213940
C180  C     C_R   0.771339 0.271495 0.250534 0.063450
C181  C     C_R   0.300494 0.782364 0.276430 -0.218115
C182  C     C_R   0.177827 0.261584 0.764177 -0.211985
C183  C     C_R   0.765778 0.682757 0.267699 -0.198372
C184  C     C_R   0.762192 0.678519 0.735044 -0.213758
C185  C     C_R   0.194736 0.279363 0.223914 -0.219627
C186  C     C_R   0.321777 0.762017 0.735224 -0.213969
C187  C     C_R   0.716996 0.200077 0.223200 -0.218325
C188  C     C_R   0.237722 0.321247 0.734813 -0.215814
C189  C     C_R   0.820822 0.736234 0.232214 -0.212064
C190  C     C_R   0.677133 0.238960 0.736030 -0.215429
C191  C     C_R   0.228998 0.728819 0.749973 0.067782
C192  C     C_R   0.280982 0.802655 0.222696 -0.217222
C193  C     C_R   0.762099 0.321661 0.265303 -0.212508
C194  C     C_R   0.201635 0.715629 0.777407 -0.219815
C195  C     C_R   0.297193 0.214203 0.222379 -0.212205
C196  C     C_R   0.715463 0.798188 0.777450 -0.219936
C197  C     C_R   0.238592 0.678492 0.262897 -0.212351
C198  C     C_R   0.798382 0.284091 0.777079 -0.219703
C199  C     C_R   0.715586 0.798750 0.222338 -0.206017
C200  C     C_R   0.283301 0.200756 0.776956 -0.220254
C201  C     C_R   0.327541 0.164027 0.278247 0.133378
C202  C     C_R   0.730785 0.773172 0.250025 0.059510
C203  C     C_R   0.661094 0.824818 0.722058 0.127589
C204  C     C_R   0.862037 0.302279 0.234928 0.129326
C205  C     C_R   0.175506 0.660673 0.722100 0.126893
C206  C     C_R   0.662833 0.826837 0.277975 0.134268
C207  C     C_R   0.340102 0.175749 0.722144 0.124033
C208  C     C_R   0.135984 0.698982 0.235761 0.134582
C209  C     C_R   0.823915 0.340095 0.722026 0.126860
C210  C     C_R   0.302148 0.862499 0.764962 0.130447
C211  C     C_R   0.658280 0.177209 0.277727 0.128174
C212  C     C_R   0.862449 0.697683 0.765236 0.130989
C213  C     C_R   0.270676 0.228351 0.749504 0.062779
C214  C     C_R   0.179209 0.344453 0.276788 0.126995
C215  C     C_R   0.698712 0.136952 0.763608 0.130044
C216  C     C_R   0.341749 0.822121 0.276955 0.128061
C217  C     C_R   0.137199 0.301931 0.764718 0.130513
C218  C     C_R   0.805026 0.641096 0.267822 0.131545
C219  C     C_R   0.802276 0.637629 0.734798 0.130797
C220  C     C_R   0.155439 0.320766 0.223145 0.126914
C221  C     C_R   0.362655 0.802191 0.734956 0.130860
C222  C     C_R   0.677068 0.158983 0.222702 0.127732
C223  C     C_R   0.197825 0.362351 0.734803 0.132443
C224  C     C_R   0.227963 0.729304 0.249255 0.063959
C225  C     C_R   0.860909 0.695322 0.231807 0.137700
C226  C     C_R   0.636204 0.198793 0.735985 0.132643
C227  C     C_R   0.321363 0.843358 0.222481 0.128320
C228  C     C_R   0.802367 0.362464 0.265428 0.134599
C229  C     C_R   0.160788 0.675404 0.777876 0.126782
C230  C     C_R   0.335833 0.172208 0.221699 0.133460
C231  C     C_R   0.675197 0.838925 0.777921 0.127707
C232  C     C_R   0.198520 0.637609 0.263582 0.128708
C233  C     C_R   0.839237 0.324303 0.777648 0.126761
C234  C     C_R   0.674932 0.839073 0.221920 0.130948
C235  C     C_R   0.770631 0.271541 0.749685 0.066997
C236  C     C_R   0.323748 0.160203 0.777632 0.134978
C237  C     C_R   0.352370 0.147479 0.249983 -0.083015
C238  C     C_R   0.647591 0.852450 0.749988 -0.038460
C239  C     C_R   0.852652 0.352747 0.250088 -0.032625
C240  C     C_R   0.147581 0.647495 0.749993 -0.037088
C241  C     C_R   0.647893 0.853005 0.249912 -0.068401
C242  C     C_R   0.352523 0.147511 0.749972 -0.053450
C243  C     C_R   0.146991 0.647687 0.249713 -0.031458
C244  C     C_R   0.852234 0.352657 0.749882 -0.037004
C245  C     C_R   0.352774 0.852748 0.749962 -0.031862
C246  C     C_R   0.271604 0.771477 0.749955 0.063071
C247  C     C_R   0.647257 0.147552 0.250159 -0.034389
C248  C     C_R   0.852737 0.647248 0.750029 -0.032855
C249  C     C_R   0.147007 0.352990 0.249968 -0.032079
C250  C     C_R   0.647135 0.147399 0.749843 -0.032239
C251  C     C_R   0.352234 0.852993 0.249783 -0.033967
C252  C     C_R   0.147245 0.352676 0.749918 -0.033108
C253  C     C_R   0.853086 0.647520 0.249824 -0.049761
C254  C     C_R   0.500241 0.000026 0.032548 0.106303
C255  C     C_R   0.500174 0.000018 0.967452 0.106544
C256  C     C_R   0.999998 0.500060 0.032539 0.106555
H1    H     H_    0.999195 0.411485 0.372542 0.158137
H2    H     H_    0.496804 0.088456 0.127480 0.155567
H3    H     H_    0.184167 0.653897 0.672129 0.198637
H4    H     H_    0.674508 0.915708 0.317044 0.278647
H5    H     H_    0.644892 0.883921 0.350840 0.237277
H6    H     H_    0.707602 0.857241 0.334675 0.244878
H7    H     H_    0.592391 0.855094 0.304984 0.200257
H8    H     H_    0.627457 0.798270 0.320901 0.192468
H9    H     H_    0.362165 0.122261 0.648796 0.237281
H10   H     H_    0.329957 0.089115 0.681400 0.278266
H11   H     H_    0.298791 0.148962 0.664111 0.246001
H12   H     H_    0.378874 0.205981 0.680531 0.193358
H13   H     H_    0.088569 0.500581 0.872536 0.157621
H14   H     H_    0.411903 0.147727 0.696258 0.198028
H15   H     H_    0.111583 0.699654 0.173778 0.262742
H16   H     H_    0.077366 0.640601 0.190198 0.264288
H17   H     H_    0.038023 0.698717 0.177594 0.245914
H18   H     H_    0.047091 0.697786 0.235576 0.211111
H19   H     H_    0.076242 0.756872 0.218093 0.204466
H20   H     H_    0.835150 0.453534 0.709196 0.252214
H21   H     H_    0.818800 0.446619 0.668804 0.245358
H22   H     H_    0.768578 0.428017 0.697620 0.260649
H23   H     H_    0.879416 0.369501 0.686240 0.229492
H24   H     H_    0.911423 0.500013 0.127466 0.159504
H25   H     H_    0.814935 0.347625 0.672121 0.198954
H26   H     H_    0.301729 0.878910 0.827535 0.262686
H27   H     H_    0.361403 0.914251 0.812609 0.267287
H28   H     H_    0.303774 0.952630 0.826924 0.247640
H29   H     H_    0.305169 0.951205 0.768605 0.212747
H30   H     H_    0.245251 0.921091 0.784703 0.206616
H31   H     H_    0.570382 0.235919 0.299950 0.261929
H32   H     H_    0.544128 0.170106 0.287646 0.250549
H33   H     H_    0.547717 0.186388 0.328198 0.244301
H34   H     H_    0.624938 0.123945 0.313485 0.227746
H35   H     H_    0.497515 0.088478 0.872550 0.157536
H36   H     H_    0.647619 0.188366 0.327319 0.200299
H37   H     H_    0.878771 0.697676 0.827892 0.262194
H38   H     H_    0.913721 0.638053 0.812777 0.267647
H39   H     H_    0.952555 0.695329 0.827237 0.247826
H40   H     H_    0.951197 0.694684 0.768977 0.212306
H41   H     H_    0.921118 0.754378 0.785224 0.206423
H42   H     H_    0.168490 0.458894 0.287110 0.254504
H43   H     H_    0.190236 0.454888 0.326845 0.245710
H44   H     H_    0.236572 0.434416 0.296421 0.263230
H45   H     H_    0.127109 0.377195 0.313158 0.226596
H46   H     H_    0.503506 0.911555 0.127461 0.156968
H47   H     H_    0.192717 0.356307 0.326064 0.199549
H48   H     H_    0.701445 0.118071 0.825817 0.263399
H49   H     H_    0.641748 0.082266 0.811273 0.265111
H50   H     H_    0.700602 0.044387 0.824376 0.249301
H51   H     H_    0.696421 0.048047 0.766037 0.215184
H52   H     H_    0.756761 0.077895 0.781756 0.206142
H53   H     H_    0.456206 0.827061 0.285880 0.251682
H54   H     H_    0.453534 0.809373 0.326264 0.244369
H55   H     H_    0.429301 0.761217 0.297673 0.262417
H56   H     H_    0.376906 0.873498 0.313016 0.226359
H57   H     H_    0.911401 0.499472 0.872556 0.157674
H58   H     H_    0.353530 0.808914 0.326292 0.200898
H59   H     H_    0.120907 0.301372 0.827323 0.262218
H60   H     H_    0.085844 0.361130 0.812479 0.267257
H61   H     H_    0.047132 0.303625 0.826758 0.247989
H62   H     H_    0.048450 0.305106 0.768450 0.212904
H63   H     H_    0.078343 0.245152 0.784477 0.206412
H64   H     H_    0.758152 0.540725 0.251543 0.267598
H65   H     H_    0.738396 0.522319 0.290559 0.246188
H66   H     H_    0.709119 0.581805 0.272717 0.256995
H67   H     H_    0.830706 0.564378 0.289934 0.197367
H68   H     H_    0.088591 0.500047 0.127437 0.158115
H69   H     H_    0.783613 0.604667 0.311601 0.201212
H70   H     H_    0.861844 0.586620 0.687095 0.267754
H71   H     H_    0.804387 0.548078 0.672576 0.247648
H72   H     H_    0.802193 0.621796 0.672160 0.262110
H73   H     H_    0.805361 0.548979 0.730882 0.212084
H74   H     H_    0.745521 0.579062 0.714785 0.206356
H75   H     H_    0.065184 0.263486 0.203988 0.263017
H76   H     H_    0.040868 0.331671 0.213087 0.253456
H77   H     H_    0.044438 0.309374 0.173443 0.245895
H78   H     H_    0.122417 0.372657 0.186791 0.226194
H79   H     H_    0.998836 0.411574 0.429020 0.130025
H80   H     H_    0.143154 0.306996 0.173921 0.199632
H81   H     H_    0.379648 0.801959 0.672373 0.262755
H82   H     H_    0.414719 0.861602 0.687488 0.267342
H83   H     H_    0.453431 0.804183 0.673233 0.247948
H84   H     H_    0.451466 0.805194 0.731504 0.212859
H85   H     H_    0.421416 0.745418 0.715249 0.206372
H86   H     H_    0.670475 0.044942 0.212373 0.250118
H87   H     H_    0.687168 0.049056 0.171894 0.244537
H88   H     H_    0.736359 0.071582 0.200376 0.261870
H89   H     H_    0.624206 0.125809 0.186697 0.227528
H90   H     H_    0.001842 0.588393 0.570984 0.130020
H91   H     H_    0.688705 0.148860 0.173106 0.200050
H92   H     H_    0.198248 0.379540 0.672277 0.262339
H93   H     H_    0.138716 0.414702 0.687399 0.267269
H94   H     H_    0.196438 0.453257 0.673215 0.247920
H95   H     H_    0.195204 0.451104 0.731500 0.212604
H96   H     H_    0.254958 0.421054 0.715257 0.205951
H97   H     H_    0.939354 0.683591 0.165241 0.240425
H98   H     H_    0.897786 0.631042 0.182740 0.273736
H99   H     H_    0.866279 0.692990 0.168251 0.258491
H100  H     H_    0.918696 0.747725 0.207711 0.204025
H101  H     H_    0.588325 0.996056 0.429022 0.129601
H102  H     H_    0.948164 0.686848 0.222855 0.205535
H103  H     H_    0.578812 0.140815 0.690186 0.264047
H104  H     H_    0.537498 0.197896 0.678103 0.241584
H105  H     H_    0.610998 0.200941 0.673748 0.263822
H106  H     H_    0.547192 0.197746 0.735731 0.215831
H107  H     H_    0.576557 0.256890 0.718411 0.204455
H108  H     H_    0.327918 0.957714 0.214089 0.251962
H109  H     H_    0.310656 0.955868 0.173627 0.244055
H110  H     H_    0.261805 0.931899 0.201933 0.262288
H111  H     H_    0.373637 0.878268 0.186747 0.226441
H112  H     H_    0.001256 0.588497 0.627461 0.157685
H113  H     H_    0.411499 0.003859 0.571019 0.130134
H114  H     H_    0.308831 0.855955 0.173158 0.201153
H115  H     H_    0.801429 0.382499 0.328327 0.262585
H116  H     H_    0.862161 0.414291 0.312298 0.267640
H117  H     H_    0.806368 0.456110 0.325782 0.245329
H118  H     H_    0.805225 0.451013 0.268071 0.222172
H119  H     H_    0.745581 0.421326 0.284861 0.205014
H120  H     H_    0.073399 0.730966 0.802852 0.260615
H121  H     H_    0.047383 0.664686 0.791187 0.252063
H122  H     H_    0.054886 0.680630 0.831596 0.245351
H123  H     H_    0.131617 0.619876 0.813706 0.229772
H124  H     H_    0.001869 0.588395 0.429034 0.130385
H125  H     H_    0.153973 0.684121 0.827841 0.198673
H126  H     H_    0.385363 0.233400 0.174729 0.240028
H127  H     H_    0.436249 0.192321 0.194280 0.279586
H128  H     H_    0.415926 0.175672 0.155240 0.234033
H129  H     H_    0.369891 0.110580 0.190229 0.208881
H130  H     H_    0.321103 0.154466 0.173390 0.186267
H131  H     H_    0.664437 0.951963 0.791604 0.253288
H132  H     H_    0.679540 0.944039 0.832092 0.245227
H133  H     H_    0.730515 0.926011 0.803605 0.260746
H134  H     H_    0.619182 0.867376 0.813679 0.229874
H135  H     H_    0.998509 0.411578 0.570976 0.130017
H136  H     H_    0.683306 0.845057 0.827946 0.197871
H137  H     H_    0.200782 0.624517 0.325673 0.262776
H138  H     H_    0.141591 0.586115 0.312648 0.265693
H139  H     H_    0.201413 0.550984 0.326843 0.246906
H140  H     H_    0.194932 0.549118 0.267993 0.212983
H141  H     H_    0.256037 0.579049 0.282674 0.206983
H142  H     H_    0.952743 0.334401 0.790728 0.252470
H143  H     H_    0.945421 0.317979 0.831092 0.245440
H144  H     H_    0.926530 0.268078 0.802184 0.260805
H145  H     H_    0.868889 0.379296 0.813601 0.229480
H146  H     H_    0.411503 0.003727 0.429003 0.129211
H147  H     H_    0.846311 0.314988 0.827556 0.199007
H148  H     H_    0.644862 0.792994 0.165559 0.245705
H149  H     H_    0.585812 0.824987 0.183278 0.278262
H150  H     H_    0.616583 0.854825 0.149242 0.237553
H151  H     H_    0.644753 0.908489 0.194837 0.200563
H152  H     H_    0.702197 0.874584 0.178757 0.192935
H153  H     H_    0.334110 0.046908 0.790742 0.253189
H154  H     H_    0.317575 0.054137 0.831102 0.243866
H155  H     H_    0.267633 0.072718 0.802170 0.260642
H156  H     H_    0.378759 0.130925 0.813619 0.228428
H157  H     H_    0.588324 0.996407 0.570938 0.129932
H158  H     H_    0.314285 0.153166 0.827531 0.197402
H159  H     H_    0.502169 0.911620 0.929026 0.130044
H160  H     H_    0.497473 0.088398 0.071006 0.129125
H161  H     H_    0.088469 0.501063 0.929016 0.129998
H162  H     H_    0.911506 0.499525 0.070992 0.130482
H163  H     H_    0.498077 0.088404 0.929032 0.129947
H164  H     H_    0.588438 0.995533 0.372540 0.156671
H165  H     H_    0.503040 0.911636 0.070984 0.129655
H166  H     H_    0.911493 0.499034 0.929039 0.130080
H167  H     H_    0.088498 0.500590 0.070961 0.130040
H168  H     H_    0.940427 0.565011 0.471726 0.129896
H169  H     H_    0.060122 0.434952 0.528293 0.130093
H170  H     H_    0.438526 0.063583 0.471705 0.129335
H171  H     H_    0.561233 0.936383 0.528291 0.129643
H172  H     H_    0.060202 0.434958 0.471743 0.129660
H173  H     H_    0.940363 0.565014 0.528270 0.130148
H174  H     H_    0.561232 0.936288 0.471744 0.129470
H175  H     H_    0.411488 0.004391 0.627501 0.158676
H176  H     H_    0.438519 0.063666 0.528254 0.129484
H177  H     H_    0.437455 0.062311 0.971750 0.129614
H178  H     H_    0.562995 0.937756 0.028236 0.129502
H179  H     H_    0.935457 0.560479 0.971729 0.130281
H180  H     H_    0.064505 0.439603 0.028247 0.129606
H181  H     H_    0.562900 0.937725 0.971687 0.129760
H182  H     H_    0.437472 0.062290 0.028296 0.129283
H183  H     H_    0.064508 0.439621 0.971700 0.130086
H184  H     H_    0.935486 0.560514 0.028278 0.130244
H185  H     H_    0.264757 0.212523 0.298969 0.138262
H186  H     H_    0.001246 0.588499 0.372560 0.159600
H187  H     H_    0.712811 0.763582 0.701294 0.137705
H188  H     H_    0.828530 0.223091 0.224263 0.139208
H189  H     H_    0.237037 0.712202 0.701353 0.138148
H190  H     H_    0.716688 0.768502 0.299217 0.140060
H191  H     H_    0.289052 0.236906 0.700993 0.143655
H192  H     H_    0.168463 0.778941 0.225541 0.138654
H193  H     H_    0.761753 0.289270 0.701262 0.138789
H194  H     H_    0.223004 0.828808 0.775958 0.139843
H195  H     H_    0.708544 0.239590 0.298530 0.137259
H196  H     H_    0.828823 0.776664 0.776404 0.139663
H197  H     H_    0.998866 0.411485 0.627455 0.157745
H198  H     H_    0.247361 0.301167 0.295837 0.133097
H199  H     H_    0.778388 0.170337 0.773666 0.140318
H200  H     H_    0.291783 0.758975 0.297189 0.137666
H201  H     H_    0.170329 0.222535 0.775341 0.139688
H202  H     H_    0.728769 0.677768 0.281290 0.141807
H203  H     H_    0.723323 0.671355 0.723580 0.139652
H204  H     H_    0.198656 0.252597 0.204064 0.133030
H205  H     H_    0.329097 0.723040 0.723958 0.139685
H206  H     H_    0.739426 0.209628 0.202216 0.137243
H207  H     H_    0.276722 0.328525 0.723509 0.136338
H208  H     H_    0.411484 0.004292 0.372523 0.155578
H209  H     H_    0.826903 0.773087 0.218658 0.136135
H210  H     H_    0.669139 0.278565 0.725653 0.139616
H211  H     H_    0.257683 0.794446 0.201837 0.137757
H212  H     H_    0.723160 0.329178 0.276596 0.138857
H213  H     H_    0.212381 0.736879 0.798596 0.138134
H214  H     H_    0.287347 0.234914 0.200931 0.138273
H215  H     H_    0.736463 0.787253 0.798679 0.137763
H216  H     H_    0.278265 0.670816 0.273300 0.139674
H217  H     H_    0.787931 0.262322 0.798150 0.138790
H218  H     H_    0.735340 0.787172 0.200832 0.142542
H219  H     H_    0.588444 0.995882 0.627419 0.157503
H220  H     H_    0.261515 0.211146 0.798025 0.137467
H221  H     H_    0.307418 0.063654 0.305600 0.279604
H222  H     H_    0.323875 0.083959 0.344668 0.233971
H223  H     H_    0.266153 0.114438 0.325118 0.240050
H224  H     H_    0.389126 0.130058 0.309775 0.208882
H225  H     H_    0.345068 0.178735 0.326585 0.186299
H226  H     H_    0.547868 0.835552 0.708456 0.252364
H227  H     H_    0.555728 0.820095 0.668008 0.245001
H228  H     H_    0.573853 0.769431 0.696612 0.260516
H229  H     H_    0.632448 0.880654 0.686295 0.229677
H230  H     H_    0.502565 0.911532 0.872542 0.157597
H231  H     H_    0.654789 0.816547 0.672049 0.197853
H232  H     H_    0.873391 0.302948 0.172423 0.262159
H233  H     H_    0.910733 0.362146 0.186323 0.267705
H234  H     H_    0.947021 0.304142 0.170805 0.245523
H235  H     H_    0.950285 0.306411 0.229529 0.210765
H236  H     H_    0.920028 0.246126 0.214025 0.207363
H237  H     H_    0.164682 0.547387 0.708783 0.252365
H238  H     H_    0.180549 0.554906 0.668360 0.245329
H239  H     H_    0.231012 0.573333 0.697065 0.260574
H240  H     H_    0.119866 0.631610 0.686288 0.229831
O1    O     O_3   0.500000 0.000000 0.250000 -0.466224
O2    O     O_R   0.454480 0.000000 0.680700 -0.646394
O3    O     O_R   0.000000 0.545520 0.319300 -0.646596
O4    O     O_R   0.000000 0.454480 0.680700 -0.647867
O5    O     O_R   0.954480 0.500000 0.819300 -0.647904
O6    O     O_R   0.045520 0.500000 0.180700 -0.647625
O7    O     O_R   0.500000 0.954480 0.819300 -0.647690
O8    O     O_R   0.500000 0.045520 0.180700 -0.647518
O9    O     O_R   0.045520 0.500000 0.819300 -0.647764
O10   O     O_R   0.954480 0.500000 0.180700 -0.648403
O11   O     O_R   0.500000 0.045520 0.819300 -0.647364
O12   O     O_3   0.500000 0.000000 0.750000 -0.466536
O13   O     O_R   0.500000 0.954480 0.180700 -0.646576
O14   O     O_R   0.609440 0.064000 0.268180 -0.650160
O15   O     O_R   0.390560 0.936000 0.731820 -0.649444
O16   O     O_R   0.936000 0.609440 0.268180 -0.652028
O17   O     O_R   0.064000 0.390560 0.731820 -0.648841
O18   O     O_R   0.390560 0.936000 0.268180 -0.650887
O19   O     O_R   0.609440 0.064000 0.731820 -0.650133
O20   O     O_R   0.064000 0.390560 0.268180 -0.651176
O21   O     O_R   0.936000 0.609440 0.731820 -0.648936
O22   O     O_R   0.609440 0.936000 0.731820 -0.650480
O23   O     O_3   0.000000 0.500000 0.250000 -0.467864
O24   O     O_R   0.390560 0.064000 0.268180 -0.640135
O25   O     O_R   0.936000 0.390560 0.731820 -0.650347
O26   O     O_R   0.064000 0.609440 0.268180 -0.648325
O27   O     O_R   0.390560 0.064000 0.731820 -0.638246
O28   O     O_R   0.609440 0.936000 0.268180 -0.638534
O29   O     O_R   0.064000 0.609440 0.731820 -0.650386
O30   O     O_R   0.936000 0.390560 0.268180 -0.649374
O31   O     O_R   0.109440 0.564000 0.768180 -0.650560
O32   O     O_R   0.890560 0.436000 0.231820 -0.648003
O33   O     O_R   0.436000 0.109440 0.768180 -0.652014
O34   O     O_3   0.000000 0.500000 0.750000 -0.466199
O35   O     O_R   0.564000 0.890560 0.231820 -0.638487
O36   O     O_R   0.890560 0.436000 0.768180 -0.650491
O37   O     O_R   0.109440 0.564000 0.231820 -0.649592
O38   O     O_R   0.564000 0.890560 0.768180 -0.650251
O39   O     O_R   0.436000 0.109440 0.231820 -0.639767
O40   O     O_R   0.109440 0.436000 0.231820 -0.651626
O41   O     O_R   0.890560 0.564000 0.768180 -0.649284
O42   O     O_R   0.436000 0.890560 0.231820 -0.649819
O43   O     O_R   0.564000 0.109440 0.768180 -0.648926
O44   O     O_R   0.890560 0.564000 0.231820 -0.634931
O45   O     O_R   0.454480 0.000000 0.319300 -0.647647
O46   O     O_R   0.109440 0.436000 0.768180 -0.649284
O47   O     O_R   0.564000 0.109440 0.231820 -0.650683
O48   O     O_R   0.436000 0.890560 0.768180 -0.649058
O49   O     O_R   0.545520 0.000000 0.680700 -0.647853
O50   O     O_R   0.000000 0.454480 0.319300 -0.648183
O51   O     O_R   0.000000 0.545520 0.680700 -0.647845
O52   O     O_R   0.545520 0.000000 0.319300 -0.646449
Zn1   Zn    Zn3+2 0.500000 0.064990 0.224050 0.947414
Zn2   Zn    Zn3+2 1.000000 0.435010 0.275950 0.952194
Zn3   Zn    Zn3+2 0.435010 0.000000 0.724050 0.953195
Zn4   Zn    Zn3+2 0.564990 0.000000 0.275950 0.950728
Zn5   Zn    Zn3+2 0.000000 0.435010 0.724050 0.953021
Zn6   Zn    Zn3+2 0.000000 0.564990 0.275950 0.954715
Zn7   Zn    Zn3+2 0.564990 0.000000 0.724050 0.951956
Zn8   Zn    Zn3+2 0.435010 0.000000 0.275950 0.947688
Zn9   Zn    Zn3+2 0.500000 0.935010 0.775950 0.952879
Zn10  Zn    Zn3+2 0.935010 0.500000 0.224050 0.957827
Zn11  Zn    Zn3+2 0.064990 0.500000 0.775950 0.952855
Zn12  Zn    Zn3+2 0.500000 0.935010 0.224050 0.951045
Zn13  Zn    Zn3+2 0.500000 0.064990 0.775950 0.951949
Zn14  Zn    Zn3+2 0.064990 0.500000 0.224050 0.953510
Zn15  Zn    Zn3+2 0.935010 0.500000 0.775950 0.953003
Zn16  Zn    Zn3+2 0.000000 0.564990 0.724050 0.952811

loop_
_geom_bond_atom_site_label_1
_geom_bond_atom_site_label_2
_ccdc_geom_bond_type
C154  H107  S    
C99   C103  A    
C95   H176  S    
C126  C127  S    
C96   C102  A    
C130  H47   S    
O12   Zn3   S    
C8    C26   A    
C150  C223  S    
C63   O16   A    
C151  H94   S    
C197  C224  A    
C41   H166  S    
O1    Zn4   S    
C97   H178  S    
O34   Zn16  S    
C15   C32   A    
C127  H33   S    
C53   O49   A    
C40   H165  S    
C2    C180  S    
C46   C181  A    
C13   C112  S    
C198  H217  S    
C145  C221  S    
C126  C211  S    
C143  C144  S    
C58   C86   S    
C153  H98   S    
C46   C224  S    
C32   C45   A    
C64   O46   A    
C16   H219  S    
C23   H57   S    
C72   O25   A    
C203  C238  A    
C19   C37   A    
C143  C220  S    
C183  H202  S    
C106  H223  S    
C79   C201  A    
O4    Zn5   S    
C18   C84   A    
C217  C252  A    
C144  H75   S    
C56   O5    A    
C134  H58   S    
C11   H175  S    
C26   H79   S    
C5    C92   A    
C12   C30   A    
C54   O3    A    
C163  C230  S    
C5    C43   S    
C7    C45   S    
C189  H209  S    
C76   O29   A    
O40   Zn14  S    
O12   Zn7   S    
C204  C239  A    
C145  H85   S    
C51   C256  S    
C209  C244  A    
C60   O13   A    
C138  H59   S    
O1    Zn8   S    
C176  H195  S    
C140  H64   S    
C143  H78   S    
C68   C202  S    
C127  H31   S    
C155  H104  S    
C128  H41   S    
C73   O26   A    
O32   Zn10  S    
C157  C235  A    
C62   C245  S    
O10   Zn10  S    
C110  H234  S    
C24   C185  A    
C61   O14   A    
C75   C241  S    
C222  C247  A    
C125  H28   S    
C129  H37   S    
C13   C184  A    
C166  H131  S    
C124  H190  S    
C149  H88   S    
C55   O51   A    
C154  C155  S    
C164  H128  S    
C161  C229  S    
C67   C249  S    
O17   Zn5   S    
C186  C221  A    
O20   Zn2   S    
C35   C190  A    
C231  C238  A    
O45   Zn8   S    
C162  H120  S    
C33   C47   A    
C133  H48   S    
C131  H44   S    
C106  H221  S    
C34   C48   A    
C90   H187  S    
C132  H51   S    
C76   O31   A    
C227  C251  A    
C197  C232  A    
C3    C103  A    
C128  H40   S    
C167  H140  S    
C121  H23   S    
C59   C83   S    
C19   C85   A    
C120  H16   S    
C59   O7    A    
C139  C140  S    
C176  C211  A    
C187  C222  A    
C96   H177  S    
C23   C41   A    
C156  C158  S    
C130  C131  S    
C191  C194  A    
C184  H203  S    
C160  H116  S    
C91   C94   A    
C55   C80   S    
C3    C98   A    
C68   C189  A    
C52   O52   A    
C161  H125  S    
C130  C214  S    
C181  C216  A    
C117  H12   S    
C152  C225  S    
C74   C242  S    
C64   C252  S    
O38   Zn9   S    
C53   O2    A    
C225  C253  A    
C137  C217  S    
C52   O45   A    
C165  C231  S    
C219  C248  A    
C193  H212  S    
O12   Zn9   S    
C73   O37   A    
C152  H100  S    
C150  H96   S    
C141  C219  S    
C22   C84   A    
C223  C252  A    
C66   C250  S    
C157  C209  A    
C37   C50   A    
C232  C243  A    
C148  H89   S    
C163  H129  S    
C169  H137  S    
C87   H168  S    
C139  C218  S    
C208  C243  A    
C14   C31   A    
C212  C248  A    
C12   H186  S    
C128  C129  S    
C19   H13   S    
C64   O17   A    
C135  H191  S    
C110  H232  S    
C94   H174  S    
C123  H30   S    
C60   O8    A    
O14   Zn4   S    
C198  C235  A    
O1    Zn1   S    
C58   O10   A    
C172  H151  S    
C170  C171  S    
C129  H39   S    
C39   H163  S    
C40   C49   A    
C37   H161  S    
C211  C247  A    
C71   O24   A    
C174  C175  S    
C10   H164  S    
C147  H81   S    
C27   C44   A    
C73   C243  S    
C199  C202  A    
C107  C108  S    
O21   Zn16  S    
C108  H227  S    
C113  H189  S    
C74   O33   A    
C160  H117  S    
C65   O18   A    
C54   O50   A    
C121  H25   S    
C158  H110  S    
C122  H22   S    
C57   C182  A    
C3    C50   S    
C61   O47   A    
C11   C82   A    
C35   C179  A    
C170  C233  S    
C62   O48   A    
C6    C47   S    
C36   H160  S    
C109  H236  S    
C21   C83   A    
O46   Zn11  S    
O52   Zn4   S    
O15   Zn3   S    
C193  C228  A    
O34   Zn5   S    
O33   Zn13  S    
C33   H157  S    
C77   O30   A    
C38   C51   A    
C98   H179  S    
C181  H200  S    
C118  H11   S    
C166  H132  S    
C114  H239  S    
C113  C205  A    
C205  C240  A    
O41   Zn15  S    
C107  C203  S    
C99   C256  A    
C177  H196  S    
C118  H9    S    
C146  C224  A    
C105  C201  S    
O11   Zn13  S    
C214  C249  A    
C162  H122  S    
C159  C228  S    
C48   C255  S    
O27   Zn3   S    
O1    Zn12  S    
C126  H36   S    
C31   H135  S    
C57   C213  S    
C89   H170  S    
C173  H149  S    
C148  H91   S    
C103  H183  S    
C169  H139  S    
C206  C241  A    
C35   C235  S    
C120  H15   S    
C186  C246  A    
C97   C100  A    
C27   H90   S    
O2    Zn3   S    
C142  H71   S    
C191  C246  S    
C190  C226  A    
C109  C204  S    
C20   H24   S    
C198  C233  A    
C159  H118  S    
C4    C88   A    
C101  H188  S    
C157  H193  S    
C178  H198  S    
C17   C83   A    
C101  C180  A    
C168  H194  S    
C117  C118  S    
C119  H18   S    
C49   C254  S    
C146  H192  S    
O9    Zn11  S    
C199  H218  S    
C216  C251  A    
C87   C93   A    
C153  H97   S    
O23   Zn2   S    
C52   C81   S    
C133  H50   S    
C115  H8    S    
C4    C93   A    
C174  H158  S    
C188  C223  A    
C152  C153  S    
C182  C217  A    
C6    C95   A    
C115  C206  S    
C179  C215  A    
C150  C151  S    
C230  C237  A    
C119  C208  S    
C70   C238  S    
C158  H108  S    
C137  H63   S    
C142  H72   S    
C71   O39   A    
C180  C193  A    
C136  H53   S    
C139  H69   S    
C192  H211  S    
C185  C220  A    
O26   Zn6   S    
O48   Zn9   S    
C72   C244  S    
C145  H84   S    
O34   Zn11  S    
C161  C162  S    
C77   O32   A    
C167  C232  S    
C100  H181  S    
C171  H144  S    
C154  C226  S    
C114  H237  S    
C170  H147  S    
C177  C212  A    
C155  H103  S    
C30   H124  S    
O36   Zn15  S    
C200  H220  S    
C123  C125  S    
C179  H199  S    
C123  C210  S    
C134  C216  S    
C42   H167  S    
O23   Zn6   S    
C93   H173  S    
C151  H92   S    
C112  C196  A    
C116  H5    S    
C79   H185  S    
C186  H205  S    
C75   O35   A    
C126  H34   S    
C192  C227  A    
C125  H27   S    
C20   C86   A    
C17   H230  S    
C149  H87   S    
O31   Zn11  S    
C111  C205  S    
C70   O38   A    
O42   Zn12  S    
C154  H106  S    
C190  H210  S    
O50   Zn2   S    
C220  C249  A    
O7    Zn9   S    
C194  C229  A    
C131  H43   S    
C106  H222  S    
C108  H226  S    
C132  H52   S    
C187  H206  S    
C111  H3    S    
C145  C147  S    
O34   Zn15  S    
C66   O43   A    
C178  C214  A    
C151  H93   S    
C38   H162  S    
C96   C255  A    
C141  H74   S    
C146  C208  A    
C144  H77   S    
C207  C242  A    
C155  H105  S    
C4    C44   S    
O39   Zn1   S    
C153  H99   S    
C195  C230  A    
C124  C202  A    
C102  C254  A    
C89   C95   A    
C135  C207  A    
C188  H207  S    
O16   Zn6   S    
C107  H231  S    
O30   Zn2   S    
C182  H201  S    
C174  H156  S    
C233  C244  A    
C159  C160  S    
O44   Zn10  S    
C132  C215  S    
C142  H70   S    
C121  C122  S    
C175  H155  S    
O6    Zn14  S    
C156  C227  S    
C29   C47   A    
C105  H225  S    
O22   Zn7   S    
C173  H148  S    
C71   C237  S    
C41   C50   A    
C9    C27   A    
C90   C203  A    
C10   C28   A    
C226  C250  A    
C7    C94   A    
C165  H134  S    
C171  H142  S    
C22   H46   S    
C170  H145  S    
C127  H32   S    
C69   O41   A    
C67   O20   A    
C46   C192  A    
C117  C207  S    
C25   C42   A    
C119  C120  S    
C140  H65   S    
C105  C106  S    
C10   C81   A    
O25   Zn5   S    
C15   H208  S    
C110  H233  S    
C76   C240  S    
C34   H159  S    
C9    H112  S    
C109  C110  S    
C128  C212  S    
C159  H119  S    
C56   C85   S    
C172  H152  S    
C156  H114  S    
C129  H38   S    
O3    Zn6   S    
C13   C177  A    
C111  C114  S    
C18   H2    S    
C164  H127  S    
C55   O4    A    
C119  H19   S    
O47   Zn1   S    
C168  C210  A    
O51   Zn16  S    
C77   C239  S    
C196  H215  S    
C53   C82   S    
C108  H228  S    
O13   Zn12  S    
C18   C36   A    
C36   C49   A    
C167  H141  S    
C39   C48   A    
C54   C78   S    
C168  C246  A    
C68   C183  A    
O28   Zn4   S    
C165  C166  S    
C163  C164  S    
C90   C112  A    
C56   O9    A    
C117  H14   S    
O37   Zn14  S    
C120  H17   S    
C15   C81   A    
C135  C213  A    
O19   Zn7   S    
O12   Zn13  S    
C197  H216  S    
C118  H10   S    
C109  H235  S    
C152  H102  S    
C107  H229  S    
C160  H115  S    
C59   O11   A    
C6    C91   A    
C7    C89   A    
C92   H172  S    
C236  C242  A    
C8    H1    S    
C70   O22   A    
C74   O27   A    
C29   H113  S    
C57   C188  A    
C148  C222  S    
C88   H169  S    
C175  H153  S    
C2    C176  A    
C2    C187  A    
C184  C219  A    
C88   C92   A    
O18   Zn8   S    
C132  C133  S    
C12   C78   A    
O8    Zn1   S    
C215  C250  A    
C21   H35   S    
C14   C80   A    
C100  C255  A    
C123  H29   S    
C150  H95   S    
C111  H240  S    
C116  H4    S    
C91   H171  S    
C42   C51   A    
C165  H136  S    
C99   H180  S    
C72   O36   A    
C8    C78   A    
C167  C169  S    
C163  H130  S    
C169  H138  S    
C26   C43   A    
C113  C191  A    
C175  H154  S    
C28   C45   A    
C31   C44   A    
O49   Zn7   S    
O23   Zn10  S    
C148  C149  S    
C228  C239  A    
C199  C234  A    
O35   Zn12  S    
C134  C136  S    
C67   O40   A    
C1    C195  A    
C9    C80   A    
C102  H182  S    
C122  H20   S    
C16   C33   A    
C147  H82   S    
C20   C38   A    
C69   C248  S    
C21   C39   A    
C196  C231  A    
C115  C116  S    
C22   C40   A    
C194  H213  S    
C16   C82   A    
C200  C213  A    
C131  H42   S    
C229  C240  A    
C133  H49   S    
C115  H7    S    
C1    C24   S    
C185  H204  S    
C173  H150  S    
C183  C218  A    
C121  C209  S    
C65   C251  S    
C156  H111  S    
C23   C85   A    
C147  H83   S    
C158  H109  S    
C137  H62   S    
C105  H224  S    
C122  H21   S    
C5    C87   A    
C172  C173  S    
C136  H55   S    
C1    C79   A    
C136  H54   S    
C195  H214  S    
C124  C206  A    
C140  H66   S    
C28   H101  S    
C189  C225  A    
C200  C236  A    
O23   Zn14  S    
C139  H67   S    
C101  C204  A    
C174  C236  S    
C138  H60   S    
C201  C237  A    
C65   O42   A    
C172  C234  S    
C61   C247  S    
C137  C138  S    
O29   Zn16  S    
C171  H143  S    
C143  H80   S    
C104  C256  A    
C114  H238  S    
C161  H123  S    
C130  H45   S    
C144  H76   S    
C141  C142  S    
C24   C178  A    
C60   C84   S    
C63   C253  S    
C25   H68   S    
C221  C245  A    
C98   C104  A    
C25   C86   A    
C104  H184  S    
C218  C253  A    
C141  H73   S    
C63   O44   A    
C162  H121  S    
C75   O28   A    
C62   O15   A    
C30   C43   A    
C14   H197  S    
C138  H61   S    
C116  H6    S    
C234  C241  A    
O5    Zn15  S    
C58   O6    A    
C32   H146  S    
C125  H26   S    
C11   C29   A    
C66   O19   A    
C17   C34   A    
C166  H133  S    
C149  H86   S    
C69   O21   A    
C210  C245  A    
O24   Zn8   S    
C164  H126  S    
O43   Zn13  S    
C134  H56   S    
C97   C254  A    
