data_mof_unit_51707.cif
_audit_creation_date              2012-12-10T18:43:12-0500
_audit_creation_method            fapswitch 2.2
_symmetry_space_group_name_H-M    P1
_symmetry_Int_Tables_number       1
_space_group_crystal_system       triclinic
_cell_length_a                    10.672137
_cell_length_b                    9.839234
_cell_length_c                    10.741375
_cell_angle_alpha                 90.082416
_cell_angle_beta                  90.050461
_cell_angle_gamma                 90.561471
_cell_volume                      1127.84932378

loop_
_atom_site_label
_atom_site_type_symbol
_atom_type_description
_atom_site_fract_x
_atom_site_fract_y
_atom_site_fract_z
_atom_type_partial_charge
C1    C     C_R   0.259946 0.499107 0.502138 0.943397
C2    C     C_R   0.933679 0.403999 0.581805 0.381975
C3    C     C_R   0.871938 0.502242 0.510099 -0.193534
C4    C     C_R   0.127313 0.497410 0.505964 -0.183698
C5    C     C_R   0.936755 0.601547 0.443321 -0.256332
C6    C     C_R   0.064841 0.600254 0.442723 -0.268373
C7    C     C_R   0.565535 0.072805 0.587966 -0.072125
C8    C     C_R   0.434766 0.071136 0.411838 -0.088971
C9    C     C_R   0.565421 0.928907 0.588038 -0.072007
C10   C     C_R   0.435064 0.927257 0.411638 -0.073587
C11   C     C_3   0.114396 0.170746 0.582187 0.134951
C12   C     C_R   0.739801 0.500595 0.502453 0.911573
C13   C     C_3   0.183831 0.064655 0.658984 -0.341051
C14   C     C_3   0.162438 0.921524 0.607459 -0.936634
C15   C     C_3   0.827066 0.373590 0.765861 0.106396
C16   C     C_3   0.926270 0.362088 0.868343 -0.333218
C17   C     C_3   0.876041 0.412217 0.993098 -0.968093
C18   C     C_R   0.497726 0.499722 0.262507 0.923388
C19   C     C_R   0.503160 0.499959 0.737472 0.926611
C20   C     C_2   0.501932 0.384982 0.932964 -0.169976
C21   C     C_2   0.509399 0.385547 0.066853 -0.170559
C22   C     C_2   0.516665 0.500099 0.868841 -0.345621
C23   C     C_2   0.487311 0.499114 0.130925 -0.322190
C24   C     C_R   0.063001 0.395416 0.572551 0.362315
H1    H     H_    0.484784 0.287973 0.887194 0.169104
H2    H     H_    0.382629 0.872112 0.341329 0.120894
H3    H     H_    0.155191 0.173510 0.486738 0.126130
H4    H     H_    0.014329 0.138818 0.575479 0.175439
H5    H     H_    0.285741 0.088758 0.658586 0.235263
H6    H     H_    0.150329 0.067969 0.756905 0.223114
H7    H     H_    0.062311 0.891449 0.617052 0.264119
H8    H     H_    0.220444 0.848139 0.660060 0.280823
H9    H     H_    0.188859 0.916802 0.507668 0.258452
H10   H     H_    0.741378 0.318173 0.796463 0.167836
H11   H     H_    0.799756 0.481912 0.753543 0.101184
H12   H     H_    0.531438 0.290356 0.112776 0.168187
H13   H     H_    0.954995 0.254292 0.877799 0.236248
H14   H     H_    0.010040 0.423932 0.842931 0.235049
H15   H     H_    0.846567 0.519890 0.985720 0.266812
H16   H     H_    0.950511 0.405029 0.064982 0.267519
H17   H     H_    0.794734 0.348878 0.022853 0.271238
H18   H     H_    0.542275 0.596319 0.911566 0.148362
H19   H     H_    0.458030 0.593284 0.088049 0.146257
H20   H     H_    0.888262 0.678219 0.389822 0.182496
H21   H     H_    0.115155 0.677424 0.390296 0.176679
H22   H     H_    0.617981 0.127978 0.658254 0.139985
H23   H     H_    0.382141 0.124966 0.341684 0.121603
H24   H     H_    0.617816 0.875085 0.658370 0.126566
N1    N     N_R   0.500000 0.857200 0.500000 -0.075401
N2    N     N_R   0.500000 0.142810 0.500000 -0.082826
O1    O     O_R   0.316770 0.614620 0.499990 -0.630634
O2    O     O_3   0.868479 0.311019 0.654659 -0.652088
O3    O     O_R   0.683230 0.614620 0.500010 -0.630981
O4    O     O_R   0.316800 0.385290 0.500000 -0.599039
O5    O     O_R   0.683200 0.385290 0.500000 -0.583356
O6    O     O_R   0.500000 0.614630 0.319080 -0.628201
O7    O     O_R   0.500000 0.614630 0.680920 -0.629400
O8    O     O_R   0.500030 0.385300 0.319080 -0.625468
O9    O     O_R   0.499970 0.385300 0.680920 -0.622427
O10   O     O_3   0.127498 0.299025 0.640691 -0.634357
Zn1   Zn    Zn3+2 0.500000 0.653120 0.500000 0.932876
Zn2   Zn    Zn3+2 0.500000 0.346880 0.500000 0.957302

loop_
_geom_bond_atom_site_label_1
_geom_bond_atom_site_label_2
_ccdc_geom_bond_type
O8    Zn2   S    
C1    O4    A    
O5    Zn2   S    
O7    Zn1   S    
C6    H21   S    
C11   H3    S    
C11   C13   S    
C14   H7    S    
C15   H10   S    
C12   O3    A    
O1    Zn1   S    
C18   O6    A    
C16   H13   S    
C24   O10   S    
C1    C4    S    
C10   H2    S    
C14   H9    S    
C2    C3    A    
C8    H23   S    
C9    N1    A    
C21   H12   S    
C16   H14   S    
C13   C14   S    
C19   O7    A    
C1    O1    A    
C22   H18   S    
C2    O2    S    
C11   H4    S    
C18   C23   S    
C4    C24   A    
C15   H11   S    
C5    H20   S    
C20   C22   D    
C21   C23   D    
C2    C24   A    
C5    C6    A    
N2    Zn2   S    
C17   H17   S    
C12   O5    A    
N1    Zn1   S    
C20   H1    S    
C15   C16   S    
C7    H22   S    
C8    N2    A    
C13   H6    S    
C19   C22   S    
C23   H19   S    
C20   C21   S    
C9    H24   S    
C4    C6    A    
C17   H15   S    
C13   H5    S    
C7    C9    A    
O6    Zn1   S    
O9    Zn2   S    
C3    C12   S    
O4    Zn2   S    
C19   O9    A    
C15   O2    S    
C10   N1    A    
O3    Zn1   S    
C18   O8    A    
C8    C10   A    
C11   O10   S    
C7    N2    A    
C14   H8    S    
C16   C17   S    
C3    C5    A    
C17   H16   S    
