data_mof_unit_36961.cif
_audit_creation_date              2013-03-05T15:39:31-0500
_audit_creation_method            fapswitch 2.2
_symmetry_space_group_name_H-M    P1
_symmetry_Int_Tables_number       1
_space_group_crystal_system       triclinic
_cell_length_a                    19.696049
_cell_length_b                    17.008634
_cell_length_c                    15.368095
_cell_angle_alpha                 90.000649
_cell_angle_beta                  53.331429
_cell_angle_gamma                 89.999052
_cell_volume                      4129.51374024

loop_
_atom_site_label
_atom_site_type_symbol
_atom_site_description
_atom_site_fract_x
_atom_site_fract_y
_atom_site_fract_z
_atom_type_partial_charge
C1    C     C_R   0.339637 0.174486 0.050803 -0.117186
C2    C     C_R   0.375401 0.802154 0.994834 -0.131472
C3    C     C_R   0.875403 0.697848 0.994830 -0.131508
C4    C     C_R   0.839641 0.325513 0.050794 -0.117161
H1    H     H_    0.330147 0.223180 0.101719 0.085916
H2    H     H_    0.384340 0.747116 0.021769 0.082029
H3    H     H_    0.884341 0.752886 0.021767 0.082052
H4    H     H_    0.830154 0.276817 0.101705 0.085961
N1    N     N_R   0.408680 0.130160 0.995800 -0.047538
N2    N     N_R   0.408680 0.869840 0.995800 -0.043913
N3    N     N_R   0.908680 0.630160 0.995800 -0.043922
N4    N     N_R   0.908680 0.369840 0.995800 -0.047552
C5    C     C_R   0.349775 0.828283 0.218314 -0.133457
C6    C     C_R   0.398742 0.199362 0.208362 -0.163364
C7    C     C_R   0.898736 0.300639 0.208339 -0.163333
C8    C     C_R   0.849762 0.671705 0.218317 -0.133447
H5    H     H_    0.334931 0.775034 0.195235 0.088174
H6    H     H_    0.397888 0.255540 0.176372 0.093289
H7    H     H_    0.897951 0.244456 0.176300 0.093436
H8    H     H_    0.834901 0.724948 0.195245 0.088191
N5    N     N_R   0.421680 0.867580 0.153120 -0.040860
N6    N     N_R   0.421680 0.132420 0.153120 -0.035649
N7    N     N_R   0.921680 0.367580 0.153120 -0.035665
N8    N     N_R   0.921680 0.632420 0.153120 -0.040859
C9    C     C_R   0.366358 0.888424 0.895558 -0.153458
C10   C     C_R   0.328841 0.086621 0.953119 -0.155310
C11   C     C_R   0.828844 0.413378 0.953112 -0.155376
C12   C     C_R   0.866360 0.611576 0.895555 -0.153487
H9    H     H_    0.363221 0.914075 0.833623 0.099659
H10   H     H_    0.307325 0.052428 0.914540 0.100613
H11   H     H_    0.807328 0.447569 0.914531 0.100604
H12   H     H_    0.863226 0.585923 0.833618 0.099635
N9    N     N_R   0.403730 0.921770 0.935950 -0.041235
N10   N     N_R   0.403730 0.078230 0.935950 -0.045275
N11   N     N_R   0.903730 0.421770 0.935950 -0.045271
N12   N     N_R   0.903730 0.578230 0.935950 -0.041231
C13   C     C_R   0.405700 0.107162 0.304839 -0.168171
C14   C     C_R   0.356413 0.922864 0.313579 -0.120990
C15   C     C_R   0.856408 0.577126 0.313574 -0.121057
C16   C     C_R   0.905681 0.392826 0.304850 -0.168389
H13   H     H_    0.410675 0.076909 0.362554 0.089503
H14   H     H_    0.344956 0.960738 0.377224 0.092218
H15   H     H_    0.844952 0.539250 0.377214 0.092219
H16   H     H_    0.910567 0.423061 0.362656 0.089454
N13   N     N_R   0.426630 0.075970 0.212960 -0.032386
N14   N     N_R   0.426630 0.924030 0.212960 -0.039626
N15   N     N_R   0.926630 0.575970 0.212960 -0.039616
N16   N     N_R   0.926630 0.424030 0.212960 -0.032391
C17   C     C_R   0.286745 0.147746 0.026842 0.152393
C18   C     C_R   0.348536 0.811921 0.931426 0.142499
C19   C     C_R   0.848540 0.688081 0.931419 0.142528
C20   C     C_R   0.786751 0.352252 0.026829 0.152437
C21   C     C_R   0.306449 0.861769 0.321033 0.022866
C22   C     C_R   0.388021 0.185017 0.304190 0.044632
C23   C     C_R   0.887991 0.314981 0.304176 0.044617
C24   C     C_R   0.806438 0.638217 0.321033 0.022862
C25   C     C_R   0.623386 0.200067 0.011434 -0.118375
C26   C     C_R   0.660901 0.822559 0.953303 -0.083305
C27   C     C_R   0.160897 0.677442 0.953310 -0.083215
C28   C     C_R   0.123373 0.299929 0.011453 -0.118371
H17   H     H_    0.616521 0.256468 0.985282 0.079892
H18   H     H_    0.671751 0.771618 0.904732 0.098535
H19   H     H_    0.171744 0.728384 0.904744 0.098544
H20   H     H_    0.116498 0.243525 0.985318 0.079882
N17   N     N_R   0.591320 0.134600 0.004200 -0.040138
N18   N     N_R   0.591320 0.865400 0.004200 -0.055944
N19   N     N_R   0.091320 0.634600 0.004200 -0.055953
N20   N     N_R   0.091320 0.365400 0.004200 -0.040130
C29   C     C_R   0.600907 0.800640 0.792524 -0.038364
C30   C     C_R   0.651392 0.170123 0.780738 -0.136234
C31   C     C_R   0.151393 0.329883 0.780786 -0.136194
C32   C     C_R   0.100915 0.699356 0.792519 -0.038267
H21   H     H_    0.601705 0.744772 0.825231 0.066587
H22   H     H_    0.670076 0.221378 0.803093 0.093174
H23   H     H_    0.170045 0.278643 0.803201 0.093153
H24   H     H_    0.101717 0.755224 0.825223 0.066586
N21   N     N_R   0.578320 0.867660 0.846880 -0.037299
N22   N     N_R   0.578320 0.132340 0.846880 -0.043396
N23   N     N_R   0.078320 0.367660 0.846880 -0.043435
N24   N     N_R   0.078320 0.632340 0.846880 -0.037287
C33   C     C_R   0.642274 0.076316 0.685627 -0.101001
C34   C     C_R   0.592317 0.892756 0.696680 -0.106417
C35   C     C_R   0.092337 0.607233 0.696667 -0.106488
C36   C     C_R   0.142316 0.423682 0.685636 -0.101108
H25   H     H_    0.651824 0.040371 0.621492 0.103254
H26   H     H_    0.587127 0.921894 0.638412 0.076850
H27   H     H_    0.087162 0.578086 0.638391 0.076834
H28   H     H_    0.151901 0.459578 0.621438 0.103052
N25   N     N_R   0.573370 0.074390 0.787040 -0.048287
N26   N     N_R   0.573370 0.925610 0.787040 -0.028992
N27   N     N_R   0.073370 0.574390 0.787040 -0.028961
N28   N     N_R   0.073370 0.425610 0.787040 -0.048282
C37   C     C_R   0.670031 0.917915 0.049431 -0.148888
C38   C     C_R   0.633489 0.105414 0.105328 -0.150147
C39   C     C_R   0.133484 0.394587 0.105335 -0.150052
C40   C     C_R   0.170029 0.582087 0.049436 -0.148859
H29   H     H_    0.691475 0.952028 0.088058 0.097809
H30   H     H_    0.637640 0.078401 0.165709 0.088481
H31   H     H_    0.137634 0.421604 0.165715 0.088454
H32   H     H_    0.191472 0.547975 0.088065 0.097787
N29   N     N_R   0.596270 0.927870 0.064040 -0.043507
N30   N     N_R   0.596270 0.072130 0.064040 -0.034378
N31   N     N_R   0.096270 0.427870 0.064040 -0.034361
N32   N     N_R   0.096270 0.572130 0.064040 -0.043510
Ni1   Ni    Ni4+2 0.500000 0.131190 0.000000 0.211034
Ni2   Ni    Ni4+2 0.500000 0.868810 0.000000 0.215327
Ni3   Ni    Ni4+2 0.000000 0.631190 0.000000 0.215362
Ni4   Ni    Ni4+2 0.000000 0.368810 0.000000 0.211025
Ni5   Ni    Ni4+2 0.488650 1.000000 0.862740 0.215676
Ni6   Ni    Ni4+2 0.988650 0.500000 0.862740 0.215671
Ni7   Ni    Ni4+2 0.511350 0.000000 0.137260 0.218644
Ni8   Ni    Ni4+2 0.011350 0.500000 0.137260 0.218657
C41   C     C_R   0.650683 0.184104 0.073511 0.153262
C42   C     C_R   0.711605 0.854017 0.979521 0.166432
C43   C     C_R   0.211600 0.645985 0.979532 0.166465
C44   C     C_R   0.150670 0.315893 0.073530 0.153249
C45   C     C_R   0.609965 0.814542 0.698030 0.006956
C46   C     C_R   0.692945 0.136376 0.678163 0.069635
C47   C     C_R   0.192989 0.363631 0.678218 0.070102
C48   C     C_R   0.109983 0.685448 0.698018 0.006924
C49   C     C_3   0.373398 0.224639 0.471236 -0.424401
C50   C     C_3   0.219227 0.868868 0.523681 -0.422613
C51   C     C_3   0.719263 0.631132 0.523679 -0.422629
C52   C     C_3   0.873896 0.274705 0.470654 -0.423893
H33   H     H_    0.440004 0.245442 0.425669 0.192469
H34   H     H_    0.274910 0.885302 0.521416 0.197250
H35   H     H_    0.774969 0.614727 0.521379 0.197173
H36   H     H_    0.940268 0.253217 0.424825 0.193350
H37   H     H_    0.372522 0.162034 0.492322 0.143560
H38   H     H_    0.188375 0.924110 0.524861 0.153354
H39   H     H_    0.688422 0.575876 0.524882 0.153412
H40   H     H_    0.873875 0.337224 0.491368 0.143314
C53   C     C_3   0.316668 0.270843 0.578100 -0.350677
C54   C     C_3   0.158457 0.823163 0.629001 -0.366288
C55   C     C_3   0.658504 0.676838 0.629003 -0.366238
C56   C     C_3   0.816931 0.228792 0.577752 -0.350511
H41   H     H_    0.593897 0.650982 0.674301 0.162227
H42   H     H_    0.784900 0.271900 0.645543 0.140868
H43   H     H_    0.284386 0.227878 0.646056 0.140803
H44   H     H_    0.093839 0.848990 0.674256 0.162223
H45   H     H_    0.355364 0.308930 0.591502 0.210140
H46   H     H_    0.179715 0.830359 0.681022 0.189558
H47   H     H_    0.679803 0.669682 0.680982 0.189573
H48   H     H_    0.855427 0.190496 0.591272 0.210011
H49   H     H_    0.419096 0.340217 0.323724 0.203550
H50   H     H_    0.359586 0.767235 0.400958 0.210544
H51   H     H_    0.859555 0.732790 0.400958 0.210543
H52   H     H_    0.918267 0.159480 0.322829 0.203303
C57   C     C_3   0.351154 0.323470 0.370424 -0.510739
C58   C     C_3   0.298720 0.746561 0.418957 -0.492524
C59   C     C_3   0.798689 0.753446 0.418939 -0.492451
C60   C     C_3   0.850389 0.176600 0.370331 -0.511274
C61   C     C_3   0.662940 0.710448 0.441831 -0.088375
C62   C     C_3   0.745770 0.291971 0.470953 -0.093421
C63   C     C_3   0.245651 0.208559 0.470451 -0.093167
C64   C     C_3   0.162977 0.789496 0.441792 -0.088378
C65   C     C_3   0.340732 0.234987 0.401054 0.283706
C66   C     C_3   0.247136 0.817529 0.422855 0.262797
C67   C     C_3   0.747123 0.682455 0.422862 0.262700
C68   C     C_3   0.840689 0.265012 0.401016 0.283734
H53   H     H_    0.622535 0.657662 0.461685 0.158872
H54   H     H_    0.742224 0.352912 0.500328 0.129757
H55   H     H_    0.241617 0.147389 0.499507 0.129748
H56   H     H_    0.122542 0.842263 0.461658 0.158830
C69   C     C_3   0.656199 0.764180 0.601500 0.161048
C70   C     C_3   0.750312 0.180708 0.576854 0.171512
C71   C     C_3   0.250364 0.319278 0.576926 0.171708
C72   C     C_3   0.156218 0.735807 0.601490 0.161146
C73   C     C_3   0.747418 0.798823 0.525589 0.274734
C74   C     C_3   0.795317 0.126729 0.473686 0.268549
C75   C     C_3   0.295747 0.373301 0.473779 0.267991
C76   C     C_3   0.247464 0.701208 0.525627 0.274765
C77   C     C_3   0.614697 0.766068 0.541421 -0.465808
C78   C     C_3   0.692791 0.239338 0.570732 -0.478936
C79   C     C_3   0.192769 0.260948 0.570525 -0.479034
C80   C     C_3   0.114758 0.733860 0.541359 -0.465861
H57   H     H_    0.547144 0.747805 0.597292 0.192605
H58   H     H_    0.656708 0.277256 0.644401 0.169292
H59   H     H_    0.156687 0.222851 0.644014 0.169311
H60   H     H_    0.047186 0.752074 0.597206 0.192569
H61   H     H_    0.615464 0.827000 0.514633 0.160902
H62   H     H_    0.644815 0.206392 0.568728 0.169341
H63   H     H_    0.144782 0.294107 0.568759 0.169327
H64   H     H_    0.115598 0.672921 0.514537 0.160863
H65   H     H_    0.332445 0.336581 0.316693 0.126119
H66   H     H_    0.316609 0.705878 0.351721 0.140509
H67   H     H_    0.816577 0.794108 0.351686 0.140598
H68   H     H_    0.830891 0.163973 0.317335 0.126112
H69   H     H_    0.742570 0.860494 0.505323 0.099613
H70   H     H_    0.746124 0.099663 0.469022 0.030765
H71   H     H_    0.246749 0.400408 0.468746 0.031099
H72   H     H_    0.242677 0.639508 0.505382 0.099364
C81   C     C_2   0.286037 0.684133 0.957756 -0.195669
C82   C     C_2   0.191061 0.259198 0.099789 -0.206169
C83   C     C_2   0.691076 0.240798 0.099764 -0.206221
C84   C     C_2   0.786047 0.815872 0.957739 -0.195714
H73   H     H_    0.306161 0.664775 0.006285 0.120056
H74   H     H_    0.217710 0.282302 0.139083 0.121969
H75   H     H_    0.717726 0.217695 0.139058 0.121986
H76   H     H_    0.806172 0.835233 0.006266 0.120084
C85   C     C_2   0.710866 0.312864 0.054855 -0.180483
C86   C     C_2   0.813029 0.747994 0.902736 -0.185474
C87   C     C_2   0.313019 0.752008 0.902750 -0.185420
C88   C     C_2   0.210855 0.187131 0.054878 -0.180294
H77   H     H_    0.682302 0.337029 0.018564 0.122041
H78   H     H_    0.795414 0.729824 0.851100 0.152156
H79   H     H_    0.295405 0.770176 0.851112 0.152190
H80   H     H_    0.182291 0.162967 0.018586 0.122040
N33   N     N_R   0.790683 0.800276 0.577425 0.247940
O1    O     O_R   0.819027 0.736114 0.591541 -0.446086
O2    O     O_R   0.802051 0.866826 0.608748 -0.332800
N34   N     N_R   0.844781 0.063184 0.475683 0.249546
O3    O     O_R   0.912547 0.078043 0.469052 -0.400004
O4    O     O_R   0.827392 0.990659 0.469287 -0.398251
N35   N     N_R   0.345001 0.436817 0.476268 0.249489
O5    O     O_R   0.412436 0.421917 0.470402 -0.399935
O6    O     O_R   0.327779 0.509354 0.469632 -0.397898
N36   N     N_R   0.290698 0.699861 0.577507 0.247922
O7    O     O_R   0.319035 0.764065 0.591539 -0.446115
O8    O     O_R   0.302019 0.633366 0.608990 -0.332726
N37   N     N_3   0.673667 0.749234 0.349170 -0.204640
H81   H     H_    0.718114 0.794507 0.319147 0.104051
H82   H     H_    0.691760 0.708070 0.288402 0.119659
N38   N     N_3   0.708320 0.293613 0.411992 -0.206396
H83   H     H_    0.722099 0.242055 0.367447 0.109533
H84   H     H_    0.732218 0.341427 0.358740 0.128183
N39   N     N_3   0.208515 0.207924 0.411073 -0.206618
H85   H     H_    0.222828 0.259683 0.366709 0.109202
H86   H     H_    0.232136 0.160222 0.357638 0.128086
N40   N     N_3   0.173733 0.750705 0.349113 -0.204668
H87   H     H_    0.218200 0.705448 0.319084 0.103996
H88   H     H_    0.191804 0.791871 0.288357 0.119671

loop_
_geom_bond_atom_site_label_1
_geom_bond_atom_site_label_2
_geom_bond_distance
_ccdc_geom_bond_type
C26   H18   1.078435 S    
C35   H27   1.080389 S    
C60   C68   1.553241 S    
C57   H65   1.109421 S    
C13   H13   1.079317 S    
N25   Ni5   1.849392 S    
C14   N14   1.322865 A    
C63   C65   1.568797 S    
C6    H6    1.079291 S    
C29   N21   1.323341 A    
C33   N25   1.321224 A    
N20   N31   1.446117 A    
C73   H69   1.114415 S    
C32   H24   1.079486 S    
N28   Ni6   1.849338 S    
N38   H83   1.043743 S    
C78   H62   1.114759 S    
C31   N23   1.330379 A    
C31   H23   1.079037 S    
C18   C87   1.445748 S    
C76   H72   1.114456 S    
C49   H33   1.113283 S    
N24   Ni3   1.892570 S    
C63   N39   1.471390 S    
C21   C66   1.481988 S    
C25   H17   1.079341 S    
C42   C84   1.447941 S    
C4    C20   1.373280 A    
N22   Ni1   1.892570 S    
C1    H1    1.076323 S    
N27   Ni6   1.849392 S    
C79   H63   1.114797 S    
N21   Ni2   1.892569 S    
C14   H14   1.076541 S    
C24   C67   1.481996 S    
C3    H3    1.079692 S    
N35   O6    1.299576 A    
C54   H44   1.113228 S    
C56   H48   1.109285 S    
C12   C19   1.374454 A    
C39   H31   1.081422 S    
C30   N22   1.330547 A    
C38   H30   1.081423 S    
N1    Ni1   1.838002 S    
N15   Ni8   1.867825 S    
C61   C77   1.550253 S    
C52   H40   1.109914 S    
C72   C80   1.556648 S    
C20   C85   1.448923 S    
C1    C17   1.373283 A    
N38   H84   1.045281 S    
C4    H4    1.076326 S    
C9    C18   1.374465 A    
C50   C54   1.530657 S    
C61   C67   1.575922 S    
C2    C18   1.368574 A    
C3    N3    1.329243 A    
C27   N19   1.319302 A    
H50   C58   1.114126 S    
N32   Ni8   1.822378 S    
C64   C66   1.575934 S    
C10   N10   1.341939 A    
C58   C76   1.524804 S    
C88   H80   1.082239 S    
C45   C69   1.466351 S    
C26   N18   1.319309 A    
C30   H22   1.079092 S    
N8    Ni3   1.892582 S    
C40   C43   1.398267 A    
C29   H21   1.079491 S    
N26   Ni5   1.849338 S    
C4    N4    1.326345 A    
C50   C66   1.564696 S    
C78   H58   1.114331 S    
C16   H16   1.079359 S    
C83   H75   1.083124 S    
N5    Ni2   1.892583 S    
C19   C86   1.445743 S    
C84   H76   1.083883 S    
C52   H36   1.113048 S    
C44   C82   1.452249 S    
C7    N7    1.327676 A    
C43   C81   1.447943 S    
C17   C88   1.448929 S    
C77   H61   1.111910 S    
C8    N8    1.327289 A    
C49   C65   1.561112 S    
N14   Ni7   1.867883 S    
C9    H9    1.081845 S    
C41   C83   1.452238 S    
N18   N29   1.446117 A    
N30   Ni7   1.822378 S    
C2    H2    1.079689 S    
N17   N30   1.446130 A    
N18   Ni2   1.838832 S    
N17   Ni1   1.838833 S    
C38   C41   1.395493 A    
C39   N31   1.347603 A    
N19   N32   1.446130 A    
C5    C21   1.391247 A    
N22   N25   1.390611 A    
C69   C73   1.559744 S    
C81   C87   1.339139 D    
N21   N26   1.390623 A    
C70   C78   1.553731 S    
C51   H39   1.113204 S    
C62   C68   1.568629 S    
C62   C78   1.526629 S    
C5    N5    1.327258 A    
H52   C60   1.113292 S    
C12   H12   1.081844 S    
C1    N1    1.326352 A    
C56   H42   1.111732 S    
C10   C17   1.389227 A    
C37   N29   1.341692 A    
N4    Ni4   1.838002 S    
C52   C56   1.540155 S    
C71   C75   1.569648 S    
C50   H38   1.113201 S    
C63   H55   1.116172 S    
C34   H26   1.080390 S    
C87   H79   1.083709 S    
C33   C46   1.384214 A    
C46   C70   1.472488 S    
C61   H53   1.114681 S    
N31   Ni8   1.822325 S    
C7    C23   1.378848 A    
C35   C48   1.378270 A    
C50   H34   1.112019 S    
C7    H7    1.079326 S    
N35   O5    1.301326 A    
C8    C24   1.391266 A    
C61   N37   1.465736 S    
N37   H81   1.043938 S    
C54   H46   1.108687 S    
C60   C74   1.536636 S    
C36   N28   1.321417 A    
N36   O8    1.300706 A    
N39   H85   1.043933 S    
C77   H57   1.113361 S    
C39   C44   1.395480 A    
C8    H8    1.074906 S    
C16   C23   1.370721 A    
C82   C88   1.345161 D    
C80   H64   1.111910 S    
C32   C48   1.373766 A    
C9    N9    1.339613 A    
N33   O1    1.301645 A    
C55   C69   1.552597 S    
C75   H71   1.113131 S    
C15   C24   1.388048 A    
N4    N11   1.320140 A    
N40   H88   1.044911 S    
C38   N30   1.347603 A    
N23   N28   1.390623 A    
N11   Ni6   1.893771 S    
C13   C22   1.370756 A    
C27   C43   1.388017 A    
C23   C68   1.466019 S    
C6    C22   1.378969 A    
N34   O4    1.299548 A    
C53   H43   1.111707 S    
N7    Ni4   1.892583 S    
C40   N32   1.341696 A    
C11   H11   1.081414 S    
N3    Ni3   1.838002 S    
N1    N10   1.320128 A    
C55   H41   1.113228 S    
C54   C72   1.552609 S    
N2    Ni2   1.838002 S    
N9    Ni5   1.893771 S    
C13   N13   1.322848 A    
C2    N2    1.329239 A    
C37   H29   1.080234 S    
C51   H35   1.112032 S    
C76   N36   1.473847 S    
C11   C20   1.389228 A    
C48   C72   1.466340 S    
C15   N15   1.322849 A    
N5    N14   1.372644 A    
C72   C76   1.559751 S    
C63   C79   1.526712 S    
C16   N16   1.322973 A    
N3    N12   1.320128 A    
C3    C19   1.368579 A    
N7    N16   1.372644 A    
C58   C66   1.555667 S    
N39   H86   1.045340 S    
C64   C80   1.550219 S    
C57   C75   1.536831 S    
N8    N15   1.372657 A    
C27   H19   1.078433 S    
C62   H54   1.115962 S    
C36   H28   1.076736 S    
C49   H37   1.110160 S    
C34   N26   1.327001 A    
C58   H66   1.111667 S    
C25   C41   1.373139 A    
N16   Ni8   1.867883 S    
N13   Ni7   1.867825 S    
C70   C74   1.569659 S    
C83   C85   1.345161 D    
C5    H5    1.074895 S    
N29   Ni7   1.822325 S    
N6    Ni1   1.892582 S    
C35   N27   1.326980 A    
N2    N9    1.320140 A    
C74   H70   1.113027 S    
C53   H45   1.109262 S    
C59   C73   1.524762 S    
C31   C47   1.393895 A    
C28   H20   1.079341 S    
C28   N20   1.317220 A    
C11   N11   1.341939 A    
C6    N6    1.327820 A    
N24   N27   1.390611 A    
C53   C71   1.553233 S    
C64   H56   1.114683 S    
C75   N35   1.467652 S    
N37   H82   1.044912 S    
C22   C65   1.466217 S    
N12   Ni6   1.893713 S    
C79   H59   1.114372 S    
N19   Ni3   1.838833 S    
N36   O7    1.301651 A    
C82   H74   1.083125 S    
C14   C21   1.388084 A    
C56   C70   1.553184 S    
C30   C46   1.394018 A    
C36   C47   1.384345 A    
C81   H73   1.083883 S    
H51   C59   1.114130 S    
C40   H32   1.080234 S    
C29   C45   1.373754 A    
C55   H47   1.108689 S    
N33   O2    1.300702 A    
C71   C79   1.553758 S    
N23   Ni4   1.892569 S    
C47   C71   1.472495 S    
C37   C42   1.398257 A    
C62   N38   1.471121 S    
N40   H87   1.043935 S    
C33   H25   1.076661 S    
C51   C67   1.564694 S    
C28   C44   1.373137 A    
C52   C68   1.560870 S    
C60   H68   1.109276 S    
C64   N40   1.465731 S    
C80   H60   1.113362 S    
N6    N13   1.372657 A    
C74   N34   1.467645 S    
N34   O3    1.301253 A    
C12   N12   1.339609 A    
C32   N24   1.323341 A    
C86   H78   1.083710 S    
C15   H15   1.076533 S    
C51   C55   1.530625 S    
C26   C42   1.388020 A    
N10   Ni5   1.893713 S    
C85   H77   1.082241 S    
C73   N33   1.473829 S    
N20   Ni4   1.838832 S    
C34   C45   1.378256 A    
C49   C53   1.539949 S    
C69   C77   1.556635 S    
C57   C65   1.553463 S    
C59   H67   1.111668 S    
H49   C57   1.113509 S    
C84   C86   1.339131 D    
C59   C67   1.555639 S    
C25   N17   1.317200 A    
C10   H10   1.081414 S    
