data_mof_unit_12797.cif
_audit_creation_date              2012-10-26T20:43:03-0400
_audit_creation_method            fapswitch 2.2
_symmetry_space_group_name_H-M    P1
_symmetry_Int_Tables_number       1
_space_group_crystal_system       triclinic
_cell_length_a                    10.903078
_cell_length_b                    9.542241
_cell_length_c                    15.063327
_cell_angle_alpha                 90.229101
_cell_angle_beta                  90.951902
_cell_angle_gamma                 90.270077
_cell_volume                      1566.93878103

loop_
_atom_site_label
_atom_site_type_symbol
_atom_type_description
_atom_site_fract_x
_atom_site_fract_y
_atom_site_fract_z
_atom_type_partial_charge
C1    C     C_R   0.261892 0.500030 0.499941 0.545596
C2    C     C_R   0.127443 0.501299 0.500927 -0.090531
C3    C     C_R   0.440430 0.073554 0.434453 0.011773
C4    C     C_R   0.561367 0.926353 0.564739 0.024205
C5    C     C_R   0.560933 0.074927 0.564925 0.038526
C6    C     C_R   0.439405 0.924970 0.434882 0.013950
C7    C     C_R   0.500382 0.499418 0.329224 0.510396
C8    C     C_R   0.498305 0.500410 0.670740 0.513062
C9    C     C_R   0.609438 0.524506 0.813955 0.194330
C10   C     C_R   0.386798 0.510908 0.186105 0.200881
C11   C     C_R   0.497854 0.502927 0.767076 -0.016128
C12   C     C_R   0.737548 0.500650 0.500450 0.544799
C13   C     C_R   0.499237 0.496560 0.232837 -0.019119
C14   C     C_R   0.385757 0.490466 0.812199 0.196875
C15   C     C_R   0.611201 0.483868 0.187810 0.192129
C16   C     C_R   0.385234 0.510120 0.905040 0.009773
C17   C     C_R   0.611693 0.492782 0.094393 0.007918
C18   C     C_R   0.498247 0.512301 0.952997 -0.140261
C19   C     C_R   0.498954 0.508292 0.046924 -0.141147
C20   C     C_R   0.610518 0.520025 0.907353 0.009344
C21   C     C_R   0.386987 0.519701 0.092785 0.007709
C22   C     C_R   0.274647 0.528742 0.951659 0.256231
C23   C     C_R   0.277367 0.544525 0.044084 0.342119
C24   C     C_R   0.722835 0.493793 0.046822 0.234898
C25   C     C_3   0.152569 0.732360 0.072295 0.047605
C26   C     C_3   0.231929 0.824214 0.134649 -0.275946
C27   C     C_3   0.221978 0.978444 0.109047 -0.498042
C28   C     C_3   0.869835 0.694647 0.939670 0.067729
C29   C     C_3   0.797823 0.807570 0.888800 -0.285886
C30   C     C_3   0.833962 0.953777 0.921343 -0.511712
C31   C     C_3   0.129984 0.204794 0.417865 0.036859
C32   C     C_3   0.008868 0.178849 0.366383 -0.264072
C33   C     C_3   0.034144 0.145053 0.269469 -0.495919
C34   C     C_R   0.721687 0.526585 0.956585 0.320682
C35   C     C_3   0.844279 0.711591 0.352137 0.046427
C36   C     C_3   0.857232 0.843707 0.296863 -0.261873
C37   C     C_3   0.809648 0.820616 0.202075 -0.472082
C38   C     C_3   0.859777 0.308597 0.658787 0.030741
C39   C     C_3   0.935377 0.213546 0.719306 -0.289690
C40   C     C_3   0.941022 0.269569 0.814360 -0.404126
C41   C     C_3   0.152365 0.798958 0.580224 0.046960
C42   C     C_3   0.043848 0.857272 0.631834 -0.263502
C43   C     C_3   0.083903 0.891705 0.727148 -0.500681
C44   C     C_R   0.060496 0.375226 0.511175 0.226617
C45   C     C_R   0.936171 0.624223 0.477277 0.207733
C46   C     C_R   0.935845 0.382537 0.527181 0.214826
C47   C     C_R   0.062236 0.629270 0.492505 0.228904
C48   C     C_R   0.871003 0.502596 0.501082 -0.102340
Cu1   Cu    Cu3+1 0.500000 0.640660 0.500000 0.941560
Cu2   Cu    Cu3+1 0.500000 0.359340 0.500000 0.952021
H1    H     H_    0.393607 0.128678 0.381406 0.095977
H2    H     H_    0.829224 0.373771 0.113354 0.355341
H3    H     H_    0.055172 0.754905 0.086450 0.141744
H4    H     H_    0.166697 0.763583 0.002017 0.104077
H5    H     H_    0.201577 0.810179 0.204157 0.191105
H6    H     H_    0.329838 0.793953 0.130931 0.162455
H7    H     H_    0.262095 0.995633 0.042633 0.156744
H8    H     H_    0.273195 0.044000 0.158327 0.153964
H9    H     H_    0.124464 0.011572 0.106959 0.153071
H10   H     H_    0.967824 0.705535 0.922411 0.168656
H11   H     H_    0.864456 0.713745 0.012350 0.137346
H12   H     H_    0.610940 0.871208 0.616554 0.113042
H13   H     H_    0.816301 0.798341 0.816709 0.188299
H14   H     H_    0.697775 0.794179 0.898567 0.163573
H15   H     H_    0.807449 0.967965 0.991671 0.149482
H16   H     H_    0.785494 0.033296 0.880453 0.153300
H17   H     H_    0.934463 0.969968 0.916140 0.140033
H18   H     H_    0.182006 0.105163 0.417791 0.154006
H19   H     H_    0.186163 0.283137 0.381841 0.132379
H20   H     H_    0.958429 0.090933 0.397469 0.205027
H21   H     H_    0.949916 0.273227 0.366974 0.169631
H22   H     H_    0.080352 0.235073 0.237230 0.194507
H23   H     H_    0.609743 0.130951 0.617086 0.113847
H24   H     H_    0.946497 0.123720 0.233280 0.153752
H25   H     H_    0.093991 0.051730 0.265308 0.139361
H26   H     H_    0.746750 0.678438 0.349320 0.194023
H27   H     H_    0.900881 0.628161 0.320492 0.157655
H28   H     H_    0.805358 0.930683 0.327767 0.178956
H29   H     H_    0.955855 0.871850 0.295150 0.176889
H30   H     H_    0.858840 0.732114 0.170939 0.207231
H31   H     H_    0.825294 0.916525 0.162309 0.120029
H32   H     H_    0.709767 0.796995 0.201851 0.168963
H33   H     H_    0.761168 0.293889 0.673578 0.167438
H34   H     H_    0.390272 0.868756 0.382803 0.128465
H35   H     H_    0.882499 0.420174 0.675608 0.148668
H36   H     H_    0.892477 0.107916 0.718583 0.146312
H37   H     H_    0.030356 0.205803 0.694120 0.214708
H38   H     H_    0.985253 0.374648 0.816228 0.251156
H39   H     H_    0.996449 0.198000 0.856586 0.150655
H40   H     H_    0.847269 0.277412 0.841623 0.184046
H41   H     H_    0.223825 0.882051 0.576351 0.167744
H42   H     H_    0.194180 0.711275 0.618741 0.141714
H43   H     H_    0.008483 0.953145 0.598691 0.217038
H44   H     H_    0.968761 0.778368 0.633980 0.170921
H45   H     H_    0.705239 0.574736 0.709029 0.315486
H46   H     H_    0.126171 0.798842 0.759245 0.146691
H47   H     H_    0.003397 0.921537 0.766512 0.142094
H48   H     H_    0.151124 0.979539 0.728097 0.162085
H49   H     H_    0.284728 0.487769 0.292316 0.316115
H50   H     H_    0.289805 0.434745 0.705209 0.334396
H51   H     H_    0.708407 0.431055 0.293474 0.322115
H52   H     H_    0.172109 0.612585 0.862207 0.328452
N1    N     N_R   0.500000 0.852070 0.500000 -0.230810
N2    N     N_R   0.500000 0.147930 0.500000 -0.220067
O1    O     O_R   0.319640 0.618740 0.499990 -0.477786
O2    O     O_3   0.275354 0.514302 0.229265 -0.661654
O3    O     O_3   0.276386 0.457856 0.768252 -0.703765
O4    O     O_3   0.721558 0.470102 0.233690 -0.728937
O5    O     O_3   0.162482 0.541090 0.909117 -0.647203
O6    O     O_3   0.835185 0.468127 0.086345 -0.629466
O7    O     O_3   0.171913 0.587043 0.086806 -0.452900
O8    O     O_3   0.831486 0.557203 0.915650 -0.478612
O9    O     O_3   0.113538 0.243946 0.508001 -0.524740
O10   O     O_3   0.879021 0.740871 0.441531 -0.526303
O11   O     O_3   0.878836 0.271475 0.568649 -0.529674
O12   O     O_R   0.680360 0.381260 0.500010 -0.466595
O13   O     O_3   0.119289 0.759420 0.491935 -0.523750
O14   O     O_R   0.680360 0.618740 0.500010 -0.480358
O15   O     O_R   0.319640 0.381260 0.499990 -0.478330
O16   O     O_R   0.499970 0.618800 0.370260 -0.509551
O17   O     O_R   0.500030 0.381200 0.629740 -0.511607
O18   O     O_R   0.500030 0.618800 0.629740 -0.526653
O19   O     O_R   0.499970 0.381200 0.370260 -0.526024
O20   O     O_3   0.719308 0.541864 0.770435 -0.706100

loop_
_geom_bond_atom_site_label_1
_geom_bond_atom_site_label_2
_ccdc_geom_bond_type
C3    N2    A    
H45   O20   S    
C29   H13   S    
Cu2   N2    S    
C38   H33   S    
C42   H43   S    
C34   O8    S    
C41   C42   S    
C35   C36   S    
C43   H48   S    
C39   H37   S    
C12   C48   S    
C3    C6    A    
C26   H5    S    
C28   O8    S    
C26   C27   S    
C46   O11   S    
C36   C37   S    
C19   C21   A    
C25   H3    S    
C1    C2    S    
C38   C39   S    
C11   C14   A    
C8    O17   A    
Cu1   O16   S    
C4    N1    A    
C4    H12   S    
C9    O20   S    
C35   O10   S    
C18   C19   A    
C1    O15   A    
C33   H22   S    
C47   O13   S    
C45   O10   S    
C33   H25   S    
C31   C32   S    
C2    C44   A    
C40   H39   S    
Cu2   O12   S    
C30   H17   S    
C20   C34   A    
C28   H11   S    
H51   O4    S    
C28   H10   S    
C5    N2    A    
C37   H31   S    
Cu2   O17   S    
C44   C46   A    
C32   H21   S    
C45   C47   A    
C10   C21   A    
C31   H18   S    
C37   H30   S    
C46   C48   A    
C35   H26   S    
C17   C24   A    
C6    H34   S    
C38   H35   S    
Cu2   O15   S    
C24   O6    S    
C25   H4    S    
C27   H7    S    
C39   C40   S    
C3    H1    S    
C32   H20   S    
C25   C26   S    
C35   H27   S    
C24   C34   A    
C15   O4    S    
C29   C30   S    
C9    C20   A    
Cu1   O14   S    
H2    O6    S    
C22   O5    S    
C43   H46   S    
C6    N1    A    
C9    C11   A    
C30   H16   S    
C36   H29   S    
C31   H19   S    
C12   O14   A    
C14   O3    S    
C41   H41   S    
C44   O9    S    
C21   C23   A    
C14   C16   A    
C37   H32   S    
C10   O2    S    
C42   C43   S    
C45   C48   A    
C15   C17   A    
H49   O2    S    
C28   C29   S    
H50   O3    S    
C16   C22   A    
C42   H44   S    
C7    O16   A    
Cu2   O19   S    
C43   H47   S    
C7    O19   A    
C4    C5    A    
C10   C13   A    
C26   H6    S    
Cu1   N1    S    
Cu1   O1    S    
C2    C47   A    
C23   O7    S    
C41   O13   S    
C32   C33   S    
C40   H38   S    
C13   C15   A    
C27   H9    S    
C38   O11   S    
C8    O18   A    
C27   H8    S    
C8    C11   S    
Cu1   O18   S    
C17   C19   A    
C18   C20   A    
C5    H23   S    
C29   H14   S    
C30   H15   S    
C25   O7    S    
C33   H24   S    
C7    C13   S    
C41   H42   S    
C16   C18   A    
Cu1   Cu2   S    
C22   C23   A    
H52   O5    S    
C36   H28   S    
C39   H36   S    
C40   H40   S    
C31   O9    S    
C1    O1    A    
C12   O12   A    
