data_mof_unit_31291.cif
_audit_creation_date              2012-12-11T14:19:37-0500
_audit_creation_method            fapswitch 2.2
_symmetry_space_group_name_H-M    P1
_symmetry_Int_Tables_number       1
_space_group_crystal_system       monoclinic
_cell_length_a                    19.410337
_cell_length_b                    7.247957
_cell_length_c                    17.731585
_cell_angle_alpha                 90.0
_cell_angle_beta                  107.634755
_cell_angle_gamma                 90.0
_cell_volume                      2377.3458605

loop_
_atom_site_label
_atom_site_type_symbol
_atom_type_description
_atom_site_fract_x
_atom_site_fract_y
_atom_site_fract_z
_atom_type_partial_charge
O1    O     O_R   0.414820 0.494320 0.416790 -0.539988
O2    O     O_R   0.585180 0.994320 0.583210 -0.539988
O3    O     O_R   0.560270 0.819500 0.430140 -0.544116
O4    O     O_R   0.439730 0.319500 0.569860 -0.544116
C1    C     C_R   0.581414 0.655542 0.414976 0.711004
C2    C     C_R   0.418586 0.155542 0.585024 0.711004
O5    O     O_R   0.413840 0.823740 0.407440 -0.537425
O6    O     O_R   0.586160 0.323740 0.592560 -0.537426
O7    O     O_R   0.437710 0.998590 0.560350 -0.539722
O8    O     O_R   0.562290 0.498590 0.439650 -0.539722
C3    C     C_R   0.388554 0.654743 0.384376 0.743139
C4    C     C_R   0.611446 0.154743 0.615624 0.743139
O9    O     O_3   0.508000 0.662290 0.550200 -0.380818
O10   O     O_3   0.492000 0.162290 0.449800 -0.380818
V1    V     V_3+5 0.498520 0.935380 0.490690 1.401478
V2    V     V_3+5 0.501480 0.435380 0.509310 1.401478
C5    C     C_2   0.780029 0.256139 0.794416 -0.207892
C6    C     C_2   0.219970 0.756141 0.205586 -0.207891
C7    C     C_2   0.829596 0.117952 0.806921 -0.139508
C8    C     C_2   0.170404 0.617951 0.193079 -0.139509
H1    H     H_    0.785981 0.361019 0.839713 0.149758
H2    H     H_    0.214017 0.861024 0.160290 0.149761
C9    C     C_2   0.716751 0.279817 0.722139 -0.149200
C10   C     C_2   0.283248 0.779817 0.277862 -0.149201
C11   C     C_2   0.675087 0.137300 0.686650 -0.334436
C12   C     C_2   0.324913 0.637301 0.313350 -0.334436
H3    H     H_    0.701560 0.419512 0.701682 0.161758
H4    H     H_    0.298438 0.919511 0.298321 0.161759
H5    H     H_    0.687987 0.999510 0.710945 0.140920
H6    H     H_    0.312014 0.499512 0.289053 0.140921
C13   C     C_R   0.323907 0.300089 0.635729 -0.213523
C14   C     C_R   0.676092 0.800089 0.364270 -0.213523
C15   C     C_R   0.368774 0.148328 0.634057 -0.077302
C16   C     C_R   0.631226 0.648328 0.365943 -0.077302
C17   C     C_R   0.365437 0.990421 0.679029 -0.219457
C18   C     C_R   0.634564 0.490420 0.320972 -0.219457
C19   C     C_R   0.318696 0.984425 0.725947 0.091581
C20   C     C_R   0.681305 0.484424 0.274053 0.091581
C21   C     C_R   0.273483 0.136633 0.726668 0.057011
C22   C     C_R   0.726517 0.636633 0.273332 0.057012
C23   C     C_R   0.275855 0.294535 0.681016 0.088334
C24   C     C_R   0.724145 0.794536 0.318984 0.088334
C25   C     C_R   0.316474 0.829104 0.772401 -0.190912
C26   C     C_R   0.683526 0.329103 0.227600 -0.190912
C27   C     C_R   0.269356 0.823588 0.818486 -0.188818
C28   C     C_R   0.730645 0.323587 0.181514 -0.188818
C29   C     C_R   0.223493 0.973123 0.818832 0.089294
C30   C     C_R   0.776507 0.473122 0.181169 0.089294
C31   C     C_R   0.225801 0.130928 0.773107 0.056421
C32   C     C_R   0.774199 0.630927 0.226892 0.056421
C33   C     C_R   0.180556 0.283075 0.773790 0.086850
C34   C     C_R   0.819443 0.783076 0.226209 0.086850
C35   C     C_R   0.182767 0.438387 0.727322 -0.183826
C36   C     C_R   0.817232 0.938388 0.272677 -0.183827
C37   C     C_R   0.229956 0.444012 0.681317 -0.184161
C38   C     C_R   0.770043 0.944013 0.318681 -0.184162
C39   C     C_R   0.175570 0.967728 0.864269 -0.211419
C40   C     C_R   0.824431 0.467727 0.135731 -0.211420
C41   C     C_R   0.130632 0.119408 0.865909 -0.070990
C42   C     C_R   0.869368 0.619408 0.134091 -0.070991
C43   C     C_R   0.133821 0.277090 0.820718 -0.212827
C44   C     C_R   0.866178 0.777091 0.179281 -0.212828
H7    H     H_    0.325585 0.421840 0.600793 0.126133
H8    H     H_    0.674414 0.921842 0.399205 0.126133
H9    H     H_    0.399975 0.873209 0.678429 0.128890
H10   H     H_    0.600027 0.373207 0.321572 0.128890
H11   H     H_    0.351026 0.711388 0.772885 0.133972
H12   H     H_    0.648975 0.211387 0.227116 0.133973
H13   H     H_    0.268583 0.701788 0.853660 0.133947
H14   H     H_    0.731418 0.201787 0.146341 0.133948
H15   H     H_    0.174075 0.846106 0.899344 0.123755
H16   H     H_    0.825926 0.346104 0.100658 0.123755
H17   H     H_    0.099226 0.394251 0.821192 0.136383
H18   H     H_    0.900772 0.894253 0.178806 0.136383
H19   H     H_    0.148191 0.556069 0.726809 0.140493
H20   H     H_    0.851808 0.056070 0.273189 0.140493
H21   H     H_    0.230756 0.565848 0.646174 0.137516
H22   H     H_    0.769243 0.065849 0.353825 0.137517
O11   O     O_R   0.937810 0.773680 0.060480 -0.543342
O12   O     O_R   0.062190 0.273680 0.939520 -0.543342
O13   O     O_R   0.086190 0.439740 0.092580 -0.509916
O14   O     O_R   0.913810 0.939740 0.907420 -0.509918
C45   C     C_R   0.110698 0.608638 0.116845 0.723158
C46   C     C_R   0.889302 0.108638 0.883155 0.723159
O15   O     O_R   0.939760 0.444210 0.069890 -0.540447
O16   O     O_R   0.060240 0.944210 0.930110 -0.540446
O17   O     O_R   0.914790 0.269640 0.916760 -0.547614
O18   O     O_R   0.085210 0.769640 0.083240 -0.547614
C47   C     C_R   0.919074 0.612378 0.084872 0.693995
C48   C     C_R   0.080926 0.112378 0.915128 0.693998
O19   O     O_3   0.992050 0.601530 0.949880 -0.372777
O20   O     O_3   0.007950 0.101530 0.050120 -0.372777
V3    V     V_3+5 0.001480 0.328340 0.009300 1.473693
V4    V     V_3+5 0.998520 0.828340 0.990700 1.473693
C49   C     C_2   0.831284 0.987476 0.742302 0.360039
H23   H     H_    0.800841 0.016202 0.681325 0.073550
O21   O     O_2   0.868461 0.848338 0.755973 -0.522640
C50   C     C_2   0.168718 0.487470 0.257697 0.360039
H24   H     H_    0.199159 0.516195 0.318674 0.073549
O22   O     O_2   0.131543 0.348328 0.244024 -0.522640

loop_
_geom_bond_atom_site_label_1
_geom_bond_atom_site_label_2
_ccdc_geom_bond_type
O4    V2    S    
O14   V4    S    
C49   H23   S    
O1    C3    A    
C46   O17   A    
O2    C4    A    
C2    O7    A    
O3    V1    S    
C29   C31   A    
C42   C47   S    
O5    C3    A    
C5    C9    S    
C6    C10   S    
C17   C19   A    
C10   C12   D    
C37   H21   S    
C18   H10   S    
C39   C41   A    
C17   H9    S    
C40   C42   A    
C38   H22   S    
C42   C44   A    
C27   C29   A    
C23   C37   A    
O16   V4    S    
C24   C38   A    
O15   V3    S    
C26   C28   A    
C31   C33   A    
C33   C43   A    
C32   C34   A    
C13   C15   A    
C9    H3    S    
C16   C18   A    
C22   C24   A    
C45   O18   A    
O6    V2    S    
C35   H19   S    
O13   C45   A    
C34   C36   A    
C28   C30   A    
C35   C37   A    
C11   H5    S    
C36   C38   A    
C41   C43   A    
O11   C47   A    
C27   H13   S    
C13   H7    S    
C14   H8    S    
O11   V4    S    
C21   C23   A    
O16   C48   A    
O15   C47   A    
C5    C7    D    
O5    V1    S    
C3    C12   S    
C43   H17   S    
C5    H1    S    
C33   C35   A    
C41   C48   S    
C14   C16   A    
C19   C25   A    
C20   C26   A    
C29   C39   A    
O13   V3    S    
O6    C4    A    
C1    C16   S    
O1    V2    S    
C39   H15   S    
O2    V1    S    
C25   C27   A    
C36   H20   S    
O4    C2    A    
C21   C31   A    
C12   H6    S    
C50   O22   D    
C26   H12   S    
C7    C46   S    
C7    C49   S    
C13   C23   A    
C6    H2    S    
C10   H4    S    
O3    C1    A    
C49   O21   D    
O9    V2    S    
C30   C40   A    
O14   C46   A    
C2    C15   S    
C4    C11   S    
C18   C20   A    
O7    V1    S    
C1    O8    A    
C19   C21   A    
O8    V2    S    
O19   V4    S    
C20   C22   A    
C40   H16   S    
C22   C32   A    
O17   V3    S    
C30   C32   A    
O20   V3    S    
C15   C17   A    
C6    C8    D    
C9    C11   D    
O12   C48   A    
C28   H14   S    
C8    C50   S    
C25   H11   S    
C50   H24   S    
C8    C45   S    
O18   V4    S    
C14   C24   A    
O10   V1    S    
C44   H18   S    
C34   C44   A    
O12   V3    S    
