data_mof_unit_53948.cif
_audit_creation_date              2012-12-10T17:18:21-0500
_audit_creation_method            fapswitch 2.2
_symmetry_space_group_name_H-M    P1
_symmetry_Int_Tables_number       1
_space_group_crystal_system       triclinic
_cell_length_a                    10.20276
_cell_length_b                    10.346023
_cell_length_c                    14.957021
_cell_angle_alpha                 90.421185
_cell_angle_beta                  80.874045
_cell_angle_gamma                 93.589135
_cell_volume                      1555.78547131

loop_
_atom_site_label
_atom_site_type_symbol
_atom_type_description
_atom_site_fract_x
_atom_site_fract_y
_atom_site_fract_z
_atom_type_partial_charge
C1    C     C_R   0.553539 0.735907 0.492480 0.813856
C2    C     C_2   0.072658 0.482836 0.496921 0.665132
C3    C     C_R   0.499522 0.498935 0.673176 0.889358
C4    C     C_R   0.500453 0.501356 0.326820 1.005937
C5    C     C_R   0.390309 0.450905 0.197769 -0.240876
C6    C     C_R   0.608179 0.554623 0.802297 -0.307772
C7    C     C_R   0.501128 0.504457 0.231192 -0.211716
C8    C     C_R   0.498388 0.498632 0.768863 -0.212295
C9    C     C_R   0.610973 0.561452 0.174101 0.611160
C10   C     C_R   0.387032 0.445031 0.826244 0.557232
C11   C     C_R   0.610772 0.564278 0.080860 -0.109781
C12   C     C_R   0.446574 0.264574 0.504579 0.823644
C13   C     C_R   0.384787 0.447406 0.919680 -0.097713
C14   C     C_R   0.498324 0.507714 0.046779 -0.050388
C15   C     C_R   0.496554 0.505467 0.953768 -0.040895
C16   C     C_R   0.388239 0.451429 0.105761 0.081439
C17   C     C_R   0.607790 0.559344 0.894608 0.091218
C18   C     C_R   0.719243 0.622048 0.020999 0.482519
C19   C     C_R   0.274294 0.393527 0.979668 0.479614
C20   C     C_3   0.833930 0.810627 0.047103 0.130943
C21   C     C_3   0.948233 0.868934 0.091383 -0.719297
C22   C     C_3   0.055546 0.401474 0.965522 0.164792
C23   C     C_R   0.717488 0.616918 0.928051 -0.349721
C24   C     C_3   0.944009 0.334450 0.922613 -0.757887
C25   C     C_3   0.373526 0.112636 0.658629 0.135374
C26   C     C_3   0.332739 0.017932 0.736702 -0.779709
C27   C     C_3   0.704295 0.898655 0.593538 0.136019
C28   C     C_3   0.775571 0.000774 0.645228 -0.796474
C29   C     C_3   0.154059 0.675249 0.659619 0.295444
C30   C     C_3   0.057792 0.757543 0.719862 -0.892725
C31   C     C_3   0.829369 0.275257 0.375009 0.288474
C32   C     C_3   0.914124 0.192187 0.307310 -0.787365
C33   C     C_R   0.278226 0.394412 0.072388 -0.290927
C34   C     C_2   0.575877 0.876180 0.476902 0.140772
C35   C     C_2   0.423620 0.123998 0.501200 0.189944
C36   C     C_2   0.498609 0.928157 0.422918 0.562237
C37   C     C_2   0.479199 0.066450 0.424670 0.490079
C38   C     C_2   0.924675 0.504577 0.511562 0.646108
F1    F     F_    0.715324 0.616155 0.210335 -0.616211
F2    F     F_    0.283037 0.389198 0.790209 -0.669963
F3    F     F_    0.525520 0.136604 0.348251 -0.705457
F4    F     F_    0.427986 0.852325 0.370197 -0.645683
F5    F     F_    0.118174 0.381266 0.445513 -0.660925
F6    F     F_    0.872685 0.577201 0.582981 -0.693784
H1    H     H_    0.306501 0.406794 0.243603 0.213697
H2    H     H_    0.076654 0.500748 0.936093 0.154177
H3    H     H_    0.020619 0.408571 0.039677 0.148104
H4    H     H_    0.922572 0.234094 0.949187 0.242667
H5    H     H_    0.852467 0.387999 0.938914 0.213385
H6    H     H_    0.973228 0.331123 0.847898 0.271373
H7    H     H_    0.305508 0.193265 0.668088 0.204742
H8    H     H_    0.477438 0.150689 0.661411 0.129282
H9    H     H_    0.393117 0.931805 0.726480 0.233905
H10   H     H_    0.348356 0.065650 0.801265 0.232534
H11   H     H_    0.225984 0.986906 0.741293 0.253989
H12   H     H_    0.692875 0.596694 0.756264 0.207859
H13   H     H_    0.775981 0.824629 0.569218 0.223063
H14   H     H_    0.618653 0.853946 0.641178 0.113039
H15   H     H_    0.707008 0.076701 0.670888 0.245622
H16   H     H_    0.810132 0.955161 0.703588 0.207181
H17   H     H_    0.862982 0.046347 0.600118 0.268901
H18   H     H_    0.255050 0.724576 0.651826 0.164790
H19   H     H_    0.153040 0.580133 0.694466 0.160939
H20   H     H_    0.956818 0.707919 0.730884 0.272904
H21   H     H_    0.091220 0.772761 0.786504 0.200664
H22   H     H_    0.052749 0.852861 0.687342 0.276432
H23   H     H_    0.803127 0.656624 0.881991 0.158443
H24   H     H_    0.737561 0.292240 0.347446 0.215439
H25   H     H_    0.804768 0.220223 0.439975 0.151818
H26   H     H_    0.007380 0.172143 0.332751 0.284434
H27   H     H_    0.858375 0.098784 0.297562 0.227898
H28   H     H_    0.939502 0.243047 0.241079 0.247323
H29   H     H_    0.195779 0.348459 0.118264 0.166335
H30   H     H_    0.739692 0.847642 0.083495 0.162275
H31   H     H_    0.849711 0.843583 0.975285 0.114951
H32   H     H_    0.044118 0.835311 0.055988 0.243537
H33   H     H_    0.951223 0.976278 0.087525 0.196972
H34   H     H_    0.934538 0.839279 0.163660 0.288023
N1    N     N_2   0.842700 0.448880 0.462930 0.002319
N2    N     N_2   0.157300 0.551120 0.537070 0.003660
O1    O     O_R   0.431060 0.692470 0.507460 -0.580210
O2    O     O_3   0.168869 0.328073 0.947452 -0.566055
O3    O     O_3   0.364584 0.048494 0.575753 -0.643037
O4    O     O_3   0.661267 0.958055 0.519500 -0.661320
O5    O     O_3   0.112626 0.662220 0.574552 -0.537280
O6    O     O_3   0.900701 0.393507 0.385916 -0.547766
O7    O     O_R   0.568940 0.307530 0.492540 -0.656978
O8    O     O_R   0.651120 0.659650 0.483670 -0.580188
O9    O     O_R   0.348880 0.340350 0.516330 -0.564182
O10   O     O_R   0.389960 0.516440 0.644050 -0.631846
O11   O     O_R   0.610040 0.483560 0.355950 -0.572465
O12   O     O_R   0.610030 0.483620 0.620260 -0.586815
O13   O     O_R   0.389970 0.516380 0.379740 -0.565995
O14   O     O_3   0.831602 0.674223 0.052365 -0.568070
Zn1   Zn    Zn3+2 0.353060 0.521920 0.515880 1.070765
Zn2   Zn    Zn3+2 0.646940 0.478080 0.484120 1.045036

loop_
_geom_bond_atom_site_label_1
_geom_bond_atom_site_label_2
_ccdc_geom_bond_type
O8    Zn2   S    
C11   C18   A    
C30   H20   S    
C36   F4    S    
O12   Zn2   S    
C26   H11   S    
C29   H19   S    
O10   Zn1   S    
C32   H28   S    
C21   H32   S    
C29   C30   S    
C3    O10   A    
C22   O2    S    
C36   C37   S    
C35   C37   D    
O1    Zn1   S    
C11   C14   A    
C38   N1    D    
C1    O1    A    
C9    F1    S    
C10   F2    S    
C23   H23   S    
C5    C16   A    
O11   Zn2   S    
C21   H34   S    
C19   O2    S    
C29   O5    S    
C4    O11   A    
C28   H17   S    
C1    O8    A    
C22   H3    S    
O13   Zn1   S    
C31   O6    S    
C34   O4    S    
C4    C7    S    
C26   H10   S    
C1    C34   S    
C32   H27   S    
C28   H16   S    
C24   H6    S    
C31   H24   S    
C13   C19   A    
C18   C23   A    
C24   H4    S    
C12   O9    A    
C3    C8    S    
C27   H13   S    
C5    C7    A    
C35   O3    S    
C32   H26   S    
C25   C26   S    
C5    H1    S    
C10   C13   A    
C20   H31   S    
C3    O12   A    
C12   C35   S    
O9    Zn1   S    
C25   H7    S    
C38   F6    S    
N2    O5    S    
C16   C33   A    
C2    C38   S    
C31   C32   S    
C2    F5    S    
O7    Zn2   S    
C20   H30   S    
C17   C23   A    
N2    Zn1   S    
C9    C11   A    
C30   H22   S    
C33   H29   S    
C22   H2    S    
C13   C15   A    
C19   C33   A    
C18   O14   S    
C22   C24   S    
C26   H9    S    
C28   H15   S    
C24   H5    S    
C7    C9    A    
C6    C17   A    
C20   O14   S    
C29   H18   S    
C27   O4    S    
C12   O7    A    
C6    H12   S    
C27   H14   S    
C6    C8    A    
C15   C17   A    
C25   H8    S    
N1    Zn2   S    
C34   C36   D    
C14   C16   A    
C37   F3    S    
C30   H21   S    
C2    N2    D    
C4    O13   A    
C31   H25   S    
C20   C21   S    
C8    C10   A    
C21   H33   S    
C27   C28   S    
C25   O3    S    
C14   C15   A    
N1    O6    S    
