data_mof_unit_28614.cif
_audit_creation_date              2013-03-05T16:54:14-0500
_audit_creation_method            fapswitch 2.2
_symmetry_space_group_name_H-M    P1
_symmetry_Int_Tables_number       1
_space_group_crystal_system       triclinic
_cell_length_a                    12.969024
_cell_length_b                    17.516908
_cell_length_c                    16.775911
_cell_angle_alpha                 87.867901
_cell_angle_beta                  96.192578
_cell_angle_gamma                 93.325488
_cell_volume                      3780.6473207

loop_
_atom_site_label
_atom_site_type_symbol
_atom_site_description
_atom_site_fract_x
_atom_site_fract_y
_atom_site_fract_z
_atom_type_partial_charge
O1    O     O_R   0.500000 0.389130 0.566570 -0.613684
O2    O     O_R   0.500000 0.610870 0.433430 -0.652480
O3    O     O_R   0.499990 0.389100 0.433480 -0.623481
O4    O     O_R   0.500010 0.610900 0.566520 -0.623144
C1    C     C_R   0.500696 0.353434 0.501247 0.900421
C2    C     C_R   0.501000 0.646988 0.498659 0.868386
O5    O     O_R   0.346360 0.500000 0.555540 -0.629263
O6    O     O_R   0.653640 0.500000 0.444460 -0.630131
O7    O     O_R   0.346350 0.499970 0.422460 -0.623451
O8    O     O_R   0.653650 0.500030 0.577540 -0.618002
C3    C     C_R   0.298737 0.505880 0.484443 0.907419
C4    C     C_R   0.702265 0.498428 0.515489 0.893203
Zn1   Zn    Zn3+2 0.500000 0.500020 0.588860 0.953236
Zn2   Zn    Zn3+2 0.500000 0.499980 0.411140 0.946072
C5    C     C_R   0.814795 0.498528 0.525546 -0.170136
C6    C     C_R   0.188343 0.518192 0.474310 -0.178140
C7    C     C_R   0.024680 0.534683 0.392524 0.302475
C8    C     C_R   0.979966 0.490819 0.607166 0.300452
C9    C     C_R   0.133767 0.536332 0.399051 -0.132721
C10   C     C_R   0.871699 0.483433 0.600766 -0.137938
C11   C     C_R   0.136895 0.510162 0.542673 -0.235104
C12   C     C_R   0.865873 0.516430 0.457698 -0.220881
C13   C     C_R   0.030182 0.507862 0.537755 0.003773
C14   C     C_R   0.973157 0.519013 0.461989 0.001915
H1    H     H_    0.821071 0.528710 0.401117 0.222991
H2    H     H_    0.180702 0.503687 0.600430 0.205276
C15   C     C_R   0.528410 0.848696 0.565080 -0.184164
C16   C     C_R   0.469797 0.150969 0.441253 -0.177173
H3    H     H_    0.532500 0.878959 0.620669 0.180995
H4    H     H_    0.427859 0.117711 0.393688 0.182544
C17   C     C_R   0.515777 0.769821 0.567202 -0.186501
C18   C     C_R   0.456904 0.228645 0.442124 -0.197288
H5    H     H_    0.511245 0.740111 0.624622 0.165676
H6    H     H_    0.405568 0.255100 0.395131 0.150798
C19   C     C_R   0.509732 0.730054 0.495941 -0.096659
C20   C     C_R   0.509888 0.271786 0.503441 -0.061565
C21   C     C_R   0.516528 0.769870 0.422413 -0.297250
C22   C     C_R   0.577462 0.237678 0.563138 -0.278670
H7    H     H_    0.511578 0.738955 0.367308 0.192407
H8    H     H_    0.619086 0.272302 0.609499 0.169802
C23   C     C_R   0.528713 0.849583 0.419235 0.336029
C24   C     C_R   0.590685 0.159111 0.563551 0.321176
C25   C     C_R   0.534872 0.888385 0.491982 0.001409
C26   C     C_R   0.536015 0.116341 0.501300 0.000102
C27   C     C_1   0.542746 0.968952 0.494184 0.080262
C28   C     C_1   0.543276 0.036545 0.497627 0.085200
C29   C     C_R   0.450466 0.438522 0.830958 -0.293902
C30   C     C_R   0.520296 0.554802 0.160394 -0.319561
H9    H     H_    0.416860 0.388669 0.861117 0.160988
H10   H     H_    0.547241 0.601905 0.122736 0.154116
C31   C     C_R   0.457878 0.437658 0.748008 0.137351
C32   C     C_R   0.553430 0.551454 0.243494 0.170574
N1    N     N_R   0.500030 0.500030 0.707230 -0.106661
N2    N     N_R   0.499970 0.499970 0.292770 -0.107809
C33   C     C_R   0.534983 0.563363 0.749795 -0.052944
C34   C     C_R   0.436016 0.443250 0.256388 -0.019641
H11   H     H_    0.567371 0.612468 0.718189 0.133943
H12   H     H_    0.397454 0.401612 0.293876 0.136824
C35   C     C_R   0.526789 0.566933 0.833842 -0.056897
C36   C     C_R   0.423562 0.435269 0.171389 -0.063431
C37   C     C_R   0.482978 0.502640 0.875065 0.089762
C38   C     C_R   0.465606 0.494112 0.122376 0.078132
C39   C     C_1   0.472037 0.498495 0.961932 -0.033604
C40   C     C_1   0.464486 0.494263 0.034233 -0.039046
C41   C     C_R   0.564400 0.637773 0.876441 0.111264
C42   C     C_R   0.662696 0.672441 0.865542 -0.174723
C43   C     C_R   0.699226 0.738127 0.906903 -0.116875
C44   C     C_R   0.637849 0.770224 0.958967 -0.096773
C45   C     C_R   0.539346 0.737158 0.969133 -0.143886
C46   C     C_R   0.502352 0.671621 0.927723 -0.135178
H13   H     H_    0.711634 0.648367 0.825691 0.117741
H14   H     H_    0.775293 0.764072 0.898683 0.143659
H15   H     H_    0.666376 0.820961 0.991079 0.145767
H16   H     H_    0.491443 0.762444 0.008941 0.149069
H17   H     H_    0.425044 0.647723 0.935367 0.142810
C47   C     C_R   0.365798 0.366645 0.136275 0.113027
C48   C     C_R   0.269368 0.341314 0.161637 -0.177591
C49   C     C_R   0.215040 0.276685 0.128638 -0.109977
C50   C     C_R   0.256701 0.236321 0.070545 -0.083749
C51   C     C_R   0.353133 0.260209 0.045763 -0.129361
C52   C     C_R   0.407801 0.324731 0.078698 -0.123211
H18   H     H_    0.235762 0.371705 0.206538 0.117079
H19   H     H_    0.140580 0.257887 0.148157 0.142351
H20   H     H_    0.214535 0.186297 0.045065 0.139060
H21   H     H_    0.385842 0.228489 0.001295 0.139144
H22   H     H_    0.483453 0.341210 0.059952 0.134726
C53   C     C_R   0.821120 0.456327 0.672469 0.191088
C54   C     C_R   0.788311 0.379000 0.680771 -0.070675
C55   C     C_R   0.745852 0.351987 0.750229 -0.130353
C56   C     C_R   0.734819 0.402066 0.811289 -0.115587
C57   C     C_R   0.767686 0.479099 0.803465 -0.126314
C58   C     C_R   0.810925 0.506360 0.734292 -0.076165
H23   H     H_    0.797361 0.339611 0.634073 0.144269
H24   H     H_    0.722202 0.292084 0.756988 0.172032
H25   H     H_    0.701449 0.381092 0.864882 0.136936
H26   H     H_    0.760236 0.517410 0.851342 0.134589
H27   H     H_    0.836909 0.566034 0.728999 0.126543
C59   C     C_R   0.189170 0.561300 0.328580 0.201469
C60   C     C_R   0.175939 0.519267 0.258167 -0.079122
C61   C     C_R   0.222885 0.546088 0.190530 -0.133478
C62   C     C_R   0.284824 0.614125 0.193176 -0.097367
C63   C     C_R   0.300069 0.655492 0.263470 -0.124657
C64   C     C_R   0.251907 0.629583 0.330821 -0.076195
H28   H     H_    0.127606 0.466727 0.255336 0.139085
H29   H     H_    0.211395 0.514073 0.136044 0.148356
H30   H     H_    0.321211 0.634693 0.140778 0.138857
H31   H     H_    0.348333 0.708043 0.265491 0.148928
H32   H     H_    0.262873 0.662842 0.384538 0.115183
N3    N     N_R   0.967093 0.548149 0.315660 0.181717
O9    O     O_R   0.904752 0.494172 0.283536 -0.417061
O10   O     O_R   0.990901 0.608128 0.271953 -0.427126
N4    N     N_R   0.038668 0.477949 0.683662 0.180234
O11   O     O_R   0.086936 0.535178 0.721682 -0.406869
O12   O     O_R   0.041425 0.409449 0.716276 -0.395233
N5    N     N_R   0.534756 0.889081 0.342675 0.203962
O13   O     O_R   0.562911 0.853351 0.282568 -0.404378
O14   O     O_R   0.504600 0.958477 0.330262 -0.403898
N6    N     N_R   0.658955 0.124603 0.626578 0.200664
O15   O     O_R   0.733893 0.165747 0.664794 -0.413396
O16   O     O_R   0.641973 0.054039 0.650886 -0.408725
C65   C     C_R   0.413787 0.367801 0.708121 0.144408
C66   C     C_R   0.313188 0.366108 0.668231 -0.062582
C67   C     C_R   0.266837 0.298235 0.636488 -0.138795
C68   C     C_R   0.318927 0.230457 0.648010 -0.113111
C69   C     C_R   0.416525 0.230502 0.692317 -0.121899
C70   C     C_R   0.463836 0.298856 0.722346 -0.179675
H33   H     H_    0.269528 0.416581 0.664749 0.154849
H34   H     H_    0.189582 0.297861 0.604766 0.156820
H35   H     H_    0.282793 0.177676 0.624171 0.145580
H36   H     H_    0.455690 0.177624 0.703245 0.162403
H37   H     H_    0.538280 0.297801 0.757966 0.127011
C71   C     C_R   0.654216 0.599917 0.265368 0.095480
C72   C     C_R   0.682255 0.637660 0.337667 -0.160585
C73   C     C_R   0.762630 0.694507 0.345809 -0.165150
C74   C     C_R   0.819311 0.714631 0.281850 -0.011186
C75   C     C_R   0.800334 0.674099 0.211667 -0.019312
C76   C     C_R   0.722744 0.615340 0.205024 -0.116110
H38   H     H_    0.647820 0.623921 0.389751 0.198086
H39   H     H_    0.780759 0.723063 0.402156 0.145844
H40   H     H_    0.880622 0.759316 0.287799 0.138810
H41   H     H_    0.847314 0.686991 0.162807 0.144650
H42   H     H_    0.714704 0.583588 0.150366 0.140388

loop_
_geom_bond_atom_site_label_1
_geom_bond_atom_site_label_2
_geom_bond_distance
_ccdc_geom_bond_type
C76   H42   1.082421 S    
C1    C20   1.440839 S    
C6    C11   1.386525 A    
C33   C35   1.429291 A    
C15   H3    1.084599 S    
C67   C68   1.396834 A    
C11   H2    1.074700 S    
N4    O12   1.300879 A    
C56   C57   1.397092 A    
C74   C75   1.389358 A    
C29   H9    1.085856 S    
O2    C2    1.282721 A    
C48   C49   1.398020 A    
O5    C3    1.286062 A    
C61   H29   1.082243 S    
C62   C63   1.396952 A    
O1    C1    1.282866 A    
C18   C20   1.395169 A    
C19   C21   1.402864 A    
C8    N4    1.436968 S    
C22   C24   1.396406 A    
C45   C46   1.397935 A    
N3    O10   1.300272 A    
C50   H20   1.082325 S    
C41   C46   1.407792 A    
C10   C53   1.481305 S    
C66   H33   1.073699 S    
C2    C19   1.452297 S    
C36   C38   1.415735 A    
C43   H14   1.082341 S    
C55   H24   1.081348 S    
C37   C39   1.478039 S    
N6    O15   1.301414 A    
C38   C40   1.477086 S    
C57   H26   1.081284 S    
C44   C45   1.396546 A    
C69   H36   1.082312 S    
C5    C12   1.394514 A    
C60   C61   1.398242 A    
C26   C28   1.410445 S    
C71   C72   1.406073 A    
N5    O14   1.301055 A    
C12   H1    1.079433 S    
C13   C14   1.412845 A    
C17   H5    1.083316 S    
C64   H32   1.083288 S    
C34   H12   1.081201 S    
C52   H22   1.082505 S    
C30   H10   1.085075 S    
C60   H28   1.082626 S    
C48   H18   1.080897 S    
C72   H38   1.037727 S    
C53   C58   1.404233 A    
C23   C25   1.411431 A    
C74   H40   1.082299 S    
C24   C26   1.411190 A    
C23   N5    1.443517 S    
C49   H19   1.082359 S    
N4    O11   1.300873 A    
C9    C59   1.487797 S    
C32   N2    1.404638 A    
C58   H27   1.082967 S    
Zn1   N1    1.985729 S    
N1    C33   1.370006 A    
C11   C13   1.375835 A    
C5    C10   1.415560 A    
N2    C34   1.374008 A    
C35   C37   1.421987 A    
C7    C14   1.415204 A    
C15   C17   1.381449 A    
C43   C44   1.396805 A    
C32   C71   1.534536 S    
C16   C18   1.381282 A    
C47   C48   1.406517 A    
O4    C2    1.282364 A    
C73   H39   1.082874 S    
C49   C50   1.396717 A    
C24   N6    1.442165 S    
C29   C31   1.405887 A    
C44   H15   1.082326 S    
C27   C28   1.187170 T    
C36   C47   1.485340 S    
C8    C13   1.408664 A    
C31   N1    1.384295 A    
C18   H6    1.083915 S    
O7    Zn2   2.022000 S    
C51   H21   1.082421 S    
O7    C3    1.275619 A    
C3    C6    1.451128 S    
C30   C38   1.380375 A    
C42   H13   1.082209 S    
C4    C5    1.450839 S    
C30   C32   1.413907 A    
O6    C4    1.286763 A    
C45   H16   1.082403 S    
C25   C27   1.410618 S    
C65   C66   1.399820 A    
O3    Zn2   1.964357 S    
O8    C4    1.275822 A    
Zn2   N2    1.985729 S    
C59   C60   1.404724 A    
C33   H11   1.081503 S    
C72   C73   1.398491 A    
C31   C65   1.472854 S    
C12   C14   1.383642 A    
C50   C51   1.396610 A    
O1    Zn1   1.991727 S    
C63   H31   1.082218 S    
C57   C58   1.399001 A    
C62   H30   1.082299 S    
C54   H23   1.083048 S    
O6    Zn2   2.010570 S    
C51   C52   1.397984 A    
O3    C1    1.276093 A    
O8    Zn1   2.021998 S    
C7    N3    1.437425 S    
C47   C52   1.407644 A    
C29   C37   1.387918 A    
C73   C74   1.388479 A    
C16   H4    1.084489 S    
C71   C76   1.426022 A    
C65   C70   1.404597 A    
C21   H7    1.082779 S    
N3    O9    1.301276 A    
C35   C41   1.486272 S    
C22   H8    1.081967 S    
C67   H34   1.082392 S    
C69   C70   1.398882 A    
C70   H37   1.079969 S    
C6    C9    1.413997 A    
C17   C19   1.398556 A    
C20   C22   1.398144 A    
C61   C62   1.397420 A    
C7    C9    1.405848 A    
C75   H41   1.082628 S    
C16   C26   1.395882 A    
C68   H35   1.082212 S    
C42   C43   1.398225 A    
C8    C10   1.395441 A    
C21   C23   1.395777 A    
C63   C64   1.397826 A    
O2    Zn2   1.991731 S    
N6    O16   1.301130 A    
C39   C40   1.226502 T    
C15   C25   1.395031 A    
O5    Zn1   2.010572 S    
C34   C36   1.428792 A    
C54   C55   1.397152 A    
C53   C54   1.402541 A    
C41   C42   1.406958 A    
C46   H17   1.082579 S    
C66   C67   1.397712 A    
C75   C76   1.395917 A    
N5    O13   1.301820 A    
C55   C56   1.397261 A    
C56   H25   1.082366 S    
C59   C64   1.406395 A    
O4    Zn1   1.964361 S    
C68   C69   1.396980 A    
