data_mof_unit_24852.cif
_audit_creation_date              2012-12-10T18:13:33-0500
_audit_creation_method            fapswitch 2.2
_symmetry_space_group_name_H-M    P1
_symmetry_Int_Tables_number       1
_space_group_crystal_system       triclinic
_cell_length_a                    12.632667
_cell_length_b                    13.168045
_cell_length_c                    16.597394
_cell_angle_alpha                 89.22972
_cell_angle_beta                  98.523844
_cell_angle_gamma                 98.690767
_cell_volume                      2698.97548869

loop_
_atom_site_label
_atom_site_type_symbol
_atom_type_description
_atom_site_fract_x
_atom_site_fract_y
_atom_site_fract_z
_atom_type_partial_charge
C1    C     C_R   0.559454 0.690371 0.518524 0.889950
C2    C     C_R   0.614559 0.509682 0.231353 -0.292534
C3    C     C_R   0.578859 0.534902 0.878121 -0.203470
C4    C     C_R   0.580168 0.509355 0.796695 0.490041
C5    C     C_R   0.395999 0.549299 0.764532 -0.298922
C6    C     C_R   0.397939 0.577744 0.844870 -0.181231
C7    C     C_R   0.490653 0.573993 0.901039 0.158322
C8    C     C_2   0.577743 0.647777 0.034120 0.566331
C9    C     C_2   0.490138 0.599665 0.986003 -0.332207
C10   C     C_R   0.487275 0.517262 0.739122 -0.147463
C11   C     C_R   0.271442 0.045413 0.478697 -0.181690
C12   C     C_R   0.514626 0.503706 0.349404 0.875387
C13   C     C_R   0.406010 0.196911 0.488446 -0.093706
C14   C     C_R   0.706077 0.840325 0.555617 0.436826
C15   C     C_R   0.736130 0.943759 0.537569 0.046721
C16   C     C_R   0.654936 0.004908 0.513478 0.452703
C17   C     C_R   0.545679 0.968670 0.525653 -0.141425
C18   C     C_R   0.517781 0.865336 0.546678 -0.096347
C19   C     C_R   0.462247 0.030124 0.514231 0.055250
C20   C     C_R   0.352237 0.985603 0.509184 0.096539
C21   C     C_R   0.327243 0.887413 0.542233 0.145107
C22   C     C_R   0.413463 0.832159 0.569350 0.255991
C23   C     C_R   0.439871 0.308148 0.490237 0.858367
C24   C     C_R   0.485677 0.136159 0.514356 -0.156747
C25   C     C_R   0.299695 0.149634 0.463811 -0.227241
C26   C     C_R   0.595288 0.798667 0.544272 -0.284384
C27   C     C_R   0.905299 0.391983 0.644849 0.454982
C28   C     C_R   0.214655 0.632650 0.406704 0.043547
C29   C     C_R   0.123237 0.680024 0.401205 -0.274803
C30   C     C_R   0.043517 0.643842 0.448394 -0.115589
C31   C     C_R   0.047964 0.553275 0.493631 0.053787
C32   C     C_R   0.146048 0.513212 0.502750 0.138579
C33   C     C_R   0.961842 0.502578 0.533198 -0.229148
C34   C     C_R   0.487747 0.502929 0.651617 0.864142
C35   C     C_R   0.988807 0.441889 0.603405 -0.071184
C36   C     C_R   0.097304 0.423133 0.622287 0.137157
C37   C     C_R   0.158218 0.432580 0.557971 0.176897
C38   C     C_R   0.850884 0.499871 0.500858 0.619533
C39   C     C_R   0.798194 0.398230 0.612665 -0.188292
C40   C     C_R   0.532395 0.540456 0.268710 -0.166243
C41   C     C_R   0.477405 0.619368 0.234782 -0.192507
C42   C     C_R   0.500958 0.665421 0.162362 0.123592
C43   C     C_R   0.578230 0.628784 0.121684 -0.090110
C44   C     C_R   0.635667 0.551228 0.156436 0.511376
H1    H     H_    0.417619 0.647437 0.265748 0.168532
H2    H     H_    0.327531 0.603781 0.863055 0.149082
H3    H     H_    0.237854 0.192693 0.436761 0.160018
H4    H     H_    0.186615 0.013371 0.467138 0.147640
H5    H     H_    0.565921 0.171980 0.539797 0.213424
H6    H     H_    0.732952 0.366353 0.645162 0.206045
H7    H     H_    0.280473 0.664208 0.374571 0.130895
H8    H     H_    0.987276 0.694251 0.456592 0.137070
H9    H     H_    0.118075 0.749061 0.365599 0.143476
H10   H     H_    0.323651 0.555414 0.721881 0.191976
H11   H     H_    0.417812 0.568631 0.011906 0.131224
H12   H     H_    0.645952 0.522725 0.923962 0.186283
H13   H     H_    0.661067 0.452542 0.259601 0.197483
N1    N     N_R   0.774070 0.445420 0.541180 -0.159638
N2    N     N_R   0.226730 0.554050 0.459240 -0.128398
O1    O     O_R   0.631480 0.627510 0.519670 -0.593653
O2    O     O_R   0.455770 0.662400 0.493360 -0.613114
O3    O     O_R   0.598240 0.480510 0.398910 -0.571636
O4    O     O_R   0.422540 0.515400 0.372600 -0.621115
O5    O     O_R   0.544230 0.337600 0.506640 -0.604788
O6    O     O_R   0.368520 0.372490 0.480330 -0.611073
O7    O     O_R   0.577460 0.484600 0.627400 -0.567847
O8    O     O_R   0.401760 0.519490 0.601090 -0.632002
Zn1   Zn    Zn3+2 0.617320 0.476700 0.517570 0.985244
Zn2   Zn    Zn3+2 0.382680 0.523300 0.482430 0.917402
C45   C     C_3   0.212550 0.849829 0.558069 -0.924826
H14   H     H_    0.200813 0.771237 0.582857 0.252189
H15   H     H_    0.189652 0.902563 0.601941 0.243641
H16   H     H_    0.155256 0.848358 0.500644 0.233189
O9    O     O_3   0.785776 0.779439 0.576653 -0.614452
C46   C     C_3   0.788966 0.753647 0.659619 -0.289360
H17   H     H_    0.807827 0.823669 0.699085 0.151285
H18   H     H_    0.854470 0.706516 0.676608 0.176667
H19   H     H_    0.711890 0.706886 0.671477 0.169627
O10   O     O_3   0.683381 0.097994 0.476799 -0.619260
C47   C     C_3   0.664032 0.082851 0.391638 -0.313853
H20   H     H_    0.576757 0.056300 0.369567 0.165371
H21   H     H_    0.714352 0.027676 0.372410 0.159476
H22   H     H_    0.687006 0.157382 0.362129 0.197988
C48   C     C_3   0.854407 0.985685 0.539214 -0.824430
H23   H     H_    0.899208 0.975559 0.600878 0.234740
H24   H     H_    0.888478 0.943512 0.494094 0.235930
H25   H     H_    0.868008 0.068766 0.524930 0.256744
C49   C     C_3   0.399063 0.750100 0.632907 -0.830145
H26   H     H_    0.369023 0.781874 0.685376 0.224934
H27   H     H_    0.339315 0.684276 0.606908 0.263478
H28   H     H_    0.476390 0.723167 0.657523 0.217472
O11   O     O_3   0.667194 0.469802 0.773276 -0.607899
C50   C     C_3   0.766979 0.529682 0.804719 -0.289952
H29   H     H_    0.796962 0.503016 0.866480 0.182679
H30   H     H_    0.762314 0.613481 0.805882 0.142631
H31   H     H_    0.827579 0.518865 0.764923 0.200832
C51   C     C_3   0.140516 0.367894 0.697570 -0.793450
H32   H     H_    0.229342 0.369332 0.701830 0.215210
H33   H     H_    0.126651 0.406968 0.753080 0.262568
H34   H     H_    0.102573 0.286131 0.695506 0.257289
O12   O     O_3   0.928125 0.342038 0.718032 -0.606813
C52   C     C_3   0.879910 0.237816 0.711046 -0.320777
H35   H     H_    0.891752 0.201540 0.653376 0.163855
H36   H     H_    0.792454 0.229483 0.716468 0.177780
H37   H     H_    0.919161 0.194960 0.762129 0.187916
O13   O     O_3   0.820981 0.526625 0.420114 -0.596557
C53   C     C_3   0.797157 0.628402 0.412927 -0.213581
H38   H     H_    0.817345 0.673439 0.470366 0.188804
H39   H     H_    0.711927 0.631011 0.388536 0.192658
H40   H     H_    0.841242 0.668448 0.365759 0.142879
C54   C     C_3   0.170177 0.330787 0.524364 -0.822230
H41   H     H_    0.238020 0.299817 0.561845 0.251308
H42   H     H_    0.096031 0.273986 0.527115 0.210675
H43   H     H_    0.177683 0.337109 0.458667 0.242792
O14   O     O_3   0.713306 0.517780 0.116760 -0.589491
C55   C     C_3   0.676442 0.416172 0.088498 -0.322218
H44   H     H_    0.731776 0.395519 0.047444 0.195870
H45   H     H_    0.593749 0.408258 0.052571 0.149560
H46   H     H_    0.678276 0.360990 0.139762 0.162359
O15   O     O_3   0.669381 0.690759 0.000995 -0.595339
C56   C     C_3   0.734716 0.766119 0.053571 -0.285347
H47   H     H_    0.777791 0.730229 0.107207 0.191619
H48   H     H_    0.686768 0.823125 0.073296 0.144533
H49   H     H_    0.797095 0.808466 0.020052 0.180061
C57   C     C_3   0.440134 0.750802 0.129400 -0.948989
H50   H     H_    0.449966 0.811939 0.176534 0.242621
H51   H     H_    0.469907 0.786806 0.074577 0.242556
H52   H     H_    0.352733 0.720264 0.113474 0.248774

loop_
_geom_bond_atom_site_label_1
_geom_bond_atom_site_label_2
_ccdc_geom_bond_type
O7    Zn1   S    
C38   O13   S    
O12   C52   S    
C41   C42   A    
C19   C20   A    
C18   C26   A    
C8    C43   S    
C46   H17   S    
C34   O7    A    
C51   H32   S    
C2    H13   S    
C54   H42   S    
C28   C29   A    
C50   H29   S    
C14   O9    S    
C36   C37   A    
C48   H24   S    
C15   C48   S    
C3    C7    A    
C5    C6    A    
C28   H7    S    
O13   C53   S    
C11   C25   A    
O14   C55   S    
C55   H44   S    
C13   C23   S    
C52   H37   S    
C56   H49   S    
C42   C57   S    
C33   C35   A    
C38   N1    A    
O4    Zn2   S    
C44   O14   S    
C2    C44   A    
C8    C9    D    
C57   H52   S    
C53   H38   S    
C48   H25   S    
C36   C51   S    
C9    H11   S    
C22   C49   S    
C25   H3    S    
C49   H26   S    
C50   H30   S    
C21   C22   A    
C53   H39   S    
C13   C25   A    
C11   H4    S    
C47   H22   S    
C51   H33   S    
C11   C20   A    
C37   C54   S    
O9    C46   S    
C5    H10   S    
C48   H23   S    
C47   H21   S    
C1    O1    A    
C27   C39   A    
C12   O4    A    
C16   C17   A    
C27   C35   A    
C39   N1    A    
C27   O12   S    
C13   C24   A    
O8    Zn2   S    
C35   C36   A    
C12   C40   S    
C43   C44   A    
C29   C30   A    
C12   O3    A    
C3    H12   S    
C31   C32   A    
C49   H28   S    
C30   C31   A    
C45   H16   S    
C31   C33   A    
C17   C18   A    
C10   C34   S    
C32   C37   A    
C14   C26   A    
C52   H36   S    
C46   H18   S    
C56   H47   S    
C45   H14   S    
N2    Zn2   S    
N1    Zn1   S    
C40   C41   A    
C49   H27   S    
C50   H31   S    
C57   H50   S    
C53   H40   S    
C42   C43   A    
C4    C10   A    
C3    C4    A    
O5    Zn1   S    
C51   H34   S    
O15   C56   S    
C8    O15   S    
C28   N2    A    
O2    Zn2   S    
C24   H5    S    
C7    C9    S    
C30   H8    S    
C23   O5    A    
C6    H2    S    
C54   H41   S    
C18   C22   A    
C47   H20   S    
C1    O2    A    
C34   O8    A    
C6    C7    A    
C33   C38   A    
C55   H46   S    
O3    Zn1   S    
C21   C45   S    
C16   O10   S    
C23   O6    A    
C19   C24   A    
C5    C10   A    
C1    C26   S    
C29   H9    S    
O6    Zn2   S    
O11   C50   S    
C17   C19   A    
C55   H45   S    
C54   H43   S    
C52   H35   S    
C46   H19   S    
C56   H48   S    
O10   C47   S    
C2    C40   A    
C39   H6    S    
C20   C21   A    
O1    Zn1   S    
C57   H51   S    
C41   H1    S    
C14   C15   A    
C45   H15   S    
C32   N2    A    
C15   C16   A    
C4    O11   S    
