data_mof_unit_45934.cif
_audit_creation_date              2012-10-26T21:11:06-0400
_audit_creation_method            fapswitch 2.2
_symmetry_space_group_name_H-M    P1
_symmetry_Int_Tables_number       1
_space_group_crystal_system       triclinic
_cell_length_a                    10.922326
_cell_length_b                    10.927264
_cell_length_c                    13.108166
_cell_angle_alpha                 90.589397
_cell_angle_beta                  90.720845
_cell_angle_gamma                 90.224821
_cell_volume                      1564.25511424

loop_
_atom_site_label
_atom_site_type_symbol
_atom_type_description
_atom_site_fract_x
_atom_site_fract_y
_atom_site_fract_z
_atom_type_partial_charge
C1    C     C_R   0.494792 0.259479 0.499106 0.553070
C2    C     C_R   0.659586 0.837711 0.717168 -0.043877
C3    C     C_R   0.456710 0.114527 0.305299 0.067535
C4    C     C_R   0.543299 0.885472 0.694706 0.067530
C5    C     C_R   0.546534 0.112892 0.229568 -0.074409
C6    C     C_R   0.453478 0.887132 0.770442 -0.074426
C7    C     C_R   0.520339 0.159026 0.132613 -0.095458
C8    C     C_R   0.479669 0.841000 0.867400 -0.095460
C9    C     C_R   0.404095 0.205569 0.110470 -0.085003
C10   C     C_R   0.595906 0.794435 0.889541 -0.085002
C11   C     C_R   0.488963 0.932529 0.409481 -0.152759
C12   C     C_R   0.505213 0.740520 0.500894 0.553062
C13   C     C_R   0.511053 0.067471 0.590521 -0.152756
C14   C     C_R   0.505786 0.873025 0.502464 -0.016225
C15   C     C_R   0.494227 0.126974 0.497538 -0.016225
C16   C     C_R   0.259536 0.505395 0.499051 0.553854
C17   C     C_R   0.740464 0.494615 0.500948 0.553853
C18   C     C_R   0.518248 0.941100 0.594225 -0.036733
C19   C     C_R   0.481767 0.058899 0.405778 -0.036738
C20   C     C_1   0.500156 0.500109 0.173547 0.130601
C21   C     C_1   0.499843 0.499892 0.826453 0.130605
C22   C     C_1   0.500124 0.500089 0.050684 -0.074507
C23   C     C_R   0.872959 0.493841 0.502706 -0.009552
C24   C     C_1   0.499873 0.499911 0.949316 -0.074506
C25   C     C_R   0.222587 0.681853 0.190967 0.013026
C26   C     C_R   0.777444 0.318162 0.809037 0.013025
C27   C     C_R   0.177471 0.656445 0.288264 -0.061630
C28   C     C_R   0.822565 0.343566 0.711741 -0.061646
C29   C     C_R   0.113200 0.546921 0.305366 0.040587
C30   C     C_R   0.886801 0.453109 0.694632 0.040597
C31   C     C_R   0.093221 0.464544 0.223803 -0.108888
C32   C     C_R   0.906740 0.535516 0.776185 -0.108876
C33   C     C_R   0.138036 0.490301 0.126968 -0.138984
C34   C     C_R   0.127042 0.506182 0.497293 -0.009552
C35   C     C_R   0.861921 0.509765 0.873019 -0.138982
C36   C     C_R   0.202564 0.598658 0.110480 -0.109677
C37   C     C_R   0.797430 0.401383 0.889515 -0.109675
C38   C     C_R   0.932018 0.514287 0.410332 -0.155032
C39   C     C_R   0.067982 0.485743 0.589668 -0.155030
C40   C     C_1   0.288081 0.793839 0.172820 0.160828
C41   C     C_1   0.711969 0.206171 0.827186 0.160841
C42   C     C_R   0.941492 0.478250 0.593841 -0.033187
C43   C     C_R   0.058510 0.521778 0.406159 -0.033184
C44   C     C_R   0.314324 0.207219 0.185526 -0.086622
C45   C     C_R   0.685674 0.792758 0.814481 -0.086623
C46   C     C_R   0.340415 0.162265 0.282836 -0.043884
Cu1   Cu    Cu3+1 0.499990 0.499990 0.592680 0.985965
Cu2   Cu    Cu3+1 0.500010 0.500010 0.407320 0.985961
H1    H     H_    0.236614 0.617722 0.034972 0.112175
H2    H     H_    0.808589 0.278346 0.649743 0.101595
H3    H     H_    0.042483 0.380533 0.235267 0.101600
H4    H     H_    0.957449 0.619546 0.764713 0.101589
H5    H     H_    0.122301 0.426376 0.064498 0.109828
H6    H     H_    0.877621 0.573713 0.935481 0.109811
H7    H     H_    0.879145 0.527430 0.340695 0.136498
H8    H     H_    0.120853 0.472602 0.659307 0.136502
H9    H     H_    0.383510 0.240158 0.035129 0.116765
H10   H     H_    0.616488 0.759849 0.964885 0.116767
H11   H     H_    0.224069 0.241890 0.167912 0.101148
H12   H     H_    0.763375 0.382326 0.965021 0.112174
H13   H     H_    0.775923 0.758070 0.832094 0.101139
H14   H     H_    0.269743 0.162781 0.340077 0.096427
H15   H     H_    0.730256 0.837175 0.659924 0.096427
H16   H     H_    0.636282 0.075320 0.245544 0.101235
H17   H     H_    0.363735 0.924721 0.754468 0.101235
H18   H     H_    0.589749 0.157741 0.074394 0.127055
H19   H     H_    0.410261 0.842306 0.925622 0.127065
H20   H     H_    0.478706 0.880198 0.339157 0.160062
H21   H     H_    0.521311 0.119801 0.660846 0.160054
H22   H     H_    0.191473 0.721648 0.350269 0.101599
N1    N     N_1   0.500030 0.500030 0.268070 -0.171576
N2    N     N_1   0.499970 0.499970 0.731930 -0.171575
N3    N     N_1   0.340637 0.883746 0.157498 -0.329361
N4    N     N_1   0.659426 0.116264 0.842507 -0.329358
O1    O     O_R   0.499980 0.319630 0.578260 -0.505035
O2    O     O_R   0.500020 0.680370 0.421740 -0.505043
O3    O     O_R   0.500000 0.319650 0.421740 -0.487843
O4    O     O_R   0.500000 0.680350 0.578260 -0.487848
O5    O     O_R   0.319630 0.500000 0.578260 -0.505714
O6    O     O_R   0.680370 0.500000 0.421740 -0.505716
O7    O     O_R   0.319650 0.500020 0.421740 -0.487756
O8    O     O_R   0.680350 0.499980 0.578260 -0.487755

loop_
_geom_bond_atom_site_label_1
_geom_bond_atom_site_label_2
_ccdc_geom_bond_type
C27   C29   A    
C1    O3    A    
Cu2   O2    S    
Cu1   O5    S    
C40   N3    T    
C15   C19   A    
C11   C19   A    
C17   C23   S    
C23   C42   A    
C13   C18   A    
C46   H14   S    
C35   C37   A    
C25   C40   S    
C11   C14   A    
C44   H11   S    
C33   C36   A    
Cu2   O7    S    
C17   O8    A    
Cu1   O8    S    
C14   C18   A    
C32   H4    S    
C16   C34   S    
C41   N4    T    
C28   H2    S    
C6    H17   S    
C38   H7    S    
C39   H8    S    
C12   O4    A    
C31   C33   A    
C20   N1    T    
C3    C19   S    
C1    C15   S    
C4    C18   S    
C29   C43   S    
C35   H6    S    
C44   C46   A    
C39   C42   A    
C2    C45   A    
C33   H5    S    
C21   N2    T    
C34   C39   A    
C1    O1    A    
C32   C35   A    
C4    C6    A    
C31   H3    S    
C5    C7    A    
C11   H20   S    
C6    C8    A    
C17   O6    A    
C5    H16   S    
Cu2   O3    S    
C2    C4    A    
Cu1   Cu2   S    
C10   C45   A    
C27   H22   S    
C12   C14   S    
C13   C15   A    
C12   O2    A    
C22   C24   T    
Cu2   N1    S    
C2    H15   S    
C7    C9    A    
C9    C44   A    
C10   H10   S    
C34   C43   A    
C20   C22   S    
C3    C5    A    
C26   C37   A    
C25   C27   A    
C23   C38   A    
C3    C46   A    
C26   C28   A    
C16   O5    A    
Cu2   O6    S    
C28   C30   A    
Cu1   O1    S    
C38   C43   A    
C29   C31   A    
C7    H18   S    
C30   C32   A    
C13   H21   S    
C45   H13   S    
C16   O7    A    
C9    H9    S    
Cu1   N2    S    
C37   H12   S    
C25   C36   A    
C8    H19   S    
C8    C10   A    
C21   C24   S    
C30   C42   S    
Cu1   O4    S    
C36   H1    S    
C26   C41   S    
