data_mof_unit_6779.cif
_audit_creation_date              2012-10-26T21:06:33-0400
_audit_creation_method            fapswitch 2.2
_symmetry_space_group_name_H-M    P1
_symmetry_Int_Tables_number       1
_space_group_crystal_system       triclinic
_cell_length_a                    15.894326
_cell_length_b                    10.815507
_cell_length_c                    9.511962
_cell_angle_alpha                 90.117936
_cell_angle_beta                  89.972527
_cell_angle_gamma                 90.375224
_cell_volume                      1635.11696837

loop_
_atom_site_label
_atom_site_type_symbol
_atom_type_description
_atom_site_fract_x
_atom_site_fract_y
_atom_site_fract_z
_atom_type_partial_charge
C1    C     C_R   0.501338 0.262239 0.499763 0.558814
C2    C     C_R   0.552857 0.576372 0.074610 0.016430
C3    C     C_R   0.339877 0.499752 0.500020 0.536991
C4    C     C_R   0.660130 0.500223 0.499969 0.538242
C5    C     C_3   0.971614 0.417488 0.591615 0.155137
C6    C     C_3   0.028319 0.582729 0.409316 0.163972
C7    C     C_3   0.027446 0.384460 0.463438 -0.132528
C8    C     C_3   0.972294 0.615341 0.537471 -0.104614
C9    C     C_1   0.250457 0.499285 0.500169 -0.044741
C10   C     C_1   0.749570 0.500612 0.499785 -0.038427
C11   C     C_3   0.027742 0.528894 0.627714 0.172420
C12   C     C_R   0.498608 0.737764 0.500251 0.559496
C13   C     C_3   0.972443 0.471212 0.372985 0.161965
C14   C     C_3   0.083715 0.498471 0.500442 0.007285
C15   C     C_3   0.916367 0.501489 0.500270 0.013145
C16   C     C_1   0.175126 0.498810 0.500312 -0.065344
C17   C     C_1   0.824915 0.501057 0.499775 -0.058781
C18   C     C_R   0.542098 0.062339 0.390178 0.115256
C19   C     C_R   0.457960 0.937678 0.610055 0.115917
C20   C     C_3   0.996228 0.239475 0.744182 -0.320331
C21   C     C_3   0.999983 0.746204 0.239469 -0.308001
C22   C     C_3   0.002198 0.410500 0.130455 -0.302108
C23   C     C_R   0.537807 0.934002 0.390844 -0.162862
C24   C     C_3   0.096008 0.677762 0.784901 -0.318829
C25   C     C_3   0.671171 0.163593 0.320400 -0.282465
C26   C     C_3   0.329421 0.836011 0.682061 -0.287003
C27   C     C_R   0.462103 0.066023 0.609224 -0.163036
C28   C     C_R   0.497100 0.871592 0.500447 0.017095
C29   C     C_R   0.502802 0.128417 0.499613 0.016952
C30   C     C_R   0.447125 0.423594 0.074267 0.021823
C31   C     C_R   0.552861 0.576425 0.925732 0.024265
C32   C     C_R   0.447128 0.423648 0.925389 0.014085
Cu1   Cu    Cu3+1 0.500000 0.500020 0.640660 0.944684
Cu2   Cu    Cu3+1 0.500000 0.499980 0.359340 0.945075
H1    H     H_    0.049832 0.291122 0.433199 0.096865
H2    H     H_    0.952656 0.686804 0.185833 0.195242
H3    H     H_    0.890760 0.378106 0.238491 0.244218
H4    H     H_    0.971189 0.398081 0.026766 0.170298
H5    H     H_    0.034265 0.323115 0.158966 0.119298
H6    H     H_    0.049482 0.485935 0.120594 0.193595
H7    H     H_    0.094589 0.487411 0.809512 0.243265
H8    H     H_    0.115920 0.690429 0.895923 0.142059
H9    H     H_    0.049817 0.750916 0.759473 0.144631
H10   H     H_    0.152043 0.687501 0.715903 0.134430
H11   H     H_    0.586775 0.077177 0.186350 0.239759
H12   H     H_    0.949311 0.708683 0.566372 0.096498
H13   H     H_    0.711270 0.082041 0.342241 0.118603
H14   H     H_    0.669339 0.223870 0.414980 0.157455
H15   H     H_    0.699659 0.217313 0.232935 0.143552
H16   H     H_    0.414420 0.922967 0.814553 0.239223
H17   H     H_    0.330809 0.775533 0.587623 0.158141
H18   H     H_    0.301620 0.782371 0.770174 0.139024
H19   H     H_    0.289016 0.917329 0.660725 0.115887
H20   H     H_    0.568888 0.882785 0.307829 0.118239
H21   H     H_    0.431085 0.117248 0.692304 0.117137
H22   H     H_    0.404851 0.362308 0.130285 0.111444
H23   H     H_    0.881446 0.291224 0.660650 0.246767
H24   H     H_    0.595125 0.637726 0.869713 0.114513
H25   H     H_    0.404846 0.362407 0.869091 0.102791
H26   H     H_    0.595128 0.637629 0.130908 0.106219
H27   H     H_    0.966734 0.187075 0.831727 0.135035
H28   H     H_    0.054274 0.284484 0.784419 0.144289
H29   H     H_    0.012860 0.173554 0.659026 0.125699
H30   H     H_    0.110787 0.723378 0.351415 0.243175
H31   H     H_    0.031529 0.804277 0.158768 0.129851
H32   H     H_    0.967884 0.807642 0.316036 0.123992
N1    N     N_R   0.500020 0.500030 0.852070 -0.221609
N2    N     N_R   0.499980 0.499970 0.147930 -0.221735
N3    N     N_2   0.937606 0.330341 0.692552 -0.500889
N4    N     N_2   0.062000 0.671571 0.310195 -0.517651
N5    N     N_2   0.939615 0.441191 0.235005 -0.515127
N6    N     N_2   0.058247 0.556738 0.767823 -0.498198
N7    N     N_2   0.587291 0.123821 0.281099 -0.488074
N8    N     N_2   0.413439 0.876205 0.719891 -0.487098
O1    O     O_R   0.500000 0.319660 0.618740 -0.519007
O2    O     O_R   0.500000 0.680340 0.381260 -0.519430
O3    O     O_R   0.499990 0.319630 0.381170 -0.466132
O4    O     O_R   0.500010 0.680370 0.618830 -0.465836
O5    O     O_R   0.379080 0.500000 0.618760 -0.502122
O6    O     O_R   0.620920 0.500000 0.381240 -0.499666
O7    O     O_R   0.379080 0.499970 0.381190 -0.499812
O8    O     O_R   0.620920 0.500030 0.618810 -0.498781

loop_
_geom_bond_atom_site_label_1
_geom_bond_atom_site_label_2
_ccdc_geom_bond_type
C6    N4    S    
C21   H32   S    
C27   C29   A    
C24   H8    S    
C3    O5    A    
C21   H2    S    
C31   N1    A    
C24   N6    S    
C12   C28   S    
C31   H24   S    
C9    C16   T    
C4    O6    A    
C2    N2    A    
H16   N8    S    
Cu2   O3    S    
C11   C14   S    
C2    H26   S    
Cu1   O4    S    
C10   C17   T    
C22   H4    S    
C1    O3    A    
H11   N7    S    
C20   H27   S    
C5    N3    S    
Cu2   O6    S    
Cu1   O1    S    
C7    C14   S    
C12   O4    A    
C3    O7    A    
Cu2   O7    S    
H30   N4    S    
C19   C27   A    
Cu1   O8    S    
C25   H13   S    
C32   N1    A    
C8    H12   S    
H3    N5    S    
C18   C23   A    
C1    O1    A    
Cu2   N2    S    
C5    C7    S    
C11   N6    S    
Cu1   O5    S    
C6    C8    S    
C13   N5    S    
C30   H22   S    
C2    C31   A    
C3    C9    S    
C26   H18   S    
C6    C14   S    
C22   H6    S    
C1    C29   S    
Cu1   Cu2   S    
C18   C29   A    
C23   C28   A    
C19   C28   A    
C25   H14   S    
H7    N6    S    
C18   N7    S    
C13   C15   S    
C24   H10   S    
C14   C16   S    
C20   N3    S    
C4    C10   S    
C26   H19   S    
C22   N5    S    
Cu1   N1    S    
C23   H20   S    
C15   C17   S    
C21   H31   S    
C7    H1    S    
C19   N8    S    
C5    C11   S    
C8    C15   S    
C27   H21   S    
C21   N4    S    
C20   H29   S    
C12   O2    A    
C26   H17   S    
C6    C13   S    
C30   C32   A    
C8    C11   S    
C22   H5    S    
C26   N8    S    
C25   N7    S    
C20   H28   S    
C25   H15   S    
C5    C15   S    
C7    C13   S    
C4    O8    A    
C24   H9    S    
C32   H25   S    
H23   N3    S    
C30   N2    A    
Cu2   O2    S    
