data_mof_unit_9334.cif
_audit_creation_date              2012-12-10T17:00:40-0500
_audit_creation_method            fapswitch 2.2
_symmetry_space_group_name_H-M    P1
_symmetry_Int_Tables_number       1
_space_group_crystal_system       triclinic
_cell_length_a                    27.809949
_cell_length_b                    10.902544
_cell_length_c                    9.697793
_cell_angle_alpha                 88.948935
_cell_angle_beta                  89.727488
_cell_angle_gamma                 90.20314
_cell_volume                      2939.81561546

loop_
_atom_site_label
_atom_site_type_symbol
_atom_type_description
_atom_site_fract_x
_atom_site_fract_y
_atom_site_fract_z
_atom_type_partial_charge
C1    C     C_R   0.501519 0.265295 0.500994 0.876947
C2    C     C_R   0.278938 0.539655 0.616852 -0.107534
C3    C     C_R   0.253778 0.502364 0.499907 0.353971
C4    C     C_R   0.101902 0.503684 0.498717 -0.044587
C5    C     C_R   0.127263 0.392507 0.490333 -0.018457
C6    C     C_R   0.101845 0.282292 0.481949 -0.146127
C7    C     C_R   0.127807 0.614410 0.507728 -0.020137
C8    C     C_R   0.354663 0.501320 0.500192 -0.033818
C9    C     C_R   0.645468 0.502750 0.498685 -0.036797
C10   C     C_R   0.974218 0.393204 0.477104 0.042969
C11   C     C_R   0.974680 0.616396 0.517014 0.042971
C12   C     C_R   0.407530 0.500429 0.500182 0.804519
C13   C     C_R   0.949197 0.505004 0.496797 0.067818
C14   C     C_R   0.947077 0.286327 0.449778 -0.205623
C15   C     C_R   0.897159 0.288266 0.447494 -0.144908
C16   C     C_R   0.872227 0.396684 0.471844 -0.021336
C17   C     C_R   0.898064 0.505394 0.496334 -0.044092
C18   C     C_R   0.872633 0.614467 0.520457 -0.019884
C19   C     C_R   0.822144 0.612699 0.520206 0.532518
C20   C     C_R   0.821758 0.399055 0.471849 0.535201
C21   C     C_R   0.721177 0.515662 0.621440 -0.104758
C22   C     C_R   0.671041 0.513867 0.622582 -0.217243
C23   C     C_R   0.501131 0.734825 0.498582 0.843018
C24   C     C_R   0.670981 0.493879 0.373749 -0.227927
C25   C     C_R   0.721114 0.495258 0.372989 -0.106746
C26   C     C_R   0.746337 0.506008 0.496773 0.362839
C27   C     C_R   0.025256 0.391900 0.484248 0.043410
C28   C     C_R   0.050766 0.504135 0.498056 0.067435
C29   C     C_R   0.025770 0.616815 0.511197 0.043342
C30   C     C_R   0.051923 0.281693 0.479174 -0.205548
C31   C     C_R   0.102933 0.725062 0.515541 -0.145611
C32   C     C_R   0.947926 0.723743 0.543553 -0.205846
C33   C     C_R   0.897984 0.722555 0.544982 -0.145440
C34   C     C_R   0.592517 0.500776 0.499659 0.788645
C35   C     C_R   0.052999 0.726540 0.517052 -0.205169
C36   C     C_2   0.516586 0.936769 0.387135 0.028955
C37   C     C_2   0.500672 0.867693 0.495504 -0.366863
C38   C     C_2   0.509952 0.070291 0.387164 -0.191855
C39   C     C_2   0.507353 0.133554 0.504106 -0.327752
C40   C     C_2   0.475410 0.421702 0.926345 0.053932
C41   C     C_2   0.471244 0.432572 0.080463 -0.111558
C42   C     C_R   0.177745 0.394032 0.491713 0.530734
C43   C     C_R   0.178285 0.612011 0.507400 0.533853
C44   C     C_R   0.279170 0.465180 0.382819 -0.102448
C45   C     C_R   0.329304 0.464735 0.382809 -0.215209
C46   C     C_R   0.329068 0.539605 0.616863 -0.237679
Cu1   Cu    Cu3+1 0.500010 0.500020 0.638630 0.942181
Cu2   Cu    Cu3+1 0.499990 0.499980 0.361370 0.953034
H1    H     H_    0.347743 0.571189 0.707277 0.149751
H2    H     H_    0.259993 0.436858 0.291756 0.143248
H3    H     H_    0.122007 0.811686 0.520478 0.187080
H4    H     H_    0.964413 0.810411 0.566601 0.137891
H5    H     H_    0.652272 0.485316 0.276698 0.156606
H6    H     H_    0.879279 0.807318 0.565683 0.187801
H7    H     H_    0.740428 0.487978 0.276277 0.138931
H8    H     H_    0.036904 0.816091 0.520098 0.136145
H9    H     H_    0.483866 0.908910 0.584320 0.138778
H10   H     H_    0.508804 0.117971 0.287819 0.170171
H11   H     H_    0.259584 0.568912 0.707605 0.144512
H12   H     H_    0.512319 0.089954 0.604244 0.153403
H13   H     H_    0.514302 0.574447 0.891886 0.188191
H14   H     H_    0.444448 0.376742 0.134200 0.158543
H15   H     H_    0.527298 0.543848 0.103875 0.203699
H16   H     H_    0.120478 0.195339 0.477501 0.186783
H17   H     H_    0.652375 0.521310 0.720322 0.156022
H18   H     H_    0.740545 0.523837 0.717463 0.138513
H19   H     H_    0.878143 0.203797 0.426395 0.188078
H20   H     H_    0.963254 0.199459 0.426825 0.138016
H21   H     H_    0.035361 0.192427 0.475805 0.136135
H22   H     H_    0.348188 0.434993 0.291420 0.152375
N1    N     N_R   0.202162 0.502813 0.499765 -0.467595
N2    N     N_R   0.797873 0.505998 0.496062 -0.469537
N3    N     N_2   0.499480 0.498660 0.846910 -0.302343
N4    N     N_2   0.499460 0.498630 0.153040 -0.282010
O1    O     O_R   0.500010 0.321960 0.617040 -0.566389
O2    O     O_2   0.796709 0.295181 0.448993 -0.532142
O3    O     O_2   0.203329 0.718029 0.513532 -0.536776
O4    O     O_2   0.797470 0.716829 0.542997 -0.535937
O5    O     O_R   0.499990 0.321920 0.382900 -0.577914
O6    O     O_R   0.430270 0.500040 0.617060 -0.578751
O7    O     O_R   0.430260 0.500000 0.382910 -0.577242
O8    O     O_R   0.500010 0.678080 0.617100 -0.588911
O9    O     O_R   0.499990 0.678040 0.382960 -0.551772
O10   O     O_R   0.569740 0.500000 0.617090 -0.582086
O11   O     O_R   0.569730 0.499960 0.382940 -0.582956
O12   O     O_2   0.202255 0.287598 0.486060 -0.540790
C47   C     C_R   0.540317 0.883761 0.264120 0.159445
C48   C     C_R   0.519639 0.898010 0.132877 -0.150411
C49   C     C_R   0.541525 0.845932 0.017836 -0.151173
C50   C     C_R   0.584270 0.780128 0.032752 -0.143238
C51   C     C_R   0.605344 0.766668 0.162646 -0.124289
C52   C     C_R   0.583627 0.818606 0.277961 -0.091213
H23   H     H_    0.486297 0.947846 0.119995 0.125674
H24   H     H_    0.525271 0.856090 0.917146 0.129987
H25   H     H_    0.601030 0.739483 0.943664 0.131802
H26   H     H_    0.638472 0.715808 0.174039 0.133206
H27   H     H_    0.600248 0.807190 0.378131 0.112849
C53   C     C_R   0.449623 0.315882 0.869488 0.200824
C54   C     C_R   0.471425 0.199824 0.870749 -0.147871
C55   C     C_R   0.445742 0.097050 0.827443 -0.179398
C56   C     C_R   0.398071 0.109222 0.784541 -0.099303
C57   C     C_R   0.375631 0.223636 0.788187 -0.144488
C58   C     C_R   0.401042 0.326143 0.833225 -0.135499
H28   H     H_    0.508241 0.189176 0.904772 0.127094
H29   H     H_    0.462793 0.008026 0.827049 0.122428
H30   H     H_    0.378325 0.029713 0.750432 0.140453
H31   H     H_    0.338378 0.232620 0.757958 0.154045
H32   H     H_    0.382831 0.413141 0.841332 0.124214

loop_
_geom_bond_atom_site_label_1
_geom_bond_atom_site_label_2
_ccdc_geom_bond_type
C10   C27   A    
C47   C48   A    
C56   C57   A    
C23   O8    A    
C21   H18   S    
C26   N2    S    
C21   C26   A    
C50   H25   S    
C2    C46   A    
C46   H1    S    
C55   H29   S    
C23   O9    A    
C41   H14   S    
Cu2   O5    S    
C36   C37   D    
C40   C53   S    
C5    C6    A    
C9    C22   A    
C53   C58   A    
C33   H6    S    
Cu2   O7    S    
C20   O2    S    
C18   C19   A    
Cu1   O8    S    
C6    H16   S    
C49   H24   S    
C8    C45   A    
C32   H4    S    
C51   H26   S    
C38   H10   S    
Cu1   Cu2   S    
C42   N1    A    
C16   C17   A    
C58   H32   S    
C42   O12   S    
C7    C43   A    
C16   C20   A    
C54   H28   S    
C41   N4    D    
C47   C52   A    
C27   C30   A    
C19   N2    A    
C34   O10   A    
Cu1   O6    S    
C4    C7    A    
C4    C28   A    
C52   H27   S    
C36   C47   S    
C3    C44   A    
C7    C31   A    
C45   H22   S    
C1    O1    A    
Cu2   N4    S    
C24   C25   A    
Cu1   N3    S    
C10   C14   A    
C51   C52   A    
C2    H11   S    
H13   N3    S    
C24   H5    S    
C23   C37   S    
C34   O11   A    
C19   O4    S    
C3    N1    S    
C22   H17   S    
C54   C55   A    
C8    C12   S    
C15   H19   S    
C17   C18   A    
C57   H31   S    
Cu1   O10   S    
C40   C41   S    
C6    C30   A    
C11   C32   A    
C9    C34   S    
C1    O5    A    
C31   C35   A    
C49   C50   A    
C30   H21   S    
C44   C45   A    
C5    C42   A    
C44   H2    S    
C56   H30   S    
C48   H23   S    
C28   C29   A    
C43   N1    A    
C35   H8    S    
C14   C15   A    
C25   H7    S    
C31   H3    S    
C4    C5    A    
C10   C13   A    
C9    C24   A    
H15   N4    S    
C43   O3    S    
C29   C35   A    
Cu2   O9    S    
C13   C17   A    
C32   C33   A    
C36   C38   S    
C2    C3    A    
C25   C26   A    
Cu1   O1    S    
C11   C13   A    
C50   C51   A    
C38   C39   D    
C39   H12   S    
C12   O6    A    
C55   C56   A    
C12   O7    A    
C57   C58   A    
C18   C33   A    
C8    C46   A    
C1    C39   S    
C48   C49   A    
C11   C29   A    
C53   C54   A    
C27   C28   A    
C14   H20   S    
Cu2   O11   S    
C20   N2    A    
C40   N3    D    
C21   C22   A    
C37   H9    S    
C15   C16   A    
