data_mof_unit_28685.cif
_audit_creation_date              2013-03-05T16:46:36-0500
_audit_creation_method            fapswitch 2.2
_symmetry_space_group_name_H-M    P1
_symmetry_Int_Tables_number       1
_space_group_crystal_system       triclinic
_cell_length_a                    12.886919
_cell_length_b                    8.937318
_cell_length_c                    8.092522
_cell_angle_alpha                 90.005521
_cell_angle_beta                  96.000333
_cell_angle_gamma                 89.995533
_cell_volume                      926.945667854

loop_
_atom_site_label
_atom_site_type_symbol
_atom_site_description
_atom_site_fract_x
_atom_site_fract_y
_atom_site_fract_z
_atom_type_partial_charge
O1    O     O_R   0.499990 0.285340 0.636850 -0.611163
O2    O     O_R   0.500010 0.714660 0.363150 -0.621423
O3    O     O_R   0.500010 0.285340 0.363150 -0.611128
O4    O     O_R   0.499990 0.714660 0.636850 -0.621314
N1    N     N_1   0.500020 0.500000 0.073640 -0.038660
N2    N     N_1   0.499980 0.500000 0.926360 -0.038727
C1    C     C_R   0.500001 0.217929 0.499995 0.954168
C2    C     C_R   0.500002 0.782080 0.500005 0.922791
O5    O     O_R   0.346350 0.500000 0.614250 -0.617584
O6    O     O_R   0.653650 0.500000 0.385750 -0.617408
O7    O     O_R   0.346360 0.500000 0.340500 -0.628422
O8    O     O_R   0.653640 0.500000 0.659500 -0.628512
C3    C     C_R   0.298071 0.512725 0.470039 0.891175
C4    C     C_R   0.701929 0.512582 0.530008 0.891054
Zn1   Zn    Zn3+2 0.499990 0.500000 0.682780 0.978271
Zn2   Zn    Zn3+2 0.500010 0.500000 0.317220 0.978360
C5    C     C_R   0.812455 0.545333 0.545442 -0.071432
C6    C     C_R   0.187563 0.545819 0.454886 -0.071900
C7    C     C_R   0.025732 0.562938 0.278965 -0.219919
C8    C     C_R   0.974320 0.560210 0.721515 -0.220061
C9    C     C_R   0.131956 0.539597 0.297136 -0.257219
C10   C     C_R   0.868091 0.537195 0.703052 -0.257004
C11   C     C_R   0.136582 0.583967 0.595920 0.121552
C12   C     C_R   0.863418 0.584909 0.404904 0.121100
C13   C     C_R   0.027900 0.577365 0.580574 0.134877
C14   C     C_R   0.972118 0.578280 0.420125 0.134811
C15   C     C_1   0.500002 0.065161 0.499993 -0.196989
C16   C     C_1   0.500003 0.934823 0.500007 -0.190199
C17   C     C_3   0.804530 0.641396 0.244266 -0.864874
H1    H     H_    0.853759 0.715308 0.174543 0.223574
H2    H     H_    0.776752 0.545891 0.163655 0.251168
H3    H     H_    0.738053 0.713390 0.271000 0.253669
C18   C     C_3   0.195409 0.638892 0.757369 -0.864513
H4    H     H_    0.146033 0.711346 0.828592 0.223088
H5    H     H_    0.223663 0.542554 0.836373 0.251316
H6    H     H_    0.261541 0.711955 0.731512 0.253782
H7    H     H_    0.829656 0.512192 0.812698 0.176057
H8    H     H_    0.170413 0.515936 0.187156 0.176061
H9    H     H_    0.985439 0.554774 0.155102 0.155826
H10   H     H_    0.014624 0.550376 0.845227 0.155751

loop_
_geom_bond_atom_site_label_1
_geom_bond_atom_site_label_2
_geom_bond_distance
_ccdc_geom_bond_type
C17   H1    1.110031 S    
O1    Zn1   1.954125 S    
C6    C9    1.398229 A    
O2    Zn2   1.954124 S    
O7    Zn2   2.008527 S    
C5    C10   1.398202 A    
O8    Zn1   2.008527 S    
O4    C2    1.260796 A    
O4    Zn1   1.954194 S    
C18   H4    1.110380 S    
O5    Zn1   1.999545 S    
C17   H2    1.110584 S    
C13   C14   1.416908 A    
O6    Zn2   1.999545 S    
O7    C3    1.278855 A    
C4    C5    1.446678 S    
C7    H9    1.082061 S    
C3    C6    1.447074 S    
C2    C16   1.365118 S    
C7    C9    1.377272 A    
O8    C4    1.278439 A    
C17   H3    1.110568 S    
O3    C1    1.260759 A    
C11   C13   1.394332 A    
N1    N2    1.191813 T    
C8    H10   1.082169 S    
C5    C12   1.416390 A    
C8    C13   1.402092 A    
C9    H8    1.083804 S    
C6    C11   1.416737 A    
C18   H6    1.110806 S    
C1    C15   1.365337 S    
O6    C4    1.269145 A    
C15   C16   1.164866 T    
C7    C14   1.402171 A    
O5    C3    1.268933 A    
C12   C17   1.521350 S    
N1    Zn2   1.971189 S    
C18   H5    1.110874 S    
N2    Zn1   1.971191 S    
O1    C1    1.260730 A    
C10   H7    1.083759 S    
O2    C2    1.260765 A    
O3    Zn2   1.954195 S    
C12   C14   1.394580 A    
C8    C10   1.376940 A    
C11   C18   1.521699 S    
