data_mof_unit_26345.cif
_audit_creation_date              2012-12-10T18:57:08-0500
_audit_creation_method            fapswitch 2.2
_symmetry_space_group_name_H-M    P1
_symmetry_Int_Tables_number       1
_space_group_crystal_system       triclinic
_cell_length_a                    10.740337
_cell_length_b                    9.823401
_cell_length_c                    10.861747
_cell_angle_alpha                 89.620028
_cell_angle_beta                  91.102907
_cell_angle_gamma                 88.683051
_cell_volume                      1145.44275254

loop_
_atom_site_label
_atom_site_type_symbol
_atom_type_description
_atom_site_fract_x
_atom_site_fract_y
_atom_site_fract_z
_atom_type_partial_charge
C1    C     C_R   0.260058 0.501868 0.492555 0.975626
C2    C     C_R   0.740770 0.497428 0.505026 0.915086
C3    C     C_R   0.561927 0.069357 0.589924 0.036500
C4    C     C_R   0.443575 0.073842 0.406535 -0.009505
C5    C     C_R   0.562090 0.925637 0.590144 0.049348
C6    C     C_R   0.441491 0.930064 0.407521 0.012527
C7    C     C_R   0.500613 0.499582 0.260077 0.977600
C8    C     C_R   0.500846 0.499149 0.740103 0.882793
C9    C     C_R   0.463563 0.612052 0.060899 -0.061392
C10   C     C_R   0.453398 0.609804 0.935349 -0.073200
C11   C     C_R   0.494405 0.494997 0.128428 -0.084782
C12   C     C_R   0.493913 0.494766 0.871800 -0.156650
C13   C     C_R   0.509481 0.370131 0.065301 0.132682
C14   C     C_R   0.519949 0.372353 0.938273 0.176946
C15   C     C_3   0.486082 0.756582 0.924221 0.190826
C16   C     C_3   0.504965 0.756685 0.064214 0.217651
C17   C     C_R   0.064160 0.398811 0.429509 0.362924
C18   C     C_R   0.942738 0.378021 0.463612 0.281824
C19   C     C_R   0.874589 0.491716 0.509050 -0.230071
C20   C     C_R   0.127441 0.506457 0.484107 -0.216261
C21   C     C_R   0.935749 0.608660 0.547581 -0.171201
C22   C     C_R   0.063278 0.612110 0.542467 -0.190448
H1    H     H_    0.570962 0.773431 0.869749 0.137992
H2    H     H_    0.440447 0.825617 0.114450 0.128833
H3    H     H_    0.885546 0.694761 0.586259 0.203838
H4    H     H_    0.111299 0.697392 0.582694 0.225499
H5    H     H_    0.613842 0.121298 0.659755 0.163569
H6    H     H_    0.403299 0.129558 0.329397 0.191448
H7    H     H_    0.612355 0.869363 0.661887 0.121519
H8    H     H_    0.394737 0.877237 0.333572 0.142114
N1    N     N_R   0.500000 0.857200 0.500000 -0.087217
N2    N     N_R   0.500000 0.142810 0.500000 -0.100046
O1    O     O_R   0.316770 0.614620 0.499990 -0.608990
O2    O     O_R   0.683230 0.614620 0.500010 -0.607342
O3    O     O_R   0.316800 0.385290 0.500000 -0.583107
O4    O     O_R   0.683200 0.385290 0.500000 -0.558814
O5    O     O_R   0.500000 0.614690 0.316780 -0.603417
O6    O     O_R   0.500000 0.614690 0.683220 -0.612673
O7    O     O_R   0.500020 0.385360 0.316780 -0.606324
O8    O     O_R   0.499980 0.385360 0.683220 -0.641752
Zn1   Zn    Zn3+2 0.500000 0.653120 0.500000 1.044839
Zn2   Zn    Zn3+2 0.500000 0.346880 0.500000 1.043480
N3    N     N_2   0.516936 0.241865 0.127810 -0.325142
H9    H     H_    0.464018 0.167459 0.087340 0.263823
C23   C     C_3   0.641082 0.193254 0.161238 -0.487312
H10   H     H_    0.634410 0.111796 0.231683 0.262475
H11   H     H_    0.697804 0.277467 0.198148 0.255077
H12   H     H_    0.687971 0.148064 0.081028 0.266374
N4    N     N_2   0.575000 0.255331 0.884051 -0.301345
H13   H     H_    0.520075 0.203089 0.823018 0.277832
C24   C     C_3   0.705836 0.266269 0.857213 -0.695818
H14   H     H_    0.746187 0.163018 0.841628 0.268304
H15   H     H_    0.757305 0.311863 0.935943 0.259892
H16   H     H_    0.718218 0.331561 0.774949 0.253223
S1    S     S_3+6 0.353530 0.858210 0.874339 0.021067
O9    O     O_2   0.381368 0.005955 0.891540 -0.306221
O10   O     O_2   0.324978 0.833333 0.740513 -0.287837
O11   O     O_3   0.228519 0.820063 0.957862 -0.495302
H17   H     H_    0.201994 0.730199 0.927426 0.363925
S2    S     S_3+6 0.666196 0.773536 0.108186 0.008863
O12   O     O_2   0.720968 0.887714 0.035876 -0.300180
O13   O     O_2   0.676315 0.805148 0.243124 -0.274025
O14   O     O_3   0.746111 0.628269 0.079261 -0.571195
H18   H     H_    0.828793 0.639640 0.119358 0.402944
S3    S     S_3+6 0.121435 0.316675 0.296400 0.076089
O15   O     O_2   0.187060 0.185642 0.331809 -0.263905
O16   O     O_2   0.014197 0.286467 0.210585 -0.254185
O17   O     O_3   0.220604 0.418147 0.223656 -0.601425
H19   H     H_    0.239565 0.370486 0.145919 0.377731
S4    S     S_3+6 0.895743 0.206298 0.482544 0.087955
O18   O     O_2   0.797410 0.171887 0.389114 -0.255635
O19   O     O_2   0.002872 0.106647 0.470710 -0.201627
O20   O     O_3   0.838743 0.187061 0.623675 -0.593471
H20   H     H_    0.910187 0.204159 0.680170 0.356779

loop_
_geom_bond_atom_site_label_1
_geom_bond_atom_site_label_2
_ccdc_geom_bond_type
C18   S4    S    
S4    O19   D    
N3    H9    S    
C3    H5    S    
S4    O18   D    
C13   C14   A    
N3    C23   S    
C9    C10   A    
O4    Zn2   S    
C13   N3    S    
C8    C12   S    
S3    O17   S    
O1    Zn1   S    
C24   H16   S    
S4    O20   S    
C15   H1    S    
C17   C18   A    
C7    O5    A    
C1    O1    A    
C16   H2    S    
S1    O10   D    
N1    Zn1   S    
C21   C22   A    
C7    C11   S    
C9    C11   A    
C2    O2    A    
C21   H3    S    
C4    N2    A    
O2    Zn1   S    
C10   C12   A    
C23   H12   S    
S2    O14   S    
C16   S2    S    
O8    Zn2   S    
C17   S3    S    
C19   C21   A    
C9    C16   S    
C12   C14   A    
S3    O15   D    
O7    Zn2   S    
C5    H7    S    
C10   C15   S    
C8    O6    A    
O5    Zn1   S    
C3    N2    A    
S1    O9    D    
C5    N1    A    
C14   N4    S    
S3    O16   D    
C15   C16   S    
C24   H15   S    
C22   H4    S    
O14   H18   S    
C6    N1    A    
C3    C5    A    
C11   C13   A    
C17   C20   A    
C23   H11   S    
C1    O3    A    
O6    Zn1   S    
S2    O13   D    
C18   C19   A    
O20   H20   S    
S1    O11   S    
C2    O4    A    
C2    C19   S    
N4    H13   S    
O3    Zn2   S    
C7    O7    A    
O17   H19   S    
C1    C20   S    
N2    Zn2   S    
C8    O8    A    
C4    H6    S    
O11   H17   S    
C23   H10   S    
C4    C6    A    
C6    H8    S    
C24   H14   S    
C20   C22   A    
S2    O12   D    
N4    C24   S    
C15   S1    S    
