data_mof_unit_28880.cif
_audit_creation_date              2012-12-10T20:02:22-0500
_audit_creation_method            fapswitch 2.2
_symmetry_space_group_name_H-M    P1
_symmetry_Int_Tables_number       1
_space_group_crystal_system       triclinic
_cell_length_a                    10.836914
_cell_length_b                    14.895575
_cell_length_c                    14.180606
_cell_angle_alpha                 90.847884
_cell_angle_beta                  91.262276
_cell_angle_gamma                 89.93655
_cell_volume                      2288.25594401

loop_
_atom_site_label
_atom_site_type_symbol
_atom_type_description
_atom_site_fract_x
_atom_site_fract_y
_atom_site_fract_z
_atom_type_partial_charge
C1    C     C_R   0.500052 0.328032 0.499612 1.088729
C2    C     C_R   0.498622 0.672086 0.500396 1.089385
C3    C     C_R   0.872211 0.509574 0.503840 -0.289422
C4    C     C_R   0.127118 0.506179 0.497773 -0.312399
C5    C     C_R   0.941318 0.494369 0.587569 -0.052993
C6    C     C_R   0.057794 0.520739 0.413676 -0.067665
C7    C     C_R   0.392120 0.095859 0.454884 0.568893
C8    C     C_R   0.572995 0.908062 0.447927 0.568133
C9    C     C_R   0.398411 0.188414 0.452368 0.450154
C10   C     C_R   0.577818 0.815425 0.447618 0.470615
C11   C     C_R   0.495749 0.232512 0.499705 -0.519310
C12   C     C_R   0.493184 0.767826 0.500538 -0.540290
C13   C     C_R   0.584920 0.185400 0.551840 0.447535
C14   C     C_R   0.400840 0.811872 0.550842 0.407484
C15   C     C_R   0.579106 0.092829 0.553795 0.588534
C16   C     C_R   0.396440 0.904700 0.551603 0.572593
C17   C     C_R   0.483454 0.048472 0.504446 -0.201903
C18   C     C_R   0.483367 0.952239 0.500850 -0.224132
C19   C     C_R   0.463355 0.424804 0.102531 -0.369101
C20   C     C_R   0.464543 0.574252 0.897152 -0.290521
C21   C     C_R   0.465479 0.424463 0.201933 0.522201
C22   C     C_R   0.468130 0.575798 0.797673 0.628561
C23   C     C_R   0.259692 0.501247 0.498905 0.994826
C24   C     C_R   0.740056 0.502713 0.501278 0.997430
C25   C     C_R   0.541312 0.573438 0.206372 -0.139564
C26   C     C_R   0.531794 0.423709 0.794151 -0.236491
C27   C     C_R   0.543582 0.574920 0.107132 0.566047
C28   C     C_R   0.532978 0.421082 0.893330 0.562732
C29   C     C_R   0.503731 0.499441 0.053246 0.099223
C30   C     C_R   0.501340 0.498048 0.946846 0.094310
C31   C     C_R   0.213680 0.595792 0.188850 0.352688
C32   C     C_R   0.876165 0.361734 0.805268 0.348704
C33   C     C_R   0.174675 0.593881 0.283922 -0.431420
C34   C     C_R   0.904120 0.383183 0.712631 -0.266858
C35   C     C_R   0.109101 0.519964 0.317169 0.013191
C36   C     C_R   0.889051 0.470948 0.679904 -0.030156
C37   C     C_R   0.078059 0.448892 0.255006 0.571827
C38   C     C_R   0.843776 0.537903 0.740769 0.525551
C39   C     C_R   0.113266 0.450723 0.160676 0.213959
C40   C     C_R   0.817723 0.517504 0.834806 0.186055
C41   C     C_R   0.179972 0.524061 0.128330 0.457446
C42   C     C_R   0.835479 0.429757 0.867143 0.481215
C43   C     C_R   0.931263 0.528160 0.419214 0.660908
C44   C     C_R   0.067951 0.496012 0.584177 0.615195
H1    H     H_    0.428778 0.366598 0.064297 0.208969
H2    H     H_    0.431886 0.632631 0.935291 0.221013
H3    H     H_    0.572864 0.631581 0.246515 0.215295
H4    H     H_    0.557988 0.364438 0.754557 0.194455
H5    H     H_    0.191265 0.649068 0.332811 0.202264
H6    H     H_    0.941915 0.331735 0.666747 0.243779
N1    N     N_R   0.500000 0.499980 0.252470 -0.160657
N2    N     N_R   0.500000 0.500020 0.747530 -0.151597
O1    O     O_R   0.500010 0.369070 0.579480 -0.619178
O2    O     O_R   0.499990 0.630930 0.420520 -0.639976
O3    O     O_R   0.500010 0.369060 0.420520 -0.575946
O4    O     O_R   0.499990 0.630940 0.579480 -0.557702
O5    O     O_R   0.316760 0.500010 0.579480 -0.522717
O6    O     O_R   0.683240 0.499990 0.420520 -0.550436
O7    O     O_R   0.316760 0.500000 0.420520 -0.630965
O8    O     O_R   0.683240 0.500000 0.579480 -0.633013
Zn1   Zn    Zn3+2 0.500000 0.500010 0.606140 1.075108
Zn2   Zn    Zn3+2 0.500000 0.499990 0.393860 1.042360
F1    F     F_    0.208968 0.527096 0.035777 -0.625933
F2    F     F_    0.815670 0.411503 0.959048 -0.600992
F3    F     F_    0.666404 0.046229 0.602922 -0.599192
F4    F     F_    0.308936 0.948290 0.601906 -0.577435
O9    O     O_3   0.425938 0.349088 0.248310 -0.600965
C45   C     C_3   0.502960 0.274066 0.228270 0.161268
H7    H     H_    0.545481 0.251188 0.295595 0.183143
H8    H     H_    0.581602 0.288276 0.181046 0.145029
C46   C     C_3   0.425498 0.197321 0.185457 -0.407401
H9    H     H_    0.341750 0.187285 0.227813 0.290974
H10   H     H_    0.396156 0.214882 0.112661 0.209358
C47   C     C_3   0.498246 0.109591 0.181985 -0.841194
H11   H     H_    0.582151 0.117626 0.139297 0.265953
H12   H     H_    0.439811 0.055968 0.149118 0.263379
H13   H     H_    0.525673 0.088810 0.254412 0.285833
O10   O     O_3   0.430427 0.651889 0.750233 -0.565015
C48   C     C_3   0.503100 0.727565 0.777888 0.130356
H14   H     H_    0.546635 0.754115 0.713900 0.191383
H15   H     H_    0.580878 0.712799 0.828342 0.148484
C49   C     C_3   0.420501 0.800796 0.819713 -0.320351
H16   H     H_    0.344375 0.816707 0.769000 0.306881
H17   H     H_    0.378786 0.776722 0.885508 0.224402
C50   C     C_3   0.493502 0.886293 0.841941 -0.897880
H18   H     H_    0.568783 0.872416 0.894153 0.265728
H19   H     H_    0.431364 0.938034 0.872169 0.279944
H20   H     H_    0.533664 0.912989 0.776607 0.286954
F5    F     F_    0.585489 0.649696 0.064800 -0.685336
F6    F     F_    0.567999 0.344097 0.936071 -0.696810
O11   O     O_3   0.276665 0.666329 0.147270 -0.598435
C51   C     C_3   0.320807 0.734385 0.209718 0.104289
H21   H     H_    0.402155 0.765165 0.176530 0.199982
H22   H     H_    0.356832 0.708391 0.278037 0.139833
C52   C     C_3   0.223286 0.807971 0.221569 -0.438609
H23   H     H_    0.200193 0.836802 0.151493 0.243912
H24   H     H_    0.137448 0.779649 0.250241 0.249027
C53   C     C_3   0.269859 0.882628 0.287636 -0.749430
H25   H     H_    0.289311 0.855690 0.359008 0.255960
H26   H     H_    0.197884 0.935418 0.292998 0.318902
H27   H     H_    0.355184 0.913151 0.260248 0.256654
O12   O     O_3   0.901878 0.275921 0.835925 -0.618605
C54   C     C_3   0.791119 0.231204 0.856576 0.163014
H28   H     H_    0.715454 0.246411 0.804462 0.182558
H29   H     H_    0.762117 0.250452 0.928753 0.235496
C55   C     C_3   0.814363 0.130086 0.853881 -0.324094
H30   H     H_    0.845355 0.109682 0.782477 0.289347
H31   H     H_    0.888556 0.113214 0.906018 0.219414
C56   C     C_3   0.698095 0.077747 0.876685 -0.868216
H32   H     H_    0.665569 0.096700 0.948026 0.259479
H33   H     H_    0.719029 0.004794 0.875347 0.270336
H34   H     H_    0.623740 0.091300 0.823577 0.294142
F7    F     F_    0.007404 0.380035 0.284901 -0.611141
F8    F     F_    0.827216 0.622882 0.709407 -0.640945
O13   O     O_3   0.066809 0.387947 0.096552 -0.538687
C57   C     C_3   0.134788 0.307465 0.104475 0.173193
H35   H     H_    0.143966 0.285145 0.179007 0.191028
H36   H     H_    0.227980 0.317143 0.075439 0.128415
C58   C     C_3   0.068376 0.233942 0.046850 -0.273794
H37   H     H_    0.973021 0.226018 0.072871 0.253723
H38   H     H_    0.062672 0.253973 0.971807 0.279671
C59   C     C_3   0.135591 0.144088 0.053418 -0.968152
H39   H     H_    0.228028 0.148889 0.021679 0.271849
H40   H     H_    0.081777 0.091770 0.014086 0.275817
H41   H     H_    0.145938 0.123471 0.128145 0.286843
O14   O     O_3   0.764605 0.580839 0.893467 -0.607184
C60   C     C_3   0.852725 0.645550 0.924049 0.193845
H42   H     H_    0.806221 0.712065 0.923179 0.173122
H43   H     H_    0.934499 0.650982 0.877881 0.159659
C61   C     C_3   0.895794 0.625572 0.025033 -0.277978
H44   H     H_    0.814699 0.614213 0.069755 0.291946
H45   H     H_    0.952281 0.563363 0.025039 0.270979
C62   C     C_3   0.971562 0.702924 0.067596 -0.883524
H46   H     H_    0.058377 0.711281 0.028463 0.291988
H47   H     H_    0.994637 0.688446 0.142415 0.281851
H48   H     H_    0.917911 0.766466 0.065402 0.267952
F9    F     F_    0.866050 0.550457 0.339659 -0.615614
F10   F     F_    0.132466 0.482830 0.666471 -0.617497
F11   F     F_    0.298394 0.052479 0.408670 -0.610946
F12   F     F_    0.655663 0.954950 0.397518 -0.588617
F13   F     F_    0.308578 0.235228 0.406248 -0.590997
F14   F     F_    0.666083 0.772188 0.397679 -0.582140
F15   F     F_    0.677986 0.229058 0.599033 -0.634940
F16   F     F_    0.313717 0.764795 0.596491 -0.588209

loop_
_geom_bond_atom_site_label_1
_geom_bond_atom_site_label_2
_ccdc_geom_bond_type
O6    Zn2   S    
C38   C40   A    
O3    Zn2   S    
O14   C60   S    
C27   C29   A    
C52   H23   S    
C1    C11   S    
C2    C12   S    
C25   N1    A    
C52   C53   S    
C39   C41   A    
C20   C30   A    
C50   H18   S    
C57   H35   S    
C23   O7    A    
C3    C43   A    
C47   H12   S    
C35   C37   A    
N2    Zn1   S    
C56   H33   S    
C38   F8    S    
C58   C59   S    
C37   F7    S    
C55   H30   S    
C33   H5    S    
O13   C57   S    
C15   F3    S    
C5    C36   S    
C6    C35   S    
C23   O5    A    
C10   F14   S    
C1    O1    A    
O1    Zn1   S    
C45   H7    S    
C7    C17   A    
C47   H13   S    
C62   H48   S    
C31   C33   A    
C27   F5    S    
C25   H3    S    
C34   C36   A    
C26   H4    S    
C50   H19   S    
C21   O9    S    
C3    C24   S    
N1    Zn2   S    
C58   H38   S    
C14   F16   S    
C34   H6    S    
C47   H11   S    
O9    C45   S    
C22   O10   S    
C4    C6    A    
C2    O2    A    
C56   H34   S    
O11   C51   S    
C48   H15   S    
C4    C23   S    
C9    F13   S    
O10   C48   S    
C4    C44   A    
C51   C52   S    
C8    C18   A    
O8    Zn1   S    
C32   C34   A    
C61   H45   S    
C60   H43   S    
C29   C30   S    
C26   N2    A    
C46   C47   S    
C24   O8    A    
C40   O14   S    
C51   H22   S    
C17   C18   S    
C54   H29   S    
C16   C18   A    
C9    C11   A    
C10   C12   A    
C8    C10   A    
C5    C44   A    
C12   C14   A    
C49   H16   S    
C39   O13   S    
C6    C43   A    
C13   C15   A    
C62   H46   S    
C14   C16   A    
C61   C62   S    
C16   F4    S    
C41   F1    S    
C59   H40   S    
C60   H42   S    
C49   C50   S    
C42   F2    S    
C21   N1    A    
C22   N2    A    
C50   H20   S    
C15   C17   A    
C52   H24   S    
O7    Zn2   S    
C44   F10   S    
C31   C41   A    
C19   C21   A    
C26   C28   A    
C31   O11   S    
C20   C22   A    
C40   C42   A    
C3    C5    A    
C48   C49   S    
C58   H37   S    
C19   H1    S    
O5    Zn1   S    
C25   C27   A    
C53   H27   S    
O2    Zn2   S    
C49   H17   S    
C57   C58   S    
C8    F12   S    
C59   H41   S    
C28   C30   A    
C61   H44   S    
C1    O3    A    
C60   C61   S    
C46   H9    S    
C37   C39   A    
C2    O4    A    
C56   H32   S    
C7    F11   S    
C11   C13   A    
C55   H31   S    
C45   C46   S    
C36   C38   A    
C51   H21   S    
C33   C35   A    
C57   H36   S    
C43   F9    S    
C54   C55   S    
C32   O12   S    
C13   F15   S    
O12   C54   S    
C53   H26   S    
C48   H14   S    
C7    C9    A    
C24   O6    A    
C53   H25   S    
C46   H10   S    
C54   H28   S    
C62   H47   S    
C45   H8    S    
C32   C42   A    
O4    Zn1   S    
C28   F6    S    
C59   H39   S    
C20   H2    S    
C55   C56   S    
C19   C29   A    
