data_mof_unit_32761.cif
_audit_creation_date              2012-12-10T17:59:17-0500
_audit_creation_method            fapswitch 2.2
_symmetry_space_group_name_H-M    P1
_symmetry_Int_Tables_number       1
_space_group_crystal_system       triclinic
_cell_length_a                    10.827817
_cell_length_b                    9.507672
_cell_length_c                    10.760577
_cell_angle_alpha                 90.114783
_cell_angle_beta                  89.599884
_cell_angle_gamma                 90.001421
_cell_volume                      1107.74346418

loop_
_atom_site_label
_atom_site_type_symbol
_atom_type_description
_atom_site_fract_x
_atom_site_fract_y
_atom_site_fract_z
_atom_type_partial_charge
C1    C     C_R   0.262045 0.499989 0.499892 0.779845
C2    C     C_3   0.624663 0.436265 0.920381 -0.420656
C3    C     C_R   0.063842 0.372120 0.498653 -0.168122
C4    C     C_R   0.063814 0.627745 0.502453 -0.174085
C5    C     C_R   0.936103 0.372094 0.499559 -0.126508
C6    C     C_R   0.936086 0.627712 0.503392 -0.130958
C7    C     C_R   0.871750 0.499894 0.501924 0.008296
C8    C     C_R   0.128193 0.499951 0.500201 -0.023660
C9    C     C_R   0.430180 0.074282 0.416982 0.024046
C10   C     C_R   0.430153 0.925374 0.417003 -0.007157
C11   C     C_R   0.570203 0.925735 0.582805 -0.018768
C12   C     C_R   0.570227 0.074648 0.582784 -0.026032
C13   C     C_R   0.505189 0.499802 0.259581 0.872797
C14   C     C_R   0.737917 0.499956 0.501764 0.874500
C15   C     C_R   0.497986 0.500303 0.740090 0.777527
C16   C     C_3   0.488003 0.651775 0.071713 -0.377116
C17   C     C_3   0.396046 0.413423 0.073340 -0.416505
C18   C     C_3   0.488631 0.652777 0.929252 -0.341407
C19   C     C_3   0.393894 0.410470 0.930336 -0.369205
C20   C     C_3   0.636379 0.440060 0.064884 0.698746
C21   C     C_3   0.509104 0.499333 0.121063 -0.066819
C22   C     C_3   0.500928 0.500646 0.877546 0.024051
Cu1   Cu    Cu3+1 0.500020 0.640660 0.500000 0.970866
Cu2   Cu    Cu3+1 0.500020 0.359340 0.500000 0.982006
H1    H     H_    0.558137 0.726505 0.107373 0.253721
H2    H     H_    0.393403 0.305126 0.110500 0.228920
H3    H     H_    0.626521 0.869703 0.648977 0.128969
H4    H     H_    0.626584 0.130983 0.648924 0.130868
H5    H     H_    0.397361 0.692698 0.105550 0.171757
H6    H     H_    0.308967 0.462856 0.107706 0.177358
H7    H     H_    0.401360 0.701335 0.895930 0.176343
H8    H     H_    0.303772 0.451448 0.896847 0.176004
H9    H     H_    0.566056 0.719324 0.894865 0.225270
H10   H     H_    0.402332 0.299702 0.897667 0.202596
H11   H     H_    0.702503 0.492211 0.873974 0.189245
H12   H     H_    0.629984 0.326505 0.884627 0.191248
H13   H     H_    0.111915 0.272212 0.496745 0.150473
H14   H     H_    0.111853 0.727676 0.503619 0.151296
H15   H     H_    0.888049 0.272175 0.498218 0.152273
H16   H     H_    0.888004 0.727619 0.505090 0.154146
H17   H     H_    0.374108 0.130328 0.350612 0.127483
H18   H     H_    0.374008 0.869060 0.350672 0.119970
N1    N     N_R   0.500030 0.852070 0.500030 -0.164597
N2    N     N_R   0.500030 0.147930 0.500030 -0.165509
O1    O     O_R   0.319660 0.618740 0.499990 -0.594175
O2    O     O_R   0.319660 0.381260 0.499990 -0.596657
O3    O     O_R   0.499990 0.618790 0.317690 -0.578877
O4    O     O_R   0.499990 0.381210 0.317690 -0.537968
O5    O     O_R   0.680370 0.618830 0.500010 -0.575264
O6    O     O_R   0.680370 0.381170 0.500010 -0.570694
O7    O     O_R   0.500030 0.618780 0.682310 -0.596396
O8    O     O_R   0.500030 0.381220 0.682310 -0.595935
S1    S     S_3+6 0.767362 0.552721 0.103918 0.003057
O9    O     O_2   0.761169 0.596356 0.237838 -0.314919
O10   O     O_2   0.886382 0.474854 0.081754 -0.233945
O11   O     O_3   0.769644 0.698188 0.015148 -0.593353
H19   H     H_    0.839455 0.754861 0.046862 0.387716
S2    S     S_3+6 0.676712 0.263425 0.117546 0.021403
O12   O     O_2   0.570076 0.163132 0.107898 -0.358553
O13   O     O_2   0.780532 0.207760 0.037943 -0.268305
O14   O     O_3   0.725973 0.268108 0.265176 -0.485534
H20   H     H_    0.739379 0.168471 0.288170 0.364881

loop_
_geom_bond_atom_site_label_1
_geom_bond_atom_site_label_2
_ccdc_geom_bond_type
C2    H11   S    
C2    C22   S    
C13   O4    A    
C11   C12   A    
Cu2   O8    S    
C16   C21   S    
Cu1   O1    S    
C15   O7    A    
C10   H18   S    
C1    C8    S    
C9    C10   A    
C9    H17   S    
C4    C8    A    
Cu1   Cu2   S    
Cu2   O2    S    
S2    O14   S    
S1    O10   D    
C16   H5    S    
C13   C21   S    
C12   N2    A    
C14   O6    A    
C15   O8    A    
O11   H19   S    
C11   N1    A    
C17   H6    S    
C1    O1    A    
C6    C7    A    
C12   H4    S    
C17   H2    S    
C4    C6    A    
C17   C19   S    
C4    H14   S    
C11   H3    S    
S2    O13   D    
C5    C7    A    
C5    H15   S    
Cu2   O6    S    
O14   H20   S    
Cu2   N2    S    
C18   H9    S    
C6    H16   S    
C1    O2    A    
Cu1   O5    S    
C14   O5    A    
Cu1   O3    S    
C19   H8    S    
C20   S2    S    
Cu2   O4    S    
C19   C22   S    
Cu1   N1    S    
C20   C21   S    
C3    H13   S    
C16   C18   S    
C3    C8    A    
S1    O11   S    
C2    H12   S    
C16   H1    S    
C13   O3    A    
C2    C20   S    
C9    N2    A    
C18   H7    S    
C10   N1    A    
C18   C22   S    
S2    O12   D    
Cu1   O7    S    
C15   C22   S    
C7    C14   S    
S1    O9    D    
C20   S1    S    
C3    C5    A    
C19   H10   S    
C17   C21   S    
