data_mof_unit_50601.cif
_audit_creation_date              2012-12-10T20:39:06-0500
_audit_creation_method            fapswitch 2.2
_symmetry_space_group_name_H-M    P1
_symmetry_Int_Tables_number       1
_space_group_crystal_system       triclinic
_cell_length_a                    19.086391
_cell_length_b                    10.656203
_cell_length_c                    9.840299
_cell_angle_alpha                 89.804557
_cell_angle_beta                  89.842566
_cell_angle_gamma                 90.37905
_cell_volume                      2001.34010885

loop_
_atom_site_label
_atom_site_type_symbol
_atom_type_description
_atom_site_fract_x
_atom_site_fract_y
_atom_site_fract_z
_atom_type_partial_charge
C1    C     C_R   0.500239 0.260378 0.500000 0.909607
C2    C     C_R   0.288305 0.490881 0.500389 -0.107916
C3    C     C_R   0.928267 0.407734 0.514190 0.313215
C4    C     C_R   0.069461 0.415577 0.509083 0.295548
C5    C     C_R   0.819799 0.487813 0.619497 -0.158880
C6    C     C_R   0.748897 0.514008 0.612511 -0.268234
C7    C     C_R   0.709622 0.473955 0.500643 -0.145556
C8    C     C_R   0.741490 0.402993 0.396911 0.469605
C9    C     C_R   0.813205 0.380357 0.402763 -0.266574
C10   C     C_R   0.852478 0.422412 0.513814 0.020360
C11   C     C_R   0.549162 0.063698 0.576911 0.036059
C12   C     C_R   0.364962 0.501221 0.500004 0.856005
C13   C     C_R   0.502128 0.128905 0.496481 -0.133146
C14   C     C_R   0.461585 0.066693 0.399373 -0.344032
C15   C     C_R   0.461566 0.936412 0.395063 0.454869
C16   C     C_R   0.500019 0.871899 0.495068 -0.246704
C17   C     C_R   0.547533 0.935628 0.576823 0.052555
C18   C     C_3   0.561627 0.928540 0.726554 0.038817
C19   C     C_3   0.564737 0.071508 0.725530 -0.504826
C20   C     C_R   0.477014 0.397138 0.071876 0.131920
C21   C     C_R   0.530574 0.594978 0.071570 -0.105636
C22   C     C_R   0.530171 0.595363 0.927436 -0.147208
C23   C     C_R   0.498669 0.739818 0.499389 0.943028
C24   C     C_R   0.477150 0.396884 0.929279 0.199953
C25   C     C_3   0.405926 0.338578 0.924454 0.269922
C26   C     C_3   0.405999 0.338984 0.079060 -0.553720
C27   C     C_R   0.634571 0.496187 0.499803 0.875090
C28   C     C_R   0.255248 0.451133 0.620692 -0.252180
C29   C     C_R   0.184378 0.424082 0.622755 -0.165845
C30   C     C_R   0.144914 0.436777 0.504471 0.042389
C31   C     C_R   0.176575 0.480312 0.384475 -0.182688
C32   C     C_R   0.248278 0.510316 0.381043 0.225223
H1    H     H_    0.284328 0.438424 0.713565 0.146290
H2    H     H_    0.516720 0.890052 0.786181 0.131173
H3    H     H_    0.521813 0.114811 0.784825 0.247642
H4    H     H_    0.617478 0.112173 0.745341 0.201105
H5    H     H_    0.554080 0.672650 0.125602 0.143275
H6    H     H_    0.553264 0.673292 0.872731 0.165778
H7    H     H_    0.366541 0.402866 0.878839 0.061833
H8    H     H_    0.366503 0.402821 0.123573 0.213393
H9    H     H_    0.160561 0.392453 0.716994 0.152669
H10   H     H_    0.407193 0.243796 0.125373 0.211268
H11   H     H_    0.144361 0.495308 0.295792 0.162079
H12   H     H_    0.849361 0.522201 0.705628 0.163787
H13   H     H_    0.724780 0.566371 0.694241 0.183882
H14   H     H_    0.837845 0.329163 0.320774 0.166382
H15   H     H_    0.426852 0.118789 0.333486 0.163276
N1    N     N_R   0.032879 0.397639 0.392857 -0.180067
N2    N     N_R   0.963399 0.393560 0.395417 -0.173117
N3    N     N_R   0.964910 0.421911 0.630934 -0.178255
N4    N     N_R   0.034387 0.425403 0.628460 -0.176001
N5    N     N_R   0.499530 0.499140 0.142800 -0.099742
N6    N     N_R   0.499530 0.499180 0.857150 -0.135420
O1    O     O_R   0.500010 0.316790 0.614690 -0.604194
O2    O     O_R   0.500000 0.316760 0.385350 -0.626304
O3    O     O_R   0.398140 0.500000 0.614710 -0.634101
O4    O     O_R   0.398130 0.499970 0.385370 -0.599283
O5    O     O_R   0.500000 0.683240 0.614650 -0.627189
O6    O     O_R   0.499990 0.683210 0.385310 -0.599325
O7    O     O_R   0.601870 0.500030 0.614630 -0.616295
O8    O     O_R   0.601860 0.500000 0.385290 -0.568802
Zn1   Zn    Zn3+2 0.500000 0.500020 0.653130 0.951216
Zn2   Zn    Zn3+2 0.500000 0.499980 0.346870 0.971977
O9    O     O_3   0.416396 0.872368 0.309087 -0.606510
C33   C     C_3   0.435841 0.895420 0.172424 0.135376
H16   H     H_    0.492444 0.875443 0.155496 0.123275
H17   H     H_    0.424991 0.994153 0.142649 0.148171
C34   C     C_3   0.393147 0.810356 0.079968 -0.837908
H18   H     H_    0.336726 0.834330 0.087223 0.254175
H19   H     H_    0.410812 0.822390 0.973067 0.203990
H20   H     H_    0.400045 0.710801 0.110120 0.268023
N7    N     N_2   0.627900 0.869814 0.762841 -0.294769
H21   H     H_    0.642171 0.885371 0.862404 0.220730
C35   C     C_3   0.686208 0.873895 0.667967 -0.739065
H22   H     H_    0.731781 0.824769 0.712928 0.225899
H23   H     H_    0.701680 0.972422 0.645477 0.230920
H24   H     H_    0.672189 0.824751 0.572387 0.237695
O10   O     O_3   0.409470 0.214956 0.873111 -0.608603
C36   C     C_3   0.351940 0.190464 0.787473 0.122169
H25   H     H_    0.356990 0.246260 0.692161 0.157001
H26   H     H_    0.301441 0.212613 0.839001 0.132863
C37   C     C_3   0.351030 0.052009 0.750475 -0.832709
H27   H     H_    0.344519 0.994020 0.843644 0.252701
H28   H     H_    0.306764 0.032304 0.680578 0.219111
H29   H     H_    0.400722 0.026183 0.699318 0.258420
N8    N     N_2   0.280140 0.565098 0.262760 -0.296800
H30   H     H_    0.307813 0.646721 0.281070 0.263326
C38   C     C_3   0.244203 0.562472 0.133375 -0.845718
H31   H     H_    0.280877 0.592828 0.051696 0.241623
H32   H     H_    0.199126 0.627838 0.134716 0.250833
H33   H     H_    0.226307 0.465565 0.109775 0.249663
O11   O     O_3   0.703213 0.357327 0.288408 -0.594343
C39   C     C_3   0.682785 0.232478 0.317946 0.116893
H34   H     H_    0.651879 0.227406 0.414087 0.121243
H35   H     H_    0.729426 0.170731 0.326960 0.128143
C40   C     C_3   0.637063 0.182901 0.203347 -0.784585
H36   H     H_    0.667384 0.181189 0.106892 0.244674
H37   H     H_    0.618870 0.086181 0.227832 0.190674
H38   H     H_    0.590669 0.243830 0.189858 0.273470

loop_
_geom_bond_atom_site_label_1
_geom_bond_atom_site_label_2
_ccdc_geom_bond_type
O5    Zn1   S    
C23   O5    A    
C39   H34   S    
C6    H13   S    
C2    C12   S    
C3    N2    A    
C7    C8    A    
C23   O6    A    
C11   C19   S    
C31   H11   S    
O7    Zn1   S    
C28   C29   A    
C27   O7    A    
C5    C6    A    
N8    C38   S    
C15   C16   A    
C22   H6    S    
C40   H38   S    
C7    C27   S    
C2    C32   A    
C18   C19   S    
O8    Zn2   S    
C27   O8    A    
C34   H18   S    
C14   H15   S    
C20   C24   A    
C8    C9    A    
C33   H17   S    
C35   H24   S    
C40   H37   S    
C15   O9    S    
O4    Zn2   S    
C8    O11   S    
C9    C10   A    
C9    H14   S    
C39   H35   S    
C21   C22   A    
C3    N3    A    
N3    N4    A    
C22   N6    A    
C18   N7    S    
C35   H22   S    
C4    N4    A    
C25   O10   S    
C24   C25   S    
N7    C35   S    
C36   H26   S    
O10   C36   S    
C16   C17   A    
O1    Zn1   S    
C24   N6    A    
O2    Zn2   S    
C1    O1    A    
C29   C30   A    
N6    Zn1   S    
C31   C32   A    
C38   H33   S    
C33   C34   S    
C32   N8    S    
C40   H36   S    
C17   C18   S    
C18   H2    S    
C12   O3    A    
C35   H23   S    
C12   O4    A    
N1    N2    A    
C5    H12   S    
C38   H32   S    
C28   H1    S    
C33   H16   S    
C16   C23   S    
C37   H28   S    
O3    Zn1   S    
C1    C13   S    
C26   H10   S    
C4    N1    A    
C11   C17   A    
C29   H9    S    
N8    H30   S    
N7    H21   S    
N5    Zn2   S    
C36   C37   S    
C6    C7    A    
C39   C40   S    
C37   H29   S    
O6    Zn2   S    
C19   H4    S    
O9    C33   S    
C25   C26   S    
C5    C10   A    
C20   N5    A    
C3    C10   S    
C19   H3    S    
C25   H7    S    
C11   C13   A    
C26   H8    S    
C30   C31   A    
C20   C26   S    
C34   H20   S    
O11   C39   S    
C1    O2    A    
C36   H25   S    
C21   H5    S    
C38   H31   S    
C34   H19   S    
C37   H27   S    
C14   C15   A    
C2    C28   A    
C13   C14   A    
C21   N5    A    
C4    C30   S    
