data_mof_unit_33730.cif
_audit_creation_date              2012-12-10T17:07:49-0500
_audit_creation_method            fapswitch 2.2
_symmetry_space_group_name_H-M    P1
_symmetry_Int_Tables_number       1
_space_group_crystal_system       triclinic
_cell_length_a                    10.652888
_cell_length_b                    10.738615
_cell_length_c                    10.049692
_cell_angle_alpha                 89.993349
_cell_angle_beta                  89.753678
_cell_angle_gamma                 90.006918
_cell_volume                      1149.64661703

loop_
_atom_site_label
_atom_site_type_symbol
_atom_type_description
_atom_site_fract_x
_atom_site_fract_y
_atom_site_fract_z
_atom_type_partial_charge
C1    C     C_R   0.497814 0.262758 0.499844 0.946839
C2    C     C_3   0.878120 0.499615 0.499238 -0.003653
C3    C     C_3   0.925563 0.623931 0.563407 -0.290276
C4    C     C_3   0.929598 0.485708 0.354888 -0.339419
C5    C     C_2   0.505284 0.933156 0.387506 -0.123084
C6    C     C_2   0.517585 0.868609 0.500131 -0.300945
C7    C     C_2   0.512636 0.067117 0.388431 -0.137206
C8    C     C_2   0.488230 0.131036 0.499491 -0.295465
C9    C     C_2   0.595170 0.533821 0.926686 -0.103052
C10   C     C_2   0.600577 0.514867 0.074876 -0.053698
C11   C     C_R   0.257877 0.501227 0.500167 0.941622
C12   C     C_R   0.503488 0.737204 0.499953 0.943320
C13   C     C_R   0.741855 0.498638 0.499577 0.851015
C14   C     C_3   0.071550 0.391148 0.587790 0.299078
C15   C     C_3   0.926366 0.387492 0.583885 0.210756
C16   C     C_3   0.071064 0.629114 0.556873 -0.259415
C17   C     C_3   0.071954 0.489501 0.355687 -0.425887
C18   C     C_3   0.121215 0.502009 0.501146 -0.114729
H1    H     H_    0.099151 0.407871 0.692824 0.082845
H2    H     H_    0.893827 0.560801 0.289012 0.217796
H3    H     H_    0.101538 0.702993 0.485684 0.226119
H4    H     H_    0.489786 0.887776 0.292336 0.183365
H5    H     H_    0.541525 0.911087 0.594526 0.154092
H6    H     H_    0.536120 0.113276 0.295347 0.197027
H7    H     H_    0.457719 0.087971 0.591660 0.176710
H8    H     H_    0.674870 0.579256 0.879887 0.137363
H9    H     H_    0.691701 0.517240 0.122401 0.144946
H10   H     H_    0.416222 0.520224 0.104484 0.162335
H11   H     H_    0.891922 0.397103 0.688651 0.070758
H12   H     H_    0.894937 0.622417 0.669686 0.087356
H13   H     H_    0.103814 0.570358 0.294777 0.208110
H14   H     H_    0.109475 0.404895 0.305658 0.191891
H15   H     H_    0.897961 0.395978 0.310765 0.210870
N1    N     N_2   0.501360 0.501330 0.852150 -0.169634
N2    N     N_2   0.501390 0.501360 0.147810 -0.172090
O1    O     O_R   0.499980 0.319060 0.613040 -0.611477
O2    O     O_R   0.500020 0.319100 0.386900 -0.596773
O3    O     O_R   0.314770 0.499960 0.613070 -0.638320
O4    O     O_R   0.314820 0.500000 0.386930 -0.629487
O5    O     O_R   0.499980 0.680900 0.613100 -0.603988
O6    O     O_R   0.500020 0.680940 0.386960 -0.619037
O7    O     O_R   0.685180 0.500000 0.613070 -0.658606
O8    O     O_R   0.685230 0.500040 0.386930 -0.620498
Zn1   Zn    Zn3+2 0.499970 0.499970 0.650990 0.972818
Zn2   Zn    Zn3+2 0.500030 0.500030 0.349010 0.972455
C19   C     C_2   0.866505 0.739981 0.504472 0.466992
H16   H     H_    0.799081 0.792650 0.562963 0.056609
O9    O     O_2   0.891621 0.774487 0.391690 -0.566753
C20   C     C_2   0.419073 0.403730 0.894051 0.580772
H17   H     H_    0.321663 0.405693 0.863317 0.031526
O10   O     O_2   0.458204 0.313101 0.954771 -0.582895
O11   O     O_3   0.126635 0.276336 0.552108 -0.708587
H18   H     H_    0.103252 0.256678 0.459191 0.377680
O12   O     O_3   0.883392 0.273459 0.531581 -0.727694
H19   H     H_    0.798749 0.257885 0.569815 0.335543
C21   C     C_2   0.123551 0.664643 0.691603 0.411158
H20   H     H_    0.103090 0.608509 0.778795 0.040476
O13   O     O_2   0.188752 0.757448 0.703618 -0.537577

loop_
_geom_bond_atom_site_label_1
_geom_bond_atom_site_label_2
_ccdc_geom_bond_type
C10   H9    S    
C12   O5    A    
C11   O3    A    
C2    C4    S    
C16   C21   S    
C11   C18   S    
O3    Zn1   S    
C16   H3    S    
C8    H7    S    
C3    H12   S    
C1    C8    S    
C9    C10   S    
C14   C18   S    
C3    C19   S    
C14   C15   S    
C1    O2    A    
O4    Zn2   S    
C13   O8    A    
C17   C18   S    
C7    C8    D    
C21   H20   S    
C11   O4    A    
C2    C15   S    
O8    Zn2   S    
C10   N2    D    
O7    Zn1   S    
C6    H5    S    
C2    C13   S    
C13   O7    A    
C21   O13   D    
C9    H8    S    
C15   H11   S    
C2    C3    S    
C6    C12   S    
C5    C6    D    
C17   H13   S    
C19   O9    D    
O1    Zn1   S    
C3    C16   S    
O2    Zn2   S    
C7    H6    S    
N2    Zn2   S    
C15   O12   S    
O5    Zn1   S    
N1    Zn1   S    
O11   H18   S    
H10   N2    S    
C12   O6    A    
C16   C18   S    
C20   H17   S    
C4    C17   S    
O12   H19   S    
C5    C7    S    
C17   H14   S    
O6    Zn2   S    
C19   H16   S    
N1    C20   S    
C4    H15   S    
C14   H1    S    
C14   O11   S    
C5    H4    S    
C1    O1    A    
C9    N1    D    
C20   O10   D    
C4    H2    S    
