data_mof_unit_20052.cif
_audit_creation_date              2012-12-11T15:59:45-0500
_audit_creation_method            fapswitch 2.2
_symmetry_space_group_name_H-M    P1
_symmetry_Int_Tables_number       1
_space_group_crystal_system       triclinic
_cell_length_a                    10.724442
_cell_length_b                    10.73106
_cell_length_c                    17.10163
_cell_angle_alpha                 100.03332
_cell_angle_beta                  99.742143
_cell_angle_gamma                 60.411778
_cell_volume                      1677.3364508

loop_
_atom_site_label
_atom_site_type_symbol
_atom_type_description
_atom_site_fract_x
_atom_site_fract_y
_atom_site_fract_z
_atom_type_partial_charge
C1    C     C_R   0.354793 0.777387 0.401661 0.544791
C2    C     C_R   0.851589 0.317803 0.331152 -0.002002
C3    C     C_R   0.317960 0.861709 0.168686 0.006390
C4    C     C_R   0.398550 0.367578 0.353957 0.572741
C5    C     C_R   0.453996 0.813395 0.212047 0.018169
C6    C     C_R   0.462605 0.820066 0.295848 0.033383
C7    C     C_R   0.205373 0.897646 0.287695 -0.156749
C8    C     C_R   0.194522 0.907373 0.207929 -0.141848
C9    C     C_R   0.581089 0.758143 0.174282 -0.095561
C10   C     C_R   0.712293 0.723884 0.219239 -0.136632
C11   C     C_R   0.718580 0.747412 0.302062 -0.134578
C12   C     C_R   0.811339 0.236411 0.191596 0.011474
C13   C     C_R   0.594884 0.797627 0.340175 -0.057976
C14   C     C_R   0.339165 0.845562 0.331370 0.000953
C15   C     C_R   0.296778 0.269632 0.797836 -0.003641
C16   C     C_R   0.780226 0.372441 0.404680 0.554876
C17   C     C_R   0.426838 0.171134 0.762740 0.023155
C18   C     C_R   0.475682 0.221109 0.710994 0.028288
C19   C     C_R   0.238479 0.435192 0.701764 -0.142517
C20   C     C_R   0.201771 0.399033 0.765129 -0.145886
C21   C     C_R   0.515814 0.028547 0.783386 -0.075391
C22   C     C_R   0.661068 0.951265 0.769729 0.011362
C23   C     C_R   0.822108 0.221033 0.273017 0.017332
C24   C     C_R   0.715375 0.010682 0.727727 -0.106666
C25   C     C_R   0.623591 0.142014 0.697516 -0.107827
C26   C     C_R   0.374786 0.347473 0.674071 -0.001133
C27   C     C_1   0.772560 0.367789 0.714774 -0.069064
C28   C     C_R   0.357723 0.769773 0.627408 0.544289
C29   C     C_1   0.816752 0.328724 0.780527 -0.052393
C30   C     C_1   0.338963 0.809873 0.709441 -0.057992
C31   C     C_1   0.313375 0.837208 0.777509 -0.065680
C32   C     C_R   0.897718 0.308387 0.089916 0.531073
C33   C     C_R   0.296655 0.268677 0.124429 0.569708
C34   C     C_R   0.911989 0.393691 0.309393 -0.141549
C35   C     C_R   0.291634 0.895619 0.087068 0.538414
C36   C     C_R   0.880680 0.300199 0.860144 0.551419
C37   C     C_R   0.278081 0.250364 0.877074 0.558853
C38   C     C_R   0.279487 0.884019 0.857326 0.546158
C39   C     C_R   0.404829 0.373735 0.600110 0.530244
C40   C     C_R   0.720527 0.411016 0.635877 0.534199
C41   C     C_1   0.354755 0.341173 0.273316 -0.031397
C42   C     C_1   0.323694 0.312076 0.205088 -0.036334
C43   C     C_R   0.863565 0.322112 0.170425 0.009763
C44   C     C_3   0.760502 0.816225 0.809416 -0.254792
C45   C     C_R   0.922342 0.391727 0.230021 -0.142117
C46   C     C_3   0.802148 0.856729 0.896794 -0.312204
C47   C     C_3   0.898333 0.723909 0.940775 -0.409517
C48   C     C_R   0.753814 0.161564 0.134007 -0.086931
C49   C     C_R   0.725917 0.059659 0.156034 -0.102435
C50   C     C_R   0.751519 0.033741 0.235330 -0.131871
C51   C     C_R   0.801029 0.111205 0.293215 -0.097876
Cr1   Cr    Cr6+3 0.608100 0.610860 0.522250 1.008292
Cr2   Cr    Cr6+3 0.288890 0.599990 0.488420 1.010481
Cr3   Cr    Cr6+3 0.603040 0.289190 0.489390 0.998122
Cr4   Cr    Cr6+3 0.053960 0.052250 0.967380 0.991800
Cr5   Cr    Cr6+3 0.059890 0.373160 0.992710 0.985564
Cr6   Cr    Cr6+3 0.373370 0.061690 0.991710 0.976007
H1    H     H_    0.944534 0.460471 0.353504 0.139489
H2    H     H_    0.730367 0.180416 0.071819 0.135319
H3    H     H_    0.975978 0.446509 0.215414 0.135892
H4    H     H_    0.686719 0.998976 0.111416 0.132322
H5    H     H_    0.731444 0.954978 0.252790 0.134315
H6    H     H_    0.827146 0.080014 0.353058 0.136468
H7    H     H_    0.109728 0.922580 0.314236 0.136367
H8    H     H_    0.580831 0.739422 0.110069 0.129735
H9    H     H_    0.087178 0.950482 0.176906 0.161454
H10   H     H_    0.839064 0.664644 0.943521 0.174437
H11   H     H_    0.997304 0.652195 0.910291 0.175264
H12   H     H_    0.808115 0.685960 0.189576 0.118257
H13   H     H_    0.930063 0.757479 0.002712 0.130265
H14   H     H_    0.860344 0.919229 0.899004 0.184963
H15   H     H_    0.703565 0.925344 0.928359 0.165810
H16   H     H_    0.706225 0.749690 0.806241 0.150763
H17   H     H_    0.859473 0.750423 0.777841 0.142183
H18   H     H_    0.819303 0.728979 0.336809 0.103252
H19   H     H_    0.604109 0.822869 0.404125 0.143590
H20   H     H_    0.160938 0.532880 0.675238 0.143436
H21   H     H_    0.476172 0.979354 0.814680 0.152292
H22   H     H_    0.100342 0.473414 0.789423 0.133784
H23   H     H_    0.828645 0.955920 0.718455 0.119849
H24   H     H_    0.671715 0.181683 0.665535 0.155257
O1    O     O_R   0.749810 0.499790 0.438040 -0.508667
O2    O     O_R   0.411730 0.181020 0.091530 -0.509915
O3    O     O_R   0.365010 0.944360 0.063320 -0.521081
O4    O     O_R   0.477660 0.726260 0.439290 -0.509904
O5    O     O_R   0.159380 0.906670 0.876210 -0.502856
O6    O     O_R   0.930820 0.177420 0.886730 -0.493925
O7    O     O_R   0.910360 0.395420 0.895720 -0.536781
O8    O     O_R   0.186010 0.361730 0.919870 -0.495001
O9    O     O_R   0.400000 0.173010 0.914630 -0.523055
O10   O     O_R   0.354140 0.936940 0.899340 -0.539206
O11   O     O_3   0.162410 0.162370 0.983930 -0.271964
O12   O     O_R   0.298970 0.468800 0.557390 -0.489229
O13   O     O_R   0.260150 0.743000 0.412270 -0.521727
O14   O     O_R   0.297740 0.466550 0.394720 -0.491566
O15   O     O_R   0.488080 0.253500 0.386430 -0.502740
O16   O     O_R   0.722670 0.303800 0.421940 -0.519183
O17   O     O_R   0.751130 0.502220 0.613520 -0.494993
O18   O     O_R   0.478890 0.728510 0.601960 -0.505841
O19   O     O_R   0.261470 0.745430 0.587750 -0.519062
O20   O     O_R   0.489400 0.255930 0.561910 -0.514904
O21   O     O_R   0.723890 0.306050 0.584610 -0.524210
O22   O     O_3   0.500010 0.500010 0.500020 -0.288452
O23   O     O_R   0.171100 0.914680 0.053100 -0.520138
O24   O     O_R   0.941680 0.184840 0.050710 -0.510990
O25   O     O_R   0.922080 0.403420 0.072610 -0.536003
O26   O     O_R   0.196880 0.369150 0.083850 -0.490117

loop_
_geom_bond_atom_site_label_1
_geom_bond_atom_site_label_2
_ccdc_geom_bond_type
C45   H3    S    
C8    H9    S    
Cr6   O11   S    
Cr2   O14   S    
C41   C42   T    
Cr3   O20   S    
C19   C20   A    
C18   C26   A    
C12   C48   A    
C7    C8    A    
Cr1   O22   S    
C36   O7    A    
C29   C36   S    
C37   O9    A    
Cr4   O24   S    
C33   C42   S    
Cr1   O4    S    
C12   C43   A    
C40   O17   A    
C30   C31   T    
C26   C39   S    
Cr5   O7    S    
C27   C29   T    
C4    C41   S    
C19   H20   S    
C19   C26   A    
C39   O12   A    
C4    O15   A    
Cr5   O26   S    
C24   H23   S    
C7    C14   A    
C15   C37   S    
C1    O13   A    
C33   O26   A    
C21   H21   S    
Cr6   O2    S    
Cr3   O16   S    
C2    C16   S    
C9    C10   A    
C46   H15   S    
C2    C34   A    
Cr2   O19   S    
C32   O25   A    
C21   C22   A    
C25   H24   S    
C18   C25   A    
C47   H10   S    
C44   C46   S    
C39   O20   A    
C36   O6    A    
C1    O4    A    
C15   C20   A    
C22   C44   S    
C49   H4    S    
Cr6   O9    S    
Cr2   O12   S    
Cr3   O22   S    
C51   H6    S    
C24   C25   A    
C3    C8    A    
C50   C51   A    
Cr4   O23   S    
C17   C21   A    
Cr1   O1    S    
C47   H13   S    
C5    C9    A    
Cr4   O11   S    
C6    C14   A    
C4    O14   A    
C33   O2    A    
C23   C51   A    
C12   C23   A    
C13   H19   S    
C3    C35   S    
C27   C40   S    
C16   O1    A    
C17   C18   A    
Cr6   O3    S    
C34   C45   A    
C44   H17   S    
C43   C45   A    
Cr5   O25   S    
C46   H14   S    
C28   O18   A    
C48   C49   A    
C38   O5    A    
C35   O23   A    
C32   O24   A    
C50   H5    S    
C22   C24   A    
C47   H11   S    
C48   H2    S    
C15   C17   A    
C46   C47   S    
Cr5   O8    S    
Cr6   O10   S    
C20   H22   S    
Cr2   O13   S    
Cr3   O15   S    
Cr3   O21   S    
C3    C5    A    
C35   O3    A    
Cr1   O18   S    
C31   C38   S    
C37   O8    A    
Cr4   O5    S    
C28   C30   S    
C11   H18   S    
C6    C13   A    
C11   C13   A    
C28   O19   A    
C5    C6    A    
Cr2   O22   S    
C38   O10   A    
Cr1   O17   S    
C32   C43   S    
Cr4   O6    S    
C44   H16   S    
C16   O16   A    
C9    H8    S    
C7    H7    S    
C10   C11   A    
C40   O21   A    
C10   H12   S    
Cr5   O11   S    
C49   C50   A    
C2    C23   A    
C34   H1    S    
C1    C14   S    
