data_mof_unit_34936.cif
_audit_creation_date              2012-12-10T21:00:49-0500
_audit_creation_method            fapswitch 2.2
_symmetry_space_group_name_H-M    P1
_symmetry_Int_Tables_number       1
_space_group_crystal_system       triclinic
_cell_length_a                    18.093831
_cell_length_b                    18.169329
_cell_length_c                    18.357128
_cell_angle_alpha                 119.926726
_cell_angle_beta                  90.101435
_cell_angle_gamma                 119.813066
_cell_volume                      4280.33535522

loop_
_atom_site_label
_atom_site_type_symbol
_atom_type_description
_atom_site_fract_x
_atom_site_fract_y
_atom_site_fract_z
_atom_type_partial_charge
Br1   Br    Br    0.142670 0.277823 0.002173 -0.630299
Br2   Br    Br    0.855004 0.722229 0.997787 -0.631376
C1    C     C_R   0.111038 0.220074 0.609852 0.499349
C2    C     C_3   0.449897 0.897220 0.947936 0.050183
C3    C     C_3   0.111191 0.388792 0.231731 -0.244099
C4    C     C_3   0.100213 0.313446 0.253838 -0.302754
C5    C     C_3   0.178102 0.367950 0.335389 -0.444729
C6    C     C_3   0.436543 0.066033 0.147507 -0.251118
C7    C     C_3   0.507254 0.127606 0.237698 -0.287539
C8    C     C_3   0.474156 0.170987 0.314495 -0.454695
C9    C     C_3   0.559528 0.931854 0.851527 -0.245915
C10   C     C_3   0.634480 0.023361 0.852026 -0.303694
C11   C     C_3   0.673448 0.987654 0.778409 -0.459392
C12   C     C_3   0.472017 0.031249 0.070146 0.004150
C13   C     C_3   0.527645 0.969063 0.931210 0.003595
C14   C     C_3   0.452870 0.407048 0.487746 -0.134755
C15   C     C_3   0.547194 0.592216 0.512264 -0.129921
C16   C     C_3   0.557145 0.481124 0.521114 -0.129830
C17   C     C_3   0.442941 0.518137 0.478866 -0.127089
C18   C     C_3   0.550161 0.498957 0.448787 0.071407
C19   C     C_3   0.449898 0.500337 0.551209 0.072769
C20   C     C_3   0.446743 0.424804 0.414536 -0.114605
C21   C     C_R   0.888824 0.779918 0.390143 0.499109
C22   C     C_3   0.553334 0.574456 0.585463 -0.110880
C23   C     C_R   0.161463 0.184025 0.829497 -0.071339
C24   C     C_R   0.837052 0.816442 0.170890 -0.071732
C25   C     C_R   0.392785 0.781123 0.888433 0.494170
C26   C     C_R   0.607180 0.218930 0.111543 0.491114
C27   C     C_R   0.134670 0.131421 0.736890 -0.097936
C28   C     C_R   0.864225 0.869044 0.263503 -0.098944
C29   C     C_R   0.051169 0.098782 0.690004 0.052214
C30   C     C_R   0.947666 0.901159 0.309972 0.052406
C31   C     C_R   0.993888 0.117026 0.736320 -0.113309
C32   C     C_3   0.920758 0.405977 0.450904 -0.126849
C33   C     C_R   0.004468 0.882295 0.263224 -0.112201
C34   C     C_R   0.020798 0.169415 0.828948 -0.080127
C35   C     C_R   0.977176 0.829890 0.170598 -0.079466
C36   C     C_R   0.104810 0.203509 0.875597 0.189981
C37   C     C_R   0.893261 0.796396 0.124366 0.190329
C38   C     C_R   0.971117 0.943649 0.537104 -0.160572
C39   C     C_R   0.028178 0.056327 0.462877 -0.160400
C40   C     C_R   0.944805 0.892312 0.444659 0.016316
C41   C     C_R   0.054669 0.107668 0.555328 0.016536
C42   C     C_R   0.973334 0.949397 0.406915 -0.028788
C43   C     C_3   0.078812 0.593769 0.549254 -0.127118
C44   C     C_R   0.025883 0.050575 0.593066 -0.028785
C45   C     C_R   0.627824 0.577865 0.776011 -0.080917
C46   C     C_R   0.376833 0.431198 0.229539 -0.082409
C47   C     C_R   0.579764 0.527795 0.815381 0.060319
C48   C     C_R   0.424682 0.478719 0.188357 0.058589
C49   C     C_R   0.110755 0.500854 0.889605 0.502145
C50   C     C_R   0.889652 0.499559 0.110786 0.502416
C51   C     C_R   0.588607 0.589179 0.906164 0.084242
C52   C     C_R   0.412569 0.414977 0.096877 0.082800
C53   C     C_R   0.643281 0.697849 0.954069 -0.053056
C54   C     C_3   0.412762 0.963824 0.971836 -0.122422
C55   C     C_R   0.354959 0.306524 0.050122 -0.053010
C56   C     C_R   0.689389 0.745877 0.913387 -0.072016
C57   C     C_R   0.308901 0.261022 0.092544 -0.072505
C58   C     C_R   0.682041 0.686046 0.824691 -0.094354
C59   C     C_R   0.319355 0.323214 0.181895 -0.097172
C60   C     C_R   0.591146 0.542487 0.009582 -0.162431
C61   C     C_R   0.409124 0.458391 0.991059 -0.162113
C62   C     C_R   0.550712 0.500441 0.056282 0.015144
C63   C     C_R   0.449504 0.500240 0.944207 0.015192
C64   C     C_R   0.458982 0.458594 0.047815 -0.047254
C65   C     C_3   0.586835 0.036201 0.029434 -0.113464
C66   C     C_R   0.541468 0.542932 0.953295 -0.047707
C67   C     C_R   0.128114 0.795566 0.960004 -0.114880
C68   C     C_R   0.883478 0.208991 0.044118 -0.115757
C69   C     C_R   0.115605 0.729135 0.983624 -0.065233
C70   C     C_R   0.892165 0.273956 0.020073 -0.067392
C71   C     C_R   0.035054 0.629588 0.939087 0.055512
C72   C     C_R   0.969989 0.375571 0.065432 0.058546
C73   C     C_R   0.392564 0.500148 0.607883 0.494170
C74   C     C_R   0.607448 0.499569 0.392108 0.493626
C75   C     C_R   0.966757 0.597679 0.871456 -0.058281
C76   C     C_3   0.491454 0.036510 0.954833 -0.125004
C77   C     C_R   0.039409 0.411148 0.134437 -0.058747
C78   C     C_R   0.978022 0.664285 0.847720 0.057170
C79   C     C_R   0.031984 0.346072 0.158594 0.058357
C80   C     C_R   0.059921 0.763967 0.892882 -0.057062
C81   C     C_R   0.952778 0.244192 0.112476 -0.051945
C82   C     C_R   0.964374 0.557980 0.021581 -0.154824
C83   C     C_R   0.037469 0.444005 0.980173 -0.154612
C84   C     C_R   0.946336 0.498244 0.054542 0.010590
C85   C     C_R   0.055181 0.503364 0.946925 0.010527
C86   C     C_R   0.983774 0.440568 0.033734 -0.037718
C87   C     C_3   0.507862 0.963368 0.046334 -0.125522
C88   C     C_R   0.018744 0.562138 0.968680 -0.037810
C89   C     C_R   0.393917 0.499660 0.888284 0.500126
C90   C     C_R   0.606126 0.500436 0.111781 0.500361
C91   C     C_R   0.108819 0.500106 0.607785 0.502368
C92   C     C_R   0.891040 0.499776 0.392237 0.502184
C93   C     C_3   0.014561 0.427679 0.448553 -0.111102
C94   C     C_3   0.985011 0.572061 0.551604 -0.111389
C95   C     C_3   0.041754 0.521600 0.446201 -0.121922
C96   C     C_3   0.957834 0.478149 0.553975 -0.122230
C97   C     C_3   0.948752 0.499773 0.449278 0.066228
C98   C     C_3   0.549742 0.102893 0.053136 0.059005
C99   C     C_3   0.050851 0.499973 0.550863 0.065961
C100  C     C_3   0.521142 0.410234 0.759397 -0.263340
C101  C     C_3   0.440601 0.364959 0.684583 -0.285574
C102  C     C_3   0.376009 0.247467 0.634198 -0.463288
C103  C     C_3   0.486177 0.596207 0.243142 -0.263620
C104  C     C_3   0.566959 0.639873 0.316733 -0.283796
C105  C     C_3   0.634244 0.756881 0.365482 -0.461581
C106  C     C_3   0.900252 0.625058 0.775308 -0.244872
C107  C     C_3   0.914046 0.703027 0.755596 -0.302202
C108  C     C_3   0.834853 0.653101 0.677521 -0.444560
H1    H     H_    0.075102 0.540994 0.401867 0.100302
H2    H     H_    0.020766 0.814385 0.134743 0.126325
H3    H     H_    0.949507 0.900596 0.566590 0.143872
H4    H     H_    0.049745 0.099379 0.433391 0.143956
H5    H     H_    0.718438 0.723781 0.793665 0.095084
H6    H     H_    0.282799 0.287476 0.214228 0.096462
H7    H     H_    0.623098 0.532755 0.707232 0.085742
H8    H     H_    0.384172 0.478210 0.298898 0.086520
H9    H     H_    0.649697 0.745429 0.023089 0.090846
H10   H     H_    0.346050 0.257130 0.980595 0.092322
H11   H     H_    0.026464 0.367302 0.408082 0.122340
H12   H     H_    0.924346 0.458934 0.598365 0.099570
H13   H     H_    0.973116 0.632403 0.592305 0.122688
H14   H     H_    0.731259 0.829669 0.950858 0.107132
H15   H     H_    0.264573 0.177376 0.055890 0.109183
H16   H     H_    0.661659 0.573978 0.015687 0.177692
H17   H     H_    0.338643 0.427053 0.985061 0.176578
H18   H     H_    0.071946 0.818429 0.877659 0.098353
H19   H     H_    0.943903 0.190497 0.127506 0.100198
H20   H     H_    0.190512 0.872370 0.994597 0.089455
H21   H     H_    0.823562 0.130324 0.008685 0.091493
H22   H     H_    0.168273 0.755363 0.036950 0.097622
H23   H     H_    0.226583 0.210578 0.865376 0.113989
H24   H     H_    0.839121 0.244846 0.965315 0.097488
H25   H     H_    0.903893 0.521294 0.838268 0.098723
H26   H     H_    0.100466 0.489003 0.167947 0.096166
H27   H     H_    0.936339 0.602704 0.037356 0.170933
H28   H     H_    0.065595 0.399368 0.964442 0.172656
H29   H     H_    0.855044 0.328869 0.409480 0.102411
H30   H     H_    0.144520 0.670883 0.590663 0.103332
H31   H     H_    0.485022 0.066946 0.917467 0.098732
H32   H     H_    0.514020 0.932784 0.083662 0.099001
H33   H     H_    0.340828 0.933645 0.948430 0.112455
H34   H     H_    0.772006 0.790373 0.135342 0.114388
H35   H     H_    0.658753 0.066305 0.052830 0.112378
H36   H     H_    0.604898 0.465867 0.537395 0.097806
H37   H     H_    0.395249 0.533506 0.462701 0.096911
H38   H     H_    0.413098 0.330900 0.478308 0.100235
H39   H     H_    0.587029 0.668348 0.521684 0.099035
H40   H     H_    0.403992 0.362477 0.343700 0.115221
H41   H     H_    0.596208 0.636695 0.656294 0.116287
H42   H     H_    0.411631 0.210483 0.604250 0.147160
H43   H     H_    0.347767 0.226632 0.679882 0.148454
H44   H     H_    0.319340 0.217306 0.580045 0.141951
H45   H     H_    0.179672 0.118319 0.701948 0.093593
H46   H     H_    0.402717 0.399288 0.712661 0.185538
H47   H     H_    0.465176 0.383663 0.636777 0.151684
H48   H     H_    0.562810 0.381930 0.729835 0.130422
H49   H     H_    0.495584 0.380790 0.800601 0.146231
H50   H     H_    0.661711 0.775495 0.318399 0.147965
H51   H     H_    0.601062 0.796812 0.396599 0.146357
H52   H     H_    0.691196 0.785885 0.418583 0.142805
H53   H     H_    0.542938 0.623318 0.365810 0.149927
H54   H     H_    0.602557 0.602643 0.287768 0.185740
H55   H     H_    0.446706 0.627475 0.273876 0.129445
H56   H     H_    0.819610 0.882669 0.298787 0.092669
H57   H     H_    0.511543 0.624000 0.200836 0.145873
H58   H     H_    0.828377 0.587238 0.616010 0.159620
H59   H     H_    0.770934 0.623807 0.692247 0.143722
H60   H     H_    0.845885 0.711326 0.665436 0.154933
H61   H     H_    0.920214 0.770181 0.815497 0.185144
H62   H     H_    0.976627 0.731507 0.738365 0.148261
H63   H     H_    0.887413 0.554983 0.713266 0.120929
H64   H     H_    0.838669 0.600580 0.794892 0.183977
H65   H     H_    0.243453 0.401836 0.324044 0.140760
H66   H     H_    0.179485 0.431047 0.395071 0.160675
H67   H     H_    0.929447 0.092558 0.700915 0.098328
H68   H     H_    0.169642 0.311295 0.348545 0.157700
H69   H     H_    0.036328 0.281436 0.268255 0.148174
H70   H     H_    0.098328 0.248279 0.195969 0.183704
H71   H     H_    0.172478 0.413848 0.211771 0.181196
H72   H     H_    0.123159 0.459022 0.292828 0.120053
H73   H     H_    0.461931 0.225031 0.314167 0.161540
H74   H     H_    0.410708 0.106959 0.308870 0.145181
H75   H     H_    0.526168 0.214336 0.378876 0.134421
H76   H     H_    0.521600 0.076260 0.240844 0.149970
H77   H     H_    0.571206 0.193432 0.246092 0.168771
H78   H     H_    0.068827 0.906294 0.298300 0.098425
H79   H     H_    0.416796 0.114581 0.146515 0.159236
H80   H     H_    0.375318 0.996212 0.137233 0.129060
H81   H     H_    0.703194 0.951053 0.788010 0.150458
H82   H     H_    0.619842 0.930970 0.712095 0.150403
H83   H     H_    0.727385 0.055571 0.780413 0.137596
H84   H     H_    0.607125 0.061881 0.842269 0.157586
H85   H     H_    0.689563 0.081084 0.917284 0.160823
H86   H     H_    0.584749 0.888448 0.854614 0.159562
H87   H     H_    0.501254 0.878333 0.789106 0.137614
H88   H     H_    0.976850 0.184466 0.864472 0.126382
O1    O     O_3   0.251620 0.500000 0.748430 -0.436824
O2    O     O_R   0.570330 0.268390 0.136490 -0.543176
O3    O     O_R   0.134680 0.268390 0.572240 -0.556547
O4    O     O_R   0.865320 0.731610 0.427760 -0.556463
O5    O     O_R   0.306670 0.731630 0.863510 -0.546179
O6    O     O_R   0.693330 0.268370 0.136490 -0.550828
O7    O     O_R   0.135450 0.439270 0.865360 -0.541214
O8    O     O_R   0.864550 0.560730 0.134640 -0.541082
O9    O     O_R   0.429670 0.560710 0.692610 -0.553222
O10   O     O_R   0.570330 0.439290 0.307390 -0.553047
O11   O     O_R   0.308540 0.439240 0.865360 -0.548170
O12   O     O_3   0.748380 0.500000 0.251570 -0.436719
O13   O     O_R   0.691460 0.560760 0.134640 -0.548221
O14   O     O_R   0.133580 0.439310 0.571150 -0.551755
O15   O     O_R   0.866420 0.560690 0.428850 -0.551299
O16   O     O_R   0.430770 0.560690 0.864590 -0.544842
O17   O     O_R   0.569230 0.439310 0.135410 -0.544472
O18   O     O_R   0.133580 0.560760 0.692610 -0.541446
O19   O     O_R   0.866420 0.439240 0.307390 -0.542062
O20   O     O_R   0.134680 0.560740 0.864590 -0.538729
O21   O     O_R   0.865320 0.439260 0.135410 -0.539062
O22   O     O_R   0.306670 0.439270 0.571150 -0.548154
O23   O     O_R   0.693330 0.560730 0.428850 -0.547555
O24   O     O_R   0.135450 0.268370 0.694460 -0.531807
O25   O     O_R   0.864550 0.731630 0.305540 -0.531710
O26   O     O_R   0.429670 0.731610 0.863510 -0.546181
Zn1   Zn    Zn3+2 0.207400 0.586780 0.791530 0.930129
Zn2   Zn    Zn3+2 0.792600 0.413220 0.208470 0.926250
Zn3   Zn    Zn3+2 0.208510 0.413230 0.792630 0.933658
Zn4   Zn    Zn3+2 0.791490 0.586770 0.207370 0.933313
Zn5   Zn    Zn3+2 0.383150 0.586740 0.791530 0.914645
Zn6   Zn    Zn3+2 0.616850 0.413260 0.208470 0.914188
Zn7   Zn    Zn3+2 0.207400 0.413250 0.618010 0.906553
Zn8   Zn    Zn3+2 0.792600 0.586750 0.381990 0.906276

loop_
_geom_bond_atom_site_label_1
_geom_bond_atom_site_label_2
_ccdc_geom_bond_type
C12   C54   S    
C20   H40   S    
C14   C19   S    
C4    H69   S    
O17   Zn6   S    
C8    H74   S    
C39   H4    S    
C89   O11   A    
C5    H65   S    
C8    H75   S    
C61   C63   A    
C105  H50   S    
C46   C59   A    
C45   C47   A    
C53   H9    S    
C38   C44   A    
C77   H26   S    
C1    C41   S    
C25   O26   A    
C26   O2    A    
C21   C40   S    
C82   C88   A    
C25   O5    A    
O24   Zn3   S    
O4    Zn8   S    
C33   C35   A    
C82   C84   A    
C71   C88   S    
C81   H19   S    
C89   O16   A    
C3    C4    S    
C95   H1    S    
C84   C86   A    
C24   C37   A    
C83   C86   A    
C13   C76   S    
C104  C105  S    
C56   C58   A    
C87   H32   S    
C94   C97   S    
C32   H29   S    
C65   C87   S    
C31   C34   A    
C54   C76   S    
C106  C107  S    
C18   C74   S    
C90   O17   A    
C96   H12   S    
C67   C69   A    
C51   C66   S    
O1    Zn7   S    
C35   H2    S    
C60   C62   A    
C67   C80   A    
C79   C81   A    
C69   H22   S    
C54   H33   S    
C73   O9    A    
Br2   C37   S    
C105  H51   S    
C6    H80   S    
C6    C7    S    
C92   O15   A    
C29   C44   S    
C94   C96   S    
C65   H35   S    
C48   C103  S    
C6    C12   S    
C29   C31   A    
C104  H54   S    
C102  H43   S    
C23   H23   S    
C7    C8    S    
O20   Zn1   S    
O22   Zn7   S    
C107  H62   S    
O19   Zn2   S    
C27   H45   S    
C93   H11   S    
C46   C48   A    
C45   C58   A    
C61   C64   A    
C11   H83   S    
C2    C54   S    
C91   O18   A    
C8    H73   S    
C39   C41   A    
C100  H48   S    
C11   H82   S    
O2    Zn6   S    
C91   O14   A    
C24   H34   S    
C3    H71   S    
C95   C97   S    
C51   C53   A    
C49   O20   A    
C23   C27   A    
C73   O22   A    
C57   C59   A    
C15   C22   S    
C83   C85   A    
C31   H67   S    
C26   O6    A    
C30   C33   A    
C17   C20   S    
C9    H86   S    
C28   H56   S    
C70   C72   A    
C7    H76   S    
C76   H31   S    
C49   C85   S    
C47   C100  S    
C60   H16   S    
O14   Zn7   S    
O25   Zn4   S    
C67   H20   S    
C46   H8    S    
C21   O4    A    
C16   H36   S    
C90   O13   A    
C108  H58   S    
C43   H30   S    
C17   H37   S    
C103  H57   S    
C5    H68   S    
C106  H64   S    
C62   C64   A    
C9    H87   S    
C12   C87   S    
C22   H41   S    
C23   C36   A    
C3    C79   S    
O10   Zn6   S    
C70   H24   S    
C38   H3    S    
C105  H52   S    
C45   H7    S    
C6    H79   S    
C63   C66   A    
C13   C65   S    
C5    H66   S    
C59   H6    S    
C93   C95   S    
C32   C97   S    
O12   Zn6   S    
C102  H44   S    
C14   C16   S    
C48   C52   A    
C104  H53   S    
C32   C93   S    
C68   C81   A    
O1    Zn1   S    
C80   H18   S    
O15   Zn8   S    
C43   C99   S    
C65   C98   S    
C55   H10   S    
Br1   C36   S    
C78   C80   A    
C18   C20   S    
C82   H27   S    
C24   C28   A    
C1    O24   A    
C9    C13   S    
O13   Zn4   S    
C76   C98   S    
C1    O3    A    
C39   C42   A    
C16   C22   S    
C19   C22   S    
C53   C56   A    
C62   C90   S    
C91   C99   S    
C106  H63   S    
C108  H60   S    
C3    H72   S    
O5    Zn1   S    
C2    C25   S    
C77   C79   A    
C2    C87   S    
C75   C78   A    
C63   C89   S    
C19   C73   S    
C50   O21   A    
C14   C20   S    
C94   H13   S    
C4    H70   S    
C50   O8    A    
O12   Zn4   S    
C15   C18   S    
C15   H39   S    
C32   C96   S    
C21   O25   A    
C38   C40   A    
C7    H77   S    
C100  H49   S    
C9    C10   S    
C49   O7    A    
C12   C98   S    
C4    C5    S    
C52   C64   S    
C74   O23   A    
C57   H15   S    
C96   C99   S    
C75   H25   S    
C103  C104  S    
C78   C106  S    
C56   H14   S    
O18   Zn1   S    
C11   H81   S    
C60   C66   A    
C72   C77   A    
O9    Zn5   S    
C10   H85   S    
C102  H42   S    
C2    C13   S    
C34   C36   A    
O12   Zn2   S    
C40   C42   A    
C27   C29   A    
C43   C95   S    
C107  C108  S    
C28   C30   A    
O16   Zn5   S    
C26   C98   S    
C14   H38   S    
O1    Zn3   S    
C92   C97   S    
C47   C51   A    
O23   Zn8   S    
C50   C84   S    
C68   H21   S    
C15   C17   S    
C103  H55   S    
C93   C99   S    
O7    Zn3   S    
C16   C18   S    
C92   O19   A    
O21   Zn2   S    
O1    Zn5   S    
C100  C101  S    
C34   H88   S    
C41   C44   A    
C55   C57   A    
O12   Zn8   S    
O8    Zn4   S    
C108  H59   S    
C107  H61   S    
C101  H46   S    
O3    Zn7   S    
C101  H47   S    
C10   C11   S    
C30   C42   S    
C35   C37   A    
C33   H78   S    
C85   C88   A    
C69   C71   A    
C101  C102  S    
C71   C75   A    
C58   H5    S    
C68   C70   A    
O11   Zn3   S    
C72   C86   S    
O26   Zn5   S    
C43   C94   S    
O6    Zn2   S    
C83   H28   S    
C61   H17   S    
C74   O10   A    
C10   H84   S    
C17   C19   S    
C52   C55   A    
