data_mof_unit_21279.cif
_audit_creation_date              2012-12-10T20:51:42-0500
_audit_creation_method            fapswitch 2.2
_symmetry_space_group_name_H-M    P1
_symmetry_Int_Tables_number       1
_space_group_crystal_system       triclinic
_cell_length_a                    8.097545
_cell_length_b                    8.936163
_cell_length_c                    16.787848
_cell_angle_alpha                 89.546362
_cell_angle_beta                  93.948861
_cell_angle_gamma                 90.010215
_cell_volume                      1211.86309569

loop_
_atom_site_label
_atom_site_type_symbol
_atom_type_description
_atom_site_fract_x
_atom_site_fract_y
_atom_site_fract_z
_atom_type_partial_charge
C1    C     C_R   0.499969 0.217949 0.500025 0.941951
C2    C     C_R   0.500031 0.782051 0.499975 0.941956
C3    C     C_R   0.520416 0.502220 0.653945 0.882253
C4    C     C_R   0.479584 0.497766 0.346055 0.882244
C5    C     C_R   0.529988 0.521338 0.739997 -0.057495
C6    C     C_R   0.470012 0.478540 0.260010 -0.057484
C7    C     C_R   0.384401 0.550429 0.777787 -0.296474
C8    C     C_R   0.615591 0.449333 0.222235 -0.296473
C9    C     C_R   0.389562 0.570245 0.859888 0.232251
C10   C     C_R   0.610425 0.429373 0.140144 0.232246
C11   C     C_R   0.542972 0.554746 0.904609 0.292869
C12   C     C_R   0.457021 0.444849 0.095416 0.292859
C13   C     C_R   0.689111 0.534950 0.866489 -0.237614
C14   C     C_R   0.310887 0.464755 0.133526 -0.237617
C15   C     C_R   0.683007 0.517747 0.784281 -0.227169
C16   C     C_R   0.316995 0.482098 0.215726 -0.227180
C17   C     C_1   0.499973 0.065175 0.500007 -0.194060
C18   C     C_1   0.500027 0.934824 0.499992 -0.194066
H1    H     H_    0.733767 0.441070 0.256427 0.165552
H2    H     H_    0.266221 0.558711 0.743598 0.165555
H3    H     H_    0.796988 0.498429 0.755749 0.167161
H4    H     H_    0.203018 0.501500 0.244248 0.167158
N1    N     N_1   0.073640 0.500030 0.499990 -0.038070
N2    N     N_1   0.926360 0.499970 0.500010 -0.038070
N3    N     N_2   0.551574 0.544950 0.988097 -0.168435
N4    N     N_2   0.448438 0.454604 0.011926 -0.168416
O1    O     O_R   0.636850 0.285340 0.500000 -0.614277
O2    O     O_R   0.363150 0.714660 0.500000 -0.614273
O3    O     O_R   0.363100 0.285350 0.500000 -0.613221
O4    O     O_R   0.636900 0.714650 0.500000 -0.613217
O5    O     O_R   0.652140 0.498630 0.616140 -0.623425
O6    O     O_R   0.347860 0.501370 0.383860 -0.623423
O7    O     O_R   0.378390 0.498650 0.616130 -0.623882
O8    O     O_R   0.621610 0.501350 0.383870 -0.623882
Zn1   Zn    Zn3+2 0.682780 0.499990 0.500010 0.983190
Zn2   Zn    Zn3+2 0.317220 0.500010 0.499990 0.983192
N5    N     N_2   0.759702 0.400444 0.102527 -0.302268
H5    H     H_    0.866237 0.431707 0.135491 0.215807
C19   C     C_3   0.771910 0.251694 0.070049 -0.776997
H6    H     H_    0.772819 0.166726 0.118788 0.236540
H7    H     H_    0.888677 0.241922 0.039439 0.237320
H8    H     H_    0.667024 0.229112 0.025663 0.256836
N6    N     N_2   0.240277 0.599073 0.897517 -0.302269
H9    H     H_    0.133756 0.567811 0.864543 0.215807
C20   C     C_3   0.228010 0.747780 0.930040 -0.777046
H10   H     H_    0.227062 0.832797 0.881325 0.236554
H11   H     H_    0.332887 0.770354 0.974432 0.256850
H12   H     H_    0.111244 0.757474 0.960655 0.237313
H13   H     H_    0.806634 0.525176 0.901102 0.161662
H14   H     H_    0.193370 0.474522 0.098908 0.161677

loop_
_geom_bond_atom_site_label_1
_geom_bond_atom_site_label_2
_ccdc_geom_bond_type
C2    O2    A    
N1    N2    T    
N5    H5    S    
C14   C16   A    
C2    C18   S    
C11   C13   A    
C1    C17   S    
C2    O4    A    
C16   H4    S    
C13   C15   A    
C17   C18   T    
N5    C19   S    
C4    O6    A    
C20   H10   S    
C3    O5    A    
N6    C20   S    
O3    Zn2   S    
O2    Zn2   S    
C14   H14   S    
C10   C12   A    
O4    Zn1   S    
C10   N5    S    
C13   H13   S    
O6    Zn2   S    
C1    O3    A    
C12   C14   A    
O8    Zn1   S    
C19   H8    S    
O5    Zn1   S    
C9    C11   A    
N6    H9    S    
C4    O8    A    
C9    N6    S    
N2    Zn1   S    
C5    C15   A    
C11   N3    S    
C6    C16   A    
C8    H1    S    
C7    C9    A    
C15   H3    S    
O7    Zn2   S    
C19   H7    S    
C1    O1    A    
C7    H2    S    
C20   H11   S    
C12   N4    S    
C19   H6    S    
C5    C7    A    
C3    O7    A    
C6    C8    A    
C20   H12   S    
O1    Zn1   S    
N3    N4    D    
C4    C6    S    
C8    C10   A    
N1    Zn2   S    
C3    C5    S    
