data_mof_unit_31692.cif
_audit_creation_date              2012-12-10T18:21:53-0500
_audit_creation_method            fapswitch 2.2
_symmetry_space_group_name_H-M    P1
_symmetry_Int_Tables_number       1
_space_group_crystal_system       triclinic
_cell_length_a                    19.355219
_cell_length_b                    10.605118
_cell_length_c                    9.453661
_cell_angle_alpha                 89.426418
_cell_angle_beta                  89.737041
_cell_angle_gamma                 90.219747
_cell_volume                      1940.36758888

loop_
_atom_site_label
_atom_site_type_symbol
_atom_type_description
_atom_site_fract_x
_atom_site_fract_y
_atom_site_fract_z
_atom_type_partial_charge
C1    C     C_R   0.500317 0.259561 0.500329 0.770691
C2    C     C_R   0.500107 0.740476 0.499667 0.762686
C3    C     C_3   0.557163 0.041395 0.567569 -0.178336
C4    C     C_3   0.444027 0.958854 0.432431 -0.174297
C5    C     C_3   0.557619 0.959118 0.433332 -0.175035
C6    C     C_3   0.443567 0.040941 0.566714 -0.168899
C7    C     C_3   0.500422 0.877504 0.499728 0.028236
C8    C     C_3   0.500678 0.122595 0.500281 0.026560
C9    C     C_3   0.500010 0.957425 0.634219 -0.132247
C10   C     C_3   0.501194 0.042709 0.365818 -0.133388
C11   C     C_3   0.521280 0.606068 0.046906 0.296244
C12   C     C_3   0.478879 0.393865 0.953262 0.299250
C13   C     C_3   0.459842 0.587222 0.948064 -0.080979
C14   C     C_3   0.540221 0.412977 0.052032 -0.075574
C15   C     C_3   0.561670 0.519747 0.948302 -0.078031
C16   C     C_3   0.438343 0.480082 0.051737 -0.084946
C17   C     C_R   0.367639 0.501238 0.500269 0.821942
C18   C     C_R   0.632111 0.500987 0.499520 0.821213
C19   C     C_R   0.252627 0.430756 0.596668 0.131653
C20   C     C_R   0.745044 0.417541 0.414821 0.123568
C21   C     C_R   0.180229 0.444738 0.604521 0.145143
C22   C     C_R   0.817494 0.429296 0.402267 0.145378
C23   C     C_R   0.145656 0.514473 0.498020 -0.039261
C24   C     C_R   0.853358 0.513128 0.492011 -0.038966
C25   C     C_R   0.183942 0.581698 0.393677 0.140820
C26   C     C_R   0.816423 0.593491 0.584116 0.140163
C27   C     C_R   0.256715 0.587402 0.403688 0.127941
C28   C     C_R   0.743538 0.596995 0.577508 0.125078
C29   C     C_R   0.291257 0.506500 0.500350 -0.133640
C30   C     C_R   0.708061 0.505001 0.497822 -0.127053
C31   C     C_R   0.929605 0.513929 0.492520 0.427247
C32   C     C_R   0.069411 0.514510 0.494372 0.427943
Cu1   Cu    Cu3+1 0.500020 0.499990 0.643150 0.929840
Cu2   Cu    Cu3+1 0.499980 0.500010 0.356850 0.928971
H1    H     H_    0.613520 0.537347 0.901455 0.129681
H2    H     H_    0.386554 0.461681 0.098594 0.128715
H3    H     H_    0.604155 0.922306 0.378722 0.130812
H4    H     H_    0.397028 0.077283 0.621640 0.126802
H5    H     H_    0.603343 0.078483 0.622857 0.129047
H6    H     H_    0.397790 0.923080 0.376489 0.126553
H7    H     H_    0.499541 0.920028 0.744365 0.136602
H8    H     H_    0.501719 0.080103 0.255669 0.136502
H9    H     H_    0.426542 0.661082 0.900240 0.122429
H10   H     H_    0.573289 0.338814 0.099876 0.117933
N1    N     N_R   0.033672 0.404530 0.505498 -0.233123
N2    N     N_R   0.965320 0.623849 0.480276 -0.236577
N3    N     N_R   0.964991 0.404285 0.505280 -0.232611
N4    N     N_R   0.034028 0.624205 0.481962 -0.235407
N5    N     N_3   0.500050 0.499970 0.858290 -0.164865
N6    N     N_3   0.499950 0.500030 0.141710 -0.164096
O1    O     O_R   0.500030 0.316850 0.620870 -0.578407
O2    O     O_R   0.499970 0.683150 0.379130 -0.579679
O3    O     O_R   0.500000 0.316860 0.379090 -0.583855
O4    O     O_R   0.500000 0.683140 0.620910 -0.585788
O5    O     O_R   0.400160 0.499980 0.620930 -0.570816
O6    O     O_R   0.599840 0.500020 0.379070 -0.572991
O7    O     O_R   0.400130 0.499990 0.379150 -0.573839
O8    O     O_R   0.599870 0.500010 0.620850 -0.574515
C33   C     C_3   0.288313 0.333705 0.689290 -0.848660
H11   H     H_    0.307804 0.379739 0.786257 0.240150
H12   H     H_    0.253311 0.254979 0.720114 0.233996
H13   H     H_    0.331458 0.288678 0.631140 0.212135
C34   C     C_3   0.707009 0.311896 0.340181 -0.834415
H14   H     H_    0.686142 0.347280 0.238173 0.235152
H15   H     H_    0.740773 0.229781 0.319750 0.231791
H16   H     H_    0.664056 0.274528 0.406894 0.213621
C35   C     C_3   0.140482 0.388064 0.728735 -0.819597
H17   H     H_    0.093203 0.442703 0.753207 0.233679
H18   H     H_    0.126085 0.288984 0.705608 0.243811
H19   H     H_    0.171715 0.390839 0.826897 0.230734
C36   C     C_3   0.855715 0.355360 0.289863 -0.819012
H20   H     H_    0.904847 0.401597 0.257327 0.234726
H21   H     H_    0.866662 0.258678 0.329647 0.241576
H22   H     H_    0.824673 0.349899 0.191604 0.230596
C37   C     C_3   0.147173 0.644881 0.270594 -0.821354
H23   H     H_    0.181539 0.658629 0.177465 0.230890
H24   H     H_    0.104062 0.584844 0.232731 0.231708
H25   H     H_    0.126771 0.737761 0.303678 0.247014
C38   C     C_3   0.854981 0.674094 0.689902 -0.817489
H26   H     H_    0.821815 0.704528 0.779032 0.231384
H27   H     H_    0.897501 0.619494 0.739367 0.231458
H28   H     H_    0.876490 0.759080 0.635955 0.246971
C39   C     C_3   0.296821 0.683079 0.315054 -0.834787
H29   H     H_    0.344469 0.714399 0.369265 0.219186
H30   H     H_    0.310489 0.642027 0.211099 0.232402
H31   H     H_    0.266414 0.770486 0.298381 0.228798
C40   C     C_3   0.704440 0.701984 0.650780 -0.841266
H32   H     H_    0.653062 0.719721 0.603406 0.221679
H33   H     H_    0.697787 0.678723 0.764749 0.229402
H34   H     H_    0.732800 0.792757 0.639188 0.231382
C41   C     C_3   0.548232 0.732802 0.096950 -0.844711
H35   H     H_    0.569380 0.786602 0.005097 0.198256
H36   H     H_    0.505465 0.788339 0.143367 0.239532
H37   H     H_    0.590075 0.718508 0.175278 0.245970
C42   C     C_3   0.455137 0.264619 0.904674 -0.852502
H38   H     H_    0.434468 0.210472 0.996709 0.201204
H39   H     H_    0.413995 0.274198 0.824798 0.247293
H40   H     H_    0.499469 0.211851 0.860258 0.238873

loop_
_geom_bond_atom_site_label_1
_geom_bond_atom_site_label_2
_ccdc_geom_bond_type
Cu1   O5    S    
C40   H32   S    
C34   H15   S    
Cu2   O6    S    
Cu1   O8    S    
C5    H3    S    
C10   H8    S    
C1    C8    S    
C17   C29   S    
C32   N1    A    
C42   H38   S    
C6    C9    S    
C12   N5    S    
C42   H40   S    
C20   C30   A    
C19   C21   A    
C24   C26   A    
C27   C29   A    
Cu1   N5    S    
C1    O3    A    
C2    C7    S    
C11   C15   S    
C18   O8    A    
C12   C16   S    
C31   N2    A    
Cu2   O7    S    
C6    H4    S    
C12   C42   S    
C18   C30   S    
C27   C39   S    
C17   O5    A    
C18   O6    A    
C15   N5    S    
C34   H16   S    
C3    H5    S    
C33   H11   S    
C31   N3    A    
C21   C35   S    
C32   N4    A    
C4    C7    S    
C15   H1    S    
C5    C7    S    
N1    N3    A    
N2    N4    A    
Cu2   N6    S    
C33   H12   S    
C35   H17   S    
C4    H6    S    
C4    C6    S    
C3    C8    S    
C2    O4    A    
C41   H35   S    
C38   H27   S    
C6    C8    S    
C19   C33   S    
C34   H14   S    
C35   H18   S    
C37   H23   S    
C3    C9    S    
C41   H36   S    
C37   H24   S    
C39   H29   S    
C28   C40   S    
Cu1   Cu2   S    
C1    O1    A    
C36   H22   S    
C2    O2    A    
C13   N5    S    
C39   H30   S    
C20   C22   A    
C21   C23   A    
C22   C24   A    
C40   H34   S    
C25   C27   A    
C4    C10   S    
C19   C29   A    
C22   C36   S    
C13   H9    S    
C14   H10   S    
Cu1   O4    S    
C7    C9    S    
C33   H13   S    
C26   C28   A    
C16   N6    S    
C3    C5    S    
C38   H28   S    
C42   H39   S    
C9    H7    S    
Cu1   O1    S    
Cu2   O2    S    
C26   C38   S    
C35   H19   S    
C23   C32   S    
C20   C34   S    
C40   H33   S    
C12   C14   S    
C24   C31   S    
C5    C10   S    
C11   N6    S    
C16   H2    S    
C41   H37   S    
C11   C13   S    
C14   N6    S    
C28   C30   A    
C23   C25   A    
C37   H25   S    
C38   H26   S    
C11   C41   S    
C36   H20   S    
C39   H31   S    
Cu2   O3    S    
C8    C10   S    
C13   C16   S    
C36   H21   S    
C14   C15   S    
C25   C37   S    
C17   O7    A    
