data_mof_unit_36410.cif
_audit_creation_date              2012-10-26T19:21:31-0400
_audit_creation_method            fapswitch 2.2
_symmetry_space_group_name_H-M    P1
_symmetry_Int_Tables_number       1
_space_group_crystal_system       triclinic
_cell_length_a                    9.845738
_cell_length_b                    11.038066
_cell_length_c                    15.784158
_cell_angle_alpha                 94.832022
_cell_angle_beta                  79.41543
_cell_angle_gamma                 111.594362
_cell_volume                      1567.59209878

loop_
_atom_site_label
_atom_site_type_symbol
_atom_type_description
_atom_site_fract_x
_atom_site_fract_y
_atom_site_fract_z
_atom_type_partial_charge
C1    C     C_R   0.556415 0.745544 0.506198 0.557168
C2    C     C_2   0.515520 0.069573 0.501321 -0.158086
C3    C     C_2   0.923311 0.490430 0.493012 0.137181
C4    C     C_2   0.076707 0.509597 0.506974 0.137143
C5    C     C_R   0.411752 0.487622 0.662933 0.544161
C6    C     C_R   0.588768 0.515034 0.337216 0.542182
C7    C     C_R   0.359733 0.485182 0.756575 -0.003838
C8    C     C_R   0.644103 0.538681 0.244801 -0.004433
C9    C     C_R   0.163374 0.451213 0.879298 -0.143919
C10   C     C_R   0.841575 0.637654 0.127939 -0.148761
C11   C     C_R   0.209971 0.455072 0.790463 -0.139759
C12   C     C_R   0.443621 0.254461 0.493740 0.556525
C13   C     C_R   0.794466 0.601815 0.213941 -0.145468
C14   C     C_R   0.462708 0.514853 0.812550 -0.137334
C15   C     C_R   0.542026 0.509109 0.188410 -0.133904
C16   C     C_R   0.419975 0.518478 0.902535 0.017412
C17   C     C_R   0.585074 0.551088 0.102621 0.017483
C18   C     C_R   0.266334 0.480709 0.936664 0.056934
C19   C     C_R   0.738825 0.613017 0.070909 0.056053
C20   C     C_R   0.526622 0.554632 0.958889 0.010907
C21   C     C_R   0.478460 0.531887 0.048004 0.010826
C22   C     C_3   0.059733 0.441613 0.069011 -0.258983
C23   C     C_R   0.325618 0.496349 0.080647 -0.130786
C24   C     C_3   0.974068 0.294204 0.070739 -0.295562
C25   C     C_3   0.811676 0.263612 0.110254 -0.441609
C26   C     C_3   0.945782 0.724242 0.945839 -0.258064
C27   C     C_3   0.990846 0.869142 0.971724 -0.297013
C28   C     C_3   0.152836 0.944292 0.935705 -0.448494
C29   C     C_R   0.679544 0.617757 0.928980 -0.129564
C30   C     C_R   0.220157 0.473643 0.026924 -0.007400
C31   C     C_R   0.785247 0.649625 0.983563 -0.005659
C32   C     C_2   0.588274 0.885102 0.509511 -0.126188
C33   C     C_2   0.411842 0.114908 0.490288 -0.127631
C34   C     C_2   0.484708 0.930449 0.498283 -0.157489
Cu1   Cu    Cu3+1 0.362980 0.479380 0.485080 0.965130
Cu2   Cu    Cu3+1 0.637020 0.520620 0.514920 0.963515
H1    H     H_    0.428652 0.451546 0.213050 0.121779
H2    H     H_    0.375965 0.864680 0.486741 0.163634
H3    H     H_    0.303267 0.048878 0.478783 0.111300
H4    H     H_    0.696805 0.951127 0.521092 0.111494
H5    H     H_    0.123786 0.578066 0.556639 0.146956
H6    H     H_    0.876215 0.421928 0.443366 0.146838
H7    H     H_    0.802335 0.302293 0.177527 0.166334
H8    H     H_    0.758589 0.307744 0.071689 0.161204
H9    H     H_    0.752025 0.156422 0.111019 0.143748
H10   H     H_    0.980054 0.251823 0.004392 0.161488
H11   H     H_    0.024141 0.247473 0.109570 0.168126
H12   H     H_    0.576093 0.530700 0.784500 0.129963
H13   H     H_    0.053580 0.480655 0.136365 0.145639
H14   H     H_    0.005706 0.491093 0.035560 0.135842
H15   H     H_    0.225893 0.905078 0.961339 0.156027
H16   H     H_    0.171944 0.936898 0.864195 0.162156
H17   H     H_    0.181824 0.048678 0.955123 0.146187
H18   H     H_    0.920324 0.911793 0.946474 0.165486
H19   H     H_    0.974298 0.881238 0.042995 0.165503
H20   H     H_    0.020105 0.680704 0.965500 0.132949
H21   H     H_    0.962420 0.716330 0.874230 0.147872
H22   H     H_    0.175128 0.327295 0.375934 0.364545
H23   H     H_    0.875569 0.626039 0.256626 0.133497
H24   H     H_    0.824942 0.672850 0.623979 0.364347
H25   H     H_    0.128146 0.431984 0.748333 0.136627
H26   H     H_    0.045785 0.423458 0.901720 0.111328
H27   H     H_    0.959091 0.686553 0.107651 0.107687
H28   H     H_    0.285305 0.491622 0.149022 0.112863
H29   H     H_    0.719132 0.651209 0.863624 0.104975
H30   H     H_    0.624308 0.135347 0.512787 0.163920
N1    N     N_2   0.842890 0.551600 0.537350 -0.099896
N2    N     N_2   0.157110 0.448400 0.462650 -0.100071
O1    O     O_R   0.426810 0.668300 0.492040 -0.508974
O2    O     O_3   0.901920 0.636722 0.598440 -0.661538
O3    O     O_R   0.573190 0.331700 0.507960 -0.508790
O4    O     O_R   0.658240 0.703130 0.517240 -0.495822
O5    O     O_R   0.341760 0.296870 0.482760 -0.495332
O6    O     O_R   0.319390 0.472820 0.610170 -0.510281
O7    O     O_R   0.680610 0.527180 0.389830 -0.511700
O8    O     O_R   0.550820 0.507640 0.635370 -0.505399
O9    O     O_R   0.449180 0.492360 0.364630 -0.503938
O10   O     O_3   0.098159 0.363431 0.401470 -0.661249

loop_
_geom_bond_atom_site_label_1
_geom_bond_atom_site_label_2
_ccdc_geom_bond_type
Cu1   O6    S    
C8    C13   A    
Cu1   Cu2   S    
C19   C31   A    
C25   H7    S    
C27   H18   S    
C6    O7    A    
C3    H6    S    
C7    C11   A    
C26   C27   S    
C33   H3    S    
C28   H15   S    
C27   H19   S    
C4    H5    S    
C5    O6    A    
C15   H1    S    
Cu2   O8    S    
C7    C14   A    
C10   H27   S    
C18   C30   A    
Cu2   O3    S    
C22   H14   S    
C2    C34   S    
C26   C31   S    
C12   O5    A    
C25   H8    S    
C20   C29   A    
N2    O10   S    
Cu2   N1    S    
C1    O4    A    
C9    H26   S    
C23   C30   A    
C24   C25   S    
C4    N2    D    
C6    O9    A    
C6    C8    S    
C11   H25   S    
Cu1   O9    S    
C1    C32   S    
C1    O1    A    
C32   C34   D    
Cu2   O7    S    
H24   O2    S    
C10   C19   A    
C16   C20   A    
C9    C11   A    
C22   H13   S    
C29   H29   S    
C2    C33   D    
C23   H28   S    
C12   O3    A    
C8    C15   A    
C21   C23   A    
C14   C16   A    
C3    C4    S    
C25   H9    S    
C5    C7    S    
C15   C17   A    
Cu1   O5    S    
C22   C30   S    
C34   H2    S    
C24   H11   S    
C3    N1    D    
C2    H30   S    
C10   C13   A    
C26   H20   S    
C14   H12   S    
C28   H17   S    
C13   H23   S    
N1    O2    S    
C24   H10   S    
C5    O8    A    
C29   C31   A    
C28   H16   S    
Cu1   N2    S    
C17   C19   A    
C22   C24   S    
C32   H4    S    
C26   H21   S    
C17   C21   A    
H22   O10   S    
C9    C18   A    
C20   C21   A    
Cu1   O1    S    
C16   C18   A    
C27   C28   S    
C12   C33   S    
Cu2   O4    S    
