data_mof_unit_25809.cif
_audit_creation_date              2012-12-10T17:33:13-0500
_audit_creation_method            fapswitch 2.2
_symmetry_space_group_name_H-M    P1
_symmetry_Int_Tables_number       1
_space_group_crystal_system       triclinic
_cell_length_a                    12.074758
_cell_length_b                    12.810886
_cell_length_c                    13.61113
_cell_angle_alpha                 91.274806
_cell_angle_beta                  80.91589
_cell_angle_gamma                 94.596103
_cell_volume                      2072.29135529

loop_
_atom_site_label
_atom_site_type_symbol
_atom_type_description
_atom_site_fract_x
_atom_site_fract_y
_atom_site_fract_z
_atom_type_partial_charge
C1    C     C_R   0.522611 0.700698 0.501000 0.946062
C2    C     C_R   0.146538 0.466805 0.451636 0.658103
C3    C     C_R   0.971725 0.529305 0.539670 -0.284067
C4    C     C_R   0.026579 0.464858 0.464799 -0.271717
C5    C     C_R   0.481297 0.499644 0.686407 0.868701
C6    C     C_R   0.518323 0.497624 0.313599 0.871036
C7    C     C_1   0.529947 0.489942 0.209765 -0.204351
C8    C     C_1   0.467350 0.485336 0.789431 -0.185678
C9    C     C_2   0.549829 0.474476 0.016207 0.395088
C10   C     C_2   0.453430 0.454269 0.979910 0.389099
C11   C     C_1   0.457505 0.470283 0.876148 -0.058665
C12   C     C_R   0.476610 0.299329 0.507338 0.922818
C13   C     C_1   0.540979 0.482311 0.121814 -0.079200
C14   C     C_R   0.461554 0.187772 0.528021 -0.379743
C15   C     C_R   0.535542 0.813023 0.512600 -0.375109
C16   C     C_R   0.647672 0.977339 0.490585 0.410482
C17   C     C_R   0.346535 0.025208 0.561737 0.404796
C18   C     C_R   0.634031 0.870615 0.468677 0.278622
C19   C     C_R   0.356412 0.130499 0.532371 0.302696
C20   C     C_R   0.443604 0.864543 0.562600 0.522421
C21   C     C_R   0.556722 0.136040 0.540886 0.514020
C22   C     C_3   0.273783 0.365980 0.002202 0.070001
C23   C     C_R   0.445916 0.972439 0.554043 -0.251779
C24   C     C_3   0.182994 0.427961 0.969281 -0.333153
C25   C     C_3   0.092775 0.355142 0.930651 -1.000098
C26   C     C_3   0.747946 0.485752 0.994190 0.099686
C27   C     C_3   0.790323 0.588846 0.040019 -0.343348
C28   C     C_3   0.903705 0.580255 0.073890 -1.004184
C29   C     C_3   0.652062 0.210186 0.658365 -0.300476
C30   C     C_3   0.371531 0.786759 0.709139 -0.326382
C31   C     C_3   0.243190 0.143105 0.413274 0.143577
C32   C     C_3   0.333500 0.187107 0.328490 -0.346211
C33   C     C_3   0.297377 0.165093 0.227123 -0.960247
C34   C     C_R   0.551584 0.028545 0.530621 -0.254929
C35   C     C_3   0.712501 0.851072 0.304941 0.134266
C36   C     C_3   0.629501 0.776000 0.258549 -0.378538
C37   C     C_3   0.625888 0.804860 0.150994 -0.985138
C38   C     C_3   0.826704 0.028907 0.514527 0.134744
C39   C     C_3   0.910859 0.124765 0.495865 -0.277790
C40   C     C_3   0.989714 0.135153 0.572890 -0.984260
C41   C     C_3   0.191912 0.987462 0.677434 0.112098
C42   C     C_3   0.091297 0.907040 0.703503 -0.269435
C43   C     C_3   0.030452 0.923717 0.808995 -0.998918
C44   C     C_3   0.211898 0.481270 0.286796 -0.212670
C45   C     C_R   0.961225 0.400876 0.405130 0.481481
C46   C     C_3   0.824850 0.712596 0.565208 -0.173589
C47   C     C_3   0.965617 0.302217 0.257978 -0.381005
C48   C     C_3   0.982066 0.577637 0.776533 -0.283066
C49   C     C_R   0.035550 0.579609 0.608877 0.469356
C50   C     C_R   0.843627 0.410137 0.417318 -0.221938
C51   C     C_R   0.152828 0.574233 0.594957 -0.188510
C52   C     C_R   0.854493 0.540206 0.543104 0.636348
H1    H     H_    0.201796 0.613884 0.646557 0.189854
H2    H     H_    0.813857 0.462274 0.933222 0.153741
H3    H     H_    0.735987 0.420817 0.048974 0.121008
H4    H     H_    0.798319 0.652593 0.984742 0.230439
H5    H     H_    0.729173 0.610175 0.105295 0.233853
H6    H     H_    0.897002 0.517393 0.129767 0.265873
H7    H     H_    0.930448 0.655533 0.108414 0.268549
H8    H     H_    0.968449 0.563030 0.009491 0.261755
H9    H     H_    0.641980 0.136149 0.701302 0.129885
H10   H     H_    0.583230 0.260966 0.687078 0.156778
H11   H     H_    0.732560 0.252646 0.670610 0.190658
H12   H     H_    0.790378 0.360697 0.375865 0.182764
H13   H     H_    0.395031 0.859249 0.750206 0.137460
H14   H     H_    0.438676 0.731572 0.705189 0.154519
H15   H     H_    0.294066 0.748501 0.752613 0.176810
H16   H     H_    0.161876 0.172263 0.402797 0.212764
H17   H     H_    0.232374 0.056143 0.407760 0.144650
H18   H     H_    0.348674 0.272993 0.337785 0.280137
H19   H     H_    0.413742 0.150774 0.329907 0.186579
H20   H     H_    0.283147 0.079393 0.214795 0.255772
H21   H     H_    0.364302 0.197363 0.167677 0.263989
H22   H     H_    0.218846 0.202963 0.222440 0.282895
H23   H     H_    0.232613 0.311085 0.061406 0.163254
H24   H     H_    0.797966 0.844763 0.261968 0.153608
H25   H     H_    0.692237 0.933608 0.297119 0.158405
H26   H     H_    0.655329 0.695010 0.261002 0.231495
H27   H     H_    0.543601 0.778775 0.301550 0.212263
H28   H     H_    0.593807 0.883432 0.148085 0.267639
H29   H     H_    0.568855 0.746463 0.118149 0.275772
H30   H     H_    0.711158 0.805576 0.106123 0.263785
H31   H     H_    0.871615 0.956548 0.497690 0.129427
H32   H     H_    0.788336 0.028557 0.594807 0.126081
H33   H     H_    0.960592 0.118616 0.420278 0.222860
H34   H     H_    0.312983 0.315932 0.940227 0.123593
H35   H     H_    0.865412 0.196898 0.498837 0.281620
H36   H     H_    0.941784 0.132690 0.649605 0.254178
H37   H     H_    0.041216 0.211072 0.563409 0.302427
H38   H     H_    0.046078 0.070582 0.561757 0.288337
H39   H     H_    0.162992 0.067934 0.686355 0.151183
H40   H     H_    0.251725 0.978232 0.730712 0.124432
H41   H     H_    0.031058 0.912613 0.650388 0.208607
H42   H     H_    0.120937 0.826916 0.697013 0.268544
H43   H     H_    0.088505 0.916188 0.863704 0.260609
H44   H     H_    0.958627 0.863667 0.825457 0.283356
H45   H     H_    0.143039 0.473901 0.033640 0.223867
H46   H     H_    0.997640 0.002553 0.816576 0.260584
H47   H     H_    0.269154 0.447006 0.225251 0.234761
H48   H     H_    0.246908 0.562539 0.300184 0.142936
H49   H     H_    0.129062 0.484281 0.261815 0.152590
H50   H     H_    0.758243 0.763430 0.598221 0.170833
H51   H     H_    0.828959 0.711947 0.482972 0.176989
H52   H     H_    0.905672 0.749183 0.583046 0.165661
H53   H     H_    0.946233 0.375027 0.223266 0.151955
H54   H     H_    0.889799 0.246427 0.273190 0.182367
H55   H     H_    0.027968 0.264128 0.202991 0.189563
H56   H     H_    0.221504 0.483438 0.909640 0.220714
H57   H     H_    0.933388 0.619294 0.838955 0.202477
H58   H     H_    0.068025 0.572630 0.794844 0.139372
H59   H     H_    0.939328 0.497912 0.770715 0.164480
H60   H     H_    0.130592 0.309653 0.865136 0.272192
H61   H     H_    0.027852 0.401920 0.907841 0.253045
H62   H     H_    0.051394 0.300285 0.989833 0.260716
N1    N     N_R   0.206090 0.519450 0.517820 -0.165888
N2    N     N_R   0.793910 0.480550 0.482180 -0.159825
O1    O     O_R   0.421240 0.658850 0.504760 -0.576510
O2    O     O_3   0.650360 0.499403 0.951545 -0.657148
O3    O     O_3   0.656810 0.189818 0.555570 -0.555994
O4    O     O_3   0.349312 0.809476 0.613439 -0.546071
O5    O     O_3   0.264815 0.177567 0.508820 -0.613617
O6    O     O_3   0.716018 0.822899 0.404490 -0.651230
O7    O     O_3   0.745876 0.034545 0.450801 -0.610603
O8    O     O_3   0.242014 0.970388 0.577945 -0.603095
O9    O     O_3   0.205075 0.417218 0.371142 -0.562182
O10   O     O_3   0.799674 0.611671 0.606800 -0.550206
O11   O     O_3   0.012743 0.322809 0.345633 -0.578294
O12   O     O_R   0.578760 0.341150 0.495240 -0.572323
O13   O     O_3   0.984513 0.635360 0.689271 -0.590436
O14   O     O_R   0.609960 0.646370 0.493320 -0.574621
O15   O     O_R   0.390040 0.353630 0.506680 -0.557643
O16   O     O_R   0.392060 0.507120 0.646890 -0.633628
O17   O     O_R   0.607940 0.492880 0.353110 -0.628894
O18   O     O_R   0.580780 0.494630 0.635450 -0.562681
O19   O     O_R   0.419220 0.505370 0.364550 -0.589261
O20   O     O_3   0.352155 0.434359 0.044257 -0.690686
Zn1   Zn    Zn3+2 0.373990 0.508340 0.507630 0.990953
Zn2   Zn    Zn3+2 0.626010 0.491660 0.492370 0.991266

loop_
_geom_bond_atom_site_label_1
_geom_bond_atom_site_label_2
_ccdc_geom_bond_type
C15   C18   A    
C48   H58   S    
C29   H11   S    
C12   O15   A    
C38   H31   S    
C42   H41   S    
C50   H12   S    
C41   C42   S    
C35   C36   S    
C43   H46   S    
C39   H35   S    
C26   H3    S    
C3    C49   A    
C46   H50   S    
C26   C27   S    
C17   C23   A    
C14   C21   A    
C36   C37   S    
C16   O7    S    
C10   O20   S    
C6    O17   A    
C38   C39   S    
C44   H47   S    
C9    C13   S    
O12   Zn2   S    
C33   H20   S    
C16   C34   A    
C5    O16   A    
N1    Zn1   S    
C47   H53   S    
C43   H43   S    
C1    C15   S    
C40   H37   S    
C9    C10   D    
C30   H15   S    
C25   H60   S    
C23   C34   A    
C52   N2    A    
C48   H57   S    
O17   Zn2   S    
C9    O2    S    
C37   H29   S    
C5    O18   A    
C22   H23   S    
C26   H2    S    
C32   H19   S    
N2    Zn2   S    
C4    C45   A    
C28   H8    S    
C31   H16   S    
C44   O9    S    
C37   H28   S    
C29   H9    S    
C35   H24   S    
C24   H45   S    
C24   C25   S    
C31   O5    S    
C1    O14   A    
C27   H5    S    
C39   C40   S    
C52   O10   S    
C27   H4    S    
C32   H18   S    
C21   C34   A    
C49   C51   A    
O16   Zn1   S    
C46   H52   S    
C35   H25   S    
C51   N1    A    
C22   O20   S    
C15   C20   A    
C51   H1    S    
C2    C4    A    
C6    O19   A    
O15   Zn1   S    
C25   H61   S    
C29   O3    S    
C2    N1    A    
C17   O8    S    
C31   C32   S    
C20   C23   A    
C31   H17   S    
C3    C52   A    
C47   H54   S    
C41   H40   S    
C43   H44   S    
C1    O1    A    
C30   H14   S    
C18   O6    S    
C24   H56   S    
C33   H21   S    
C41   H39   S    
C12   C14   S    
C47   H55   S    
C22   C24   S    
C48   O13   S    
C42   C43   S    
C39   H33   S    
C3    C4    A    
O14   Zn2   S    
C20   O4    S    
C41   O8    S    
C28   H7    S    
O19   Zn1   S    
C29   H10   S    
C19   O5    S    
C38   H32   S    
C42   H42   S    
C14   C19   A    
C46   O10   S    
C35   O6    S    
O1    Zn1   S    
C26   O2    S    
C36   H27   S    
O18   Zn2   S    
C5    C8    S    
C44   H49   S    
C47   O11   S    
C6    C7    S    
C12   O12   A    
C28   H6    S    
C46   H51   S    
C32   C33   S    
C40   H36   S    
C21   O3    S    
C36   H26   S    
C25   H62   S    
C44   H48   S    
C30   O4    S    
C45   C50   A    
C45   O11   S    
C8    C11   T    
C49   O13   S    
C17   C19   A    
C50   N2    A    
C22   H34   S    
C37   H30   S    
C30   H13   S    
C10   C11   S    
C2    O9    S    
C33   H22   S    
C7    C13   T    
C48   H59   S    
C16   C18   A    
C38   O7    S    
C27   C28   S    
C40   H38   S    
