data_mof_unit_51270.cif
_audit_creation_date              2012-12-10T18:04:04-0500
_audit_creation_method            fapswitch 2.2
_symmetry_space_group_name_H-M    P1
_symmetry_Int_Tables_number       1
_space_group_crystal_system       triclinic
_cell_length_a                    10.806096
_cell_length_b                    9.53023
_cell_length_c                    10.906841
_cell_angle_alpha                 89.97294
_cell_angle_beta                  89.956025
_cell_angle_gamma                 91.629238
_cell_volume                      1122.78189122

loop_
_atom_site_label
_atom_site_type_symbol
_atom_type_description
_atom_site_fract_x
_atom_site_fract_y
_atom_site_fract_z
_atom_type_partial_charge
C1    C     C_R   0.261989 0.498043 0.506044 0.789678
C2    C     C_R   0.737209 0.501817 0.507322 0.798018
C3    C     C_R   0.402378 0.071362 0.453488 -0.005980
C4    C     C_R   0.598473 0.077201 0.545355 0.018410
C5    C     C_R   0.400683 0.922927 0.457072 0.038597
C6    C     C_R   0.599398 0.928752 0.543149 0.050101
C7    C     C_R   0.499280 0.500101 0.262571 0.835595
C8    C     C_R   0.501582 0.500119 0.737380 0.804025
C9    C     C_R   0.518947 0.621824 0.061962 0.008167
C10   C     C_R   0.523366 0.621465 0.938006 0.020270
C11   C     C_R   0.498606 0.499577 0.129853 -0.083171
C12   C     C_R   0.502508 0.499406 0.869984 -0.075548
C13   C     C_R   0.479021 0.373291 0.064201 -0.178434
C14   C     C_R   0.479831 0.373413 0.935477 -0.214263
C15   C     C_3   0.551742 0.775806 0.929450 0.223912
C16   C     C_3   0.542112 0.776602 0.072386 0.237515
C17   C     C_R   0.059929 0.405990 0.597697 0.078268
C18   C     C_R   0.929954 0.419706 0.607107 0.094686
C19   C     C_R   0.870343 0.505819 0.520858 -0.060033
C20   C     C_R   0.127306 0.495761 0.515448 -0.070017
C21   C     C_R   0.938322 0.594049 0.442495 -0.196487
C22   C     C_R   0.065710 0.591905 0.442410 -0.204821
Cu1   Cu    Cu3+1 0.500000 0.640660 0.500000 0.999782
Cu2   Cu    Cu3+1 0.500000 0.359340 0.500000 0.953529
H1    H     H_    0.462177 0.274725 0.111671 0.194448
H2    H     H_    0.462855 0.275026 0.887860 0.194645
H3    H     H_    0.892386 0.663004 0.379131 0.181735
H4    H     H_    0.116414 0.661424 0.380343 0.166590
H5    H     H_    0.325512 0.124506 0.413260 0.132467
H6    H     H_    0.677319 0.134543 0.582862 0.122194
H7    H     H_    0.320348 0.865546 0.422802 0.142214
H8    H     H_    0.679471 0.875761 0.577000 0.149807
N1    N     N_R   0.500000 0.852070 0.500000 -0.152898
N2    N     N_R   0.500000 0.147940 0.500000 -0.167497
O1    O     O_R   0.319640 0.618740 0.499990 -0.583132
O2    O     O_R   0.680360 0.618740 0.500010 -0.574858
O3    O     O_R   0.319620 0.381170 0.499990 -0.596915
O4    O     O_R   0.680380 0.381170 0.500010 -0.597505
O5    O     O_R   0.499990 0.618810 0.319660 -0.545603
O6    O     O_R   0.500010 0.618810 0.680340 -0.542444
O7    O     O_R   0.499960 0.381240 0.319650 -0.578970
O8    O     O_R   0.500040 0.381240 0.680350 -0.604617
I1    I     I_    0.730997 0.818625 0.849737 -0.403942
I2    I     I_    0.383206 0.875476 0.149256 -0.362980
I3    I     I_    0.413981 0.885358 0.828732 -0.360277
I4    I     I_    0.706097 0.827192 0.177736 -0.328418
C23   C     C_3   0.121500 0.287374 0.665851 -0.403385
C24   C     C_3   0.099231 0.149723 0.594915 -0.362433
C25   C     C_3   0.158142 0.027093 0.659344 -0.764334
H9    H     H_    0.258737 0.049518 0.668607 0.274564
H10   H     H_    0.116492 0.010772 0.751567 0.277342
H11   H     H_    0.143666 0.929938 0.604387 0.243432
H12   H     H_    0.998636 0.125629 0.584821 0.220096
H13   H     H_    0.138116 0.160559 0.501191 0.223874
H14   H     H_    0.221619 0.308252 0.680427 0.216086
H15   H     H_    0.085338 0.275404 0.760362 0.205950
C26   C     C_3   0.857876 0.351491 0.713661 -0.450491
C27   C     C_3   0.882527 0.431385 0.833849 -0.357270
C28   C     C_3   0.833199 0.348814 0.944264 -0.761596
H16   H     H_    0.733435 0.321922 0.932332 0.267444
H17   H     H_    0.884841 0.250485 0.955357 0.263141
H18   H     H_    0.844978 0.413024 0.028603 0.252909
H19   H     H_    0.982850 0.454448 0.847417 0.230591
H20   H     H_    0.835696 0.533152 0.829564 0.251692
H21   H     H_    0.756657 0.350470 0.699976 0.212607
H22   H     H_    0.880543 0.239383 0.723373 0.213937

loop_
_geom_bond_atom_site_label_1
_geom_bond_atom_site_label_2
_ccdc_geom_bond_type
C24   H13   S    
Cu1   N1    S    
Cu2   O4    S    
Cu1   Cu2   S    
C11   C13   A    
C9    C10   A    
C2    O4    A    
C18   C26   S    
C6    H8    S    
C23   C24   S    
C6    N1    A    
C1    O3    A    
C26   H22   S    
C8    C12   S    
C25   H11   S    
Cu2   O3    S    
C21   H3    S    
C15   I1    S    
C28   H16   S    
C22   H4    S    
C21   C22   A    
C14   H2    S    
C7    C11   S    
Cu2   O7    S    
C9    C11   A    
C13   H1    S    
C26   C27   S    
C8    O6    A    
C10   C12   A    
Cu1   O5    S    
C4    C6    A    
C24   C25   S    
C19   C21   A    
C9    C16   S    
C8    O8    A    
C17   C18   A    
Cu1   O1    S    
C10   C15   S    
C7    O7    A    
C27   H20   S    
C24   H12   S    
C4    N2    A    
C28   H17   S    
C5    H7    S    
C20   C22   A    
C2    O2    A    
Cu1   O6    S    
Cu1   O2    S    
C5    N1    A    
C17   C23   S    
C12   C14   A    
C17   C20   A    
Cu2   O8    S    
C1    O1    A    
C23   H14   S    
C25   H9    S    
C16   I4    S    
C27   H19   S    
C3    H5    S    
C16   I2    S    
C18   C19   A    
C1    C20   S    
C7    O5    A    
C28   H18   S    
C3    N2    A    
C3    C5    A    
C2    C19   S    
C13   C14   A    
C27   C28   S    
C4    H6    S    
C15   C16   S    
C26   H21   S    
C23   H15   S    
C25   H10   S    
C15   I3    S    
Cu2   N2    S    
