data_mof_unit_59314.cif
_audit_creation_date              2013-03-05T15:54:13-0500
_audit_creation_method            fapswitch 2.2
_symmetry_space_group_name_H-M    P1
_symmetry_Int_Tables_number       1
_space_group_crystal_system       triclinic
_cell_length_a                    10.505117
_cell_length_b                    10.665383
_cell_length_c                    9.93312
_cell_angle_alpha                 89.789491
_cell_angle_beta                  89.90326
_cell_angle_gamma                 91.120362
_cell_volume                      1112.69565914

loop_
_atom_site_label
_atom_site_type_symbol
_atom_site_description
_atom_site_fract_x
_atom_site_fract_y
_atom_site_fract_z
_atom_type_partial_charge
O1    O     O_R   0.500000 0.316780 0.614690 -0.639298
O2    O     O_R   0.499990 0.316750 0.385360 -0.635637
C1    C     C_R   0.506188 0.260761 0.500399 0.861507
O3    O     O_R   0.313960 0.499980 0.614650 -0.632924
O4    O     O_R   0.313940 0.499960 0.385310 -0.637999
C2    C     C_R   0.257529 0.499792 0.500227 0.881901
Zn1   Zn    Zn3+2 0.500010 0.500020 0.653130 0.951259
Zn2   Zn    Zn3+2 0.499990 0.499980 0.346870 0.949515
O5    O     O_R   0.500010 0.683250 0.614640 -0.612999
O6    O     O_R   0.500000 0.683220 0.385310 -0.615221
O7    O     O_R   0.686060 0.500040 0.614690 -0.627755
O8    O     O_R   0.686040 0.500020 0.385350 -0.618530
C3    C     C_R   0.506934 0.739380 0.499888 0.870396
C4    C     C_R   0.742565 0.499367 0.499714 0.850788
C5    C     C_3   0.040556 0.509655 0.627616 -0.076978
C6    C     C_3   0.956151 0.401208 0.573299 -0.136181
H1    H     H_    0.916721 0.321612 0.633426 0.160716
H2    H     H_    0.077311 0.518331 0.731992 0.175103
C7    C     C_3   0.877812 0.498517 0.498682 -0.018340
C8    C     C_3   0.959714 0.606846 0.552621 -0.149064
C9    C     C_3   0.044248 0.596479 0.426110 -0.174262
C10   C     C_3   0.959762 0.488124 0.371837 -0.130916
C11   C     C_3   0.040781 0.390920 0.446668 -0.159330
C12   C     C_3   0.122454 0.499317 0.500873 -0.007528
H3    H     H_    0.922480 0.695483 0.593548 0.182157
H4    H     H_    0.084888 0.675926 0.366437 0.163475
H5    H     H_    0.923023 0.479279 0.267485 0.168355
H6    H     H_    0.078787 0.303254 0.403640 0.149998
H7    H     H_    0.374211 0.110736 0.345664 0.153163
C13   C     C_R   0.690511 0.133155 0.671943 -0.263199
H8    H     H_    0.698974 0.234120 0.671273 0.177382
C14   C     C_R   0.769238 0.069316 0.760452 -0.169749
H9    H     H_    0.831479 0.122675 0.826591 0.204305
C15   C     C_R   0.769563 0.938310 0.762038 0.370730
C16   C     C_R   0.691928 0.872485 0.670710 -0.306839
H10   H     H_    0.699961 0.771906 0.667456 0.180073
C17   C     C_R   0.605205 0.935832 0.586353 0.061665
C18   C     C_R   0.604314 0.067367 0.587186 0.112701
C19   C     C_R   0.518182 0.128551 0.500692 -0.070947
C20   C     C_R   0.439551 0.062925 0.411847 -0.178127
H11   H     H_    0.375285 0.885104 0.344611 0.167400
C21   C     C_R   0.440252 0.935121 0.411138 -0.181457
C22   C     C_R   0.519484 0.871973 0.499382 -0.078825
H12   H     H_    0.642012 0.640517 0.124121 0.167787
C23   C     C_R   0.334053 0.336356 0.140233 -0.221343
H13   H     H_    0.327901 0.331129 0.246948 0.215544
C24   C     C_R   0.252883 0.255062 0.070746 -0.281922
H14   H     H_    0.190006 0.192861 0.127477 0.194065
C25   C     C_R   0.252149 0.254147 0.930475 0.327649
C26   C     C_R   0.334292 0.336466 0.860996 -0.245104
H15   H     H_    0.330695 0.332736 0.754447 0.240073
C27   C     C_R   0.418280 0.419358 0.928281 0.114179
C28   C     C_R   0.418263 0.419373 0.072541 0.189910
N1    N     N_R   0.498800 0.498800 0.142780 -0.122286
C29   C     C_R   0.578105 0.577268 0.070990 -0.090405
H16   H     H_    0.641392 0.640606 0.874107 0.182912
C30   C     C_R   0.577945 0.577275 0.928032 -0.072171
N2    N     N_R   0.498760 0.498720 0.857170 -0.121015
N3    N     N_R   0.847124 0.872453 0.857252 0.214047
O9    O     O_R   0.888003 0.928551 0.965392 -0.339597
O10   O     O_R   0.868694 0.753541 0.842809 -0.449537
N4    N     N_R   0.168669 0.169436 0.858414 0.207408
O11   O     O_R   0.104092 0.082669 0.922525 -0.344608
O12   O     O_R   0.158093 0.176597 0.728040 -0.436070

loop_
_geom_bond_atom_site_label_1
_geom_bond_atom_site_label_2
_geom_bond_distance
_ccdc_geom_bond_type
C17   C22   1.415651 A    
C5    H2    1.110501 S    
C26   C27   1.408043 A    
C11   C12   1.526408 S    
N4    O11   1.300687 A    
O4    Zn2   1.990787 S    
H11   C21   1.084857 S    
Zn1   N2    2.026769 S    
C24   H14   1.082966 S    
Zn2   O8    1.992127 S    
C2    C12   1.418888 S    
C14   H9    1.082881 S    
C7    C8    1.526248 S    
C20   C21   1.363288 A    
C26   H15   1.059974 S    
C23   C28   1.407703 A    
N3    O9    1.300943 A    
C24   C25   1.393434 A    
O1    Zn1   1.992651 S    
C28   N1    1.377857 A    
H16   C30   1.079782 S    
Zn1   O7    1.990788 S    
H12   C29   1.081853 S    
C30   N2    1.366904 A    
C17   C18   1.403147 A    
C27   N2    1.376864 A    
O3    Zn1   1.992127 S    
O4    C2    1.285234 A    
H7    C20   1.084486 S    
C9    C10   1.542705 S    
C5    C12   1.529185 S    
C16   C17   1.418118 A    
C9    H4    1.110363 S    
O8    C4    1.282773 A    
O2    C1    1.289701 A    
C6    C11   1.544563 S    
C10   C11   1.543589 S    
C10   H5    1.110375 S    
C29   C30   1.420017 A    
C6    C7    1.527594 S    
C13   H8    1.078756 S    
C15   C16   1.402049 A    
O7    C4    1.286339 A    
N3    O10   1.301088 A    
C11   H6    1.110517 S    
C21   C22   1.390953 A    
C9    C12   1.526440 S    
C1    C19   1.418142 S    
C5    C6    1.543120 S    
C13   C14   1.393049 A    
C3    C22   1.417709 S    
C7    C10   1.530371 S    
C18   C19   1.415727 A    
C8    C9    1.543081 S    
C13   C18   1.415315 A    
O3    C2    1.282766 A    
C25   C26   1.398443 A    
C8    H3    1.108465 S    
C23   C24   1.390226 A    
Zn2   N1    2.027393 S    
C19   C20   1.391191 A    
Zn1   O5    1.989886 S    
O5    C3    1.286828 A    
N1    C29   1.367224 A    
C6    H1    1.109342 S    
N4    O12   1.302047 A    
C25   N4    1.439996 S    
C23   H13   1.063061 S    
C15   N3    1.439381 S    
C4    C7    1.421012 S    
Zn2   O6    1.992651 S    
O2    Zn2   1.989886 S    
C16   H10   1.078272 S    
C27   C28   1.432950 A    
C5    C8    1.543228 S    
O1    C1    1.286959 A    
O6    C3    1.289557 A    
C14   C15   1.397336 A    
