data_mof_unit_12005.cif
_audit_creation_date              2012-12-10T16:38:08-0500
_audit_creation_method            fapswitch 2.2
_symmetry_space_group_name_H-M    P1
_symmetry_Int_Tables_number       1
_space_group_crystal_system       triclinic
_cell_length_a                    28.06075
_cell_length_b                    18.392203
_cell_length_c                    17.04092
_cell_angle_alpha                 90.202341
_cell_angle_beta                  60.734338
_cell_angle_gamma                 90.566067
_cell_volume                      7671.87167199

loop_
_atom_site_label
_atom_site_type_symbol
_atom_type_description
_atom_site_fract_x
_atom_site_fract_y
_atom_site_fract_z
_atom_type_partial_charge
Br1   Br    Br    0.529274 0.294512 0.117725 -0.531427
Br2   Br    Br    0.470539 0.705478 0.882526 -0.516378
Br3   Br    Br    0.472150 0.295192 0.880361 -0.531525
Br4   Br    Br    0.528518 0.705613 0.118589 -0.539124
Br5   Br    Br    0.029396 0.794564 0.117578 -0.515733
Br6   Br    Br    0.970439 0.205575 0.882694 -0.514880
Br7   Br    Br    0.971144 0.792951 0.882768 -0.540781
Br8   Br    Br    0.029705 0.208313 0.115345 -0.539868
C1    C     C_R   0.705811 0.277169 0.673470 0.909466
C2    C     C_R   0.093571 0.501312 0.520093 0.071222
C3    C     C_R   0.192576 0.210849 0.905252 0.036261
C4    C     C_R   0.607831 0.298841 0.048705 0.271714
C5    C     C_R   0.391985 0.700926 0.951507 0.271456
C6    C     C_R   0.393623 0.297773 0.949395 0.271613
C7    C     C_R   0.607036 0.702059 0.049553 0.271670
C8    C     C_R   0.107950 0.799015 0.048586 0.271630
C9    C     C_R   0.891885 0.200904 0.951646 0.271681
C10   C     C_R   0.892649 0.797504 0.951487 0.271693
C11   C     C_R   0.108179 0.202741 0.046944 0.271111
C12   C     C_R   0.635718 0.277808 0.094192 -0.234839
C13   C     C_R   0.422005 0.002090 0.428905 0.072035
C14   C     C_R   0.364063 0.721821 0.906047 -0.233788
C15   C     C_R   0.365656 0.277163 0.903547 -0.233920
C16   C     C_R   0.635168 0.722476 0.095086 -0.234859
C17   C     C_R   0.135859 0.778079 0.094059 -0.233712
C18   C     C_R   0.863957 0.221804 0.906206 -0.233833
C19   C     C_R   0.864358 0.777133 0.906299 -0.235581
C20   C     C_R   0.136527 0.223242 0.091904 -0.235972
C21   C     C_R   0.775175 0.277929 0.765470 -0.181678
C22   C     C_R   0.224682 0.721861 0.234774 -0.181505
C23   C     C_R   0.226647 0.269370 0.231964 -0.192471
C24   C     C_R   0.597633 0.000850 0.500506 0.066271
C25   C     C_R   0.773951 0.729387 0.766773 -0.192142
C26   C     C_R   0.275242 0.777919 0.765337 -0.181951
C27   C     C_R   0.724537 0.221497 0.234952 -0.182012
C28   C     C_R   0.725431 0.775111 0.234476 -0.187984
C29   C     C_R   0.276010 0.220100 0.763289 -0.182717
C30   C     C_R   0.804102 0.261852 0.810205 -0.206462
C31   C     C_R   0.195721 0.737896 0.190068 -0.206710
C32   C     C_R   0.197913 0.253160 0.187153 -0.208280
C33   C     C_R   0.802882 0.745494 0.811289 -0.206855
C34   C     C_R   0.304186 0.761845 0.810048 -0.207041
C35   C     C_R   0.117993 0.383368 0.447899 -0.237230
C36   C     C_R   0.695550 0.237444 0.190244 -0.207221
C37   C     C_R   0.696040 0.759848 0.190333 -0.205915
C38   C     C_R   0.305431 0.235694 0.807664 -0.205628
C39   C     C_R   0.070275 0.104753 0.937950 0.961081
C40   C     C_R   0.929961 0.895055 0.061777 0.960316
C41   C     C_R   0.929311 0.104280 0.062482 0.958991
C42   C     C_R   0.070650 0.895683 0.937561 0.958247
C43   C     C_R   0.570045 0.604963 0.938282 0.959871
C44   C     C_R   0.430125 0.394884 0.061524 0.959977
C45   C     C_R   0.429332 0.604298 0.062460 0.958873
C46   C     C_R   0.882456 0.616634 0.551085 -0.237516
C47   C     C_R   0.570620 0.395656 0.937594 0.958407
C48   C     C_R   0.542156 0.130680 0.512859 0.099277
C49   C     C_R   0.478837 0.872649 0.409807 0.109541
C50   C     C_R   0.464980 0.133922 0.453491 0.101337
C51   C     C_R   0.570600 0.874457 0.435123 0.111319
C52   C     C_R   0.023179 0.620874 0.578573 0.107709
C53   C     C_R   0.977133 0.379059 0.420583 0.107610
C54   C     C_R   0.928700 0.617962 0.561257 0.117326
C55   C     C_R   0.071755 0.382053 0.437627 0.117221
C56   C     C_R   0.518267 0.196694 0.510338 -0.205925
C57   C     C_R   0.929260 0.377599 0.414117 -0.221560
C58   C     C_R   0.509577 0.809434 0.395113 -0.186241
C59   C     C_R   0.481512 0.198735 0.477265 -0.202527
C60   C     C_R   0.555697 0.810629 0.406355 -0.217342
C61   C     C_R   0.986726 0.679131 0.610213 -0.188771
C62   C     C_R   0.013676 0.320887 0.388722 -0.188616
C63   C     C_R   0.939755 0.677624 0.601635 -0.206506
C64   C     C_R   0.060740 0.322465 0.397080 -0.206126
C65   C     C_R   0.487605 0.067746 0.458134 0.033718
C66   C     C_R   0.540623 0.937844 0.448851 0.037178
C67   C     C_R   0.528571 0.066737 0.482759 0.032039
C68   C     C_R   0.070934 0.622264 0.585319 -0.221666
C69   C     C_R   0.496016 0.937572 0.432748 0.029842
C70   C     C_R   0.964781 0.559326 0.529476 0.033633
C71   C     C_R   0.035611 0.440641 0.469528 0.033584
C72   C     C_R   0.011789 0.560482 0.538859 0.028256
C73   C     C_R   0.988565 0.439464 0.460215 0.028314
C74   C     C_R   0.953315 0.499037 0.489773 -0.047842
C75   C     C_R   0.047036 0.500909 0.509316 -0.047888
C76   C     C_R   0.469105 0.002544 0.438373 -0.048855
C77   C     C_R   0.555322 0.001661 0.478185 -0.048855
C78   C     C_R   0.892820 0.436453 0.445664 0.054920
C79   C     C_R   0.615008 0.875562 0.450323 -0.244970
C80   C     C_R   0.107380 0.563446 0.553769 0.054855
C81   C     C_R   0.127281 0.440074 0.495237 0.049956
C82   C     C_R   0.873046 0.559900 0.503958 0.050140
C83   C     C_R   0.398786 0.935347 0.422674 0.051282
C84   C     C_R   0.611644 0.064918 0.530912 0.057678
C85   C     C_R   0.627117 0.936638 0.489453 0.057111
C86   C     C_R   0.396829 0.068283 0.430468 0.052131
C87   C     C_R   0.842100 0.435641 0.446238 -0.115392
C88   C     C_R   0.158020 0.564286 0.553405 -0.115375
C89   C     C_R   0.168946 0.438113 0.519556 -0.110865
C90   C     C_R   0.424680 0.133773 0.428437 -0.222269
C91   C     C_R   0.831259 0.561864 0.479916 -0.110025
C92   C     C_R   0.344591 0.935226 0.435992 -0.112828
C93   C     C_R   0.658620 0.064243 0.543072 -0.109036
C94   C     C_R   0.667624 0.936678 0.517604 -0.104098
C95   C     C_R   0.343859 0.066123 0.438624 -0.108155
C96   C     C_R   0.816110 0.499871 0.452015 -0.281880
C97   C     C_R   0.184028 0.500086 0.547597 -0.281828
C98   C     C_R   0.319744 0.000332 0.438063 -0.287397
C99   C     C_R   0.682038 0.999676 0.544617 -0.295787
C100  C     C_R   0.430498 0.871780 0.404591 -0.223402
C101  C     C_R   0.294155 0.722780 0.326577 0.905468
C102  C     C_R   0.579916 0.127860 0.543668 -0.225298
C103  C     C_R   0.720907 0.269247 0.953874 0.023643
C104  C     C_R   0.278886 0.730402 0.046380 0.023783
C105  C     C_R   0.280585 0.266319 0.043867 0.022490
C106  C     C_R   0.720302 0.732483 0.954672 0.021856
C107  C     C_R   0.221027 0.769420 0.953729 0.023798
C108  C     C_R   0.778748 0.230182 0.046540 0.023799
C109  C     C_R   0.778984 0.769300 0.046712 0.022001
C110  C     C_R   0.222137 0.229129 0.951486 0.022507
C111  C     C_R   0.777954 0.254850 0.904802 0.082545
C112  C     C_R   0.294828 0.276171 0.325760 0.886257
C113  C     C_R   0.221844 0.744848 0.095469 0.082581
C114  C     C_R   0.223580 0.250881 0.092743 0.088449
C115  C     C_R   0.777331 0.748028 0.905636 0.088023
C116  C     C_R   0.278064 0.754946 0.904647 0.082751
C117  C     C_R   0.721688 0.244523 0.095636 0.082416
C118  C     C_R   0.721783 0.754675 0.095931 0.085870
C119  C     C_R   0.279437 0.243005 0.902191 0.082215
C120  C     C_R   0.806999 0.235068 0.951355 -0.005875
C121  C     C_R   0.192794 0.764651 0.048918 -0.005877
C122  C     C_R   0.193986 0.233676 0.046493 -0.004768
C123  C     C_R   0.705328 0.723557 0.673995 0.901814
C124  C     C_R   0.806999 0.765583 0.951727 -0.004925
C125  C     C_R   0.307118 0.735179 0.951194 -0.005835
C126  C     C_R   0.692651 0.264377 0.049068 -0.005193
C127  C     C_R   0.692283 0.735875 0.049756 -0.005270
C128  C     C_R   0.308711 0.262745 0.948653 -0.005688
C129  C     C_R   0.636279 0.309417 0.954571 0.002220
C130  C     C_R   0.363558 0.690362 0.045619 0.000516
C131  C     C_R   0.365190 0.306999 0.043720 0.000319
C132  C     C_R   0.635420 0.692355 0.955384 0.001742
C133  C     C_R   0.136379 0.809550 0.954462 0.000414
C134  C     C_R   0.205819 0.777174 0.673454 0.904005
C135  C     C_R   0.863455 0.190252 0.045738 0.000373
C136  C     C_R   0.864282 0.808064 0.045399 0.001990
C137  C     C_R   0.136579 0.191188 0.953272 0.002068
C138  C     C_R   0.611739 0.338106 0.904415 -0.089723
C139  C     C_R   0.388155 0.661764 0.095711 -0.089846
C140  C     C_R   0.389653 0.335933 0.094100 -0.091173
C141  C     C_R   0.610743 0.663589 0.905344 -0.091926
C142  C     C_R   0.111803 0.838180 0.904345 -0.089368
C143  C     C_R   0.888081 0.161679 0.095790 -0.089711
C144  C     C_R   0.889225 0.836549 0.095030 -0.091766
C145  C     C_R   0.794106 0.222695 0.326628 0.901435
C146  C     C_R   0.111381 0.162771 0.904111 -0.090675
C147  C     C_R   0.634363 0.323085 0.814268 -0.265714
C148  C     C_R   0.365557 0.676805 0.185836 -0.267477
C149  C     C_R   0.367095 0.320526 0.184194 -0.265315
C150  C     C_R   0.633247 0.678854 0.815274 -0.260555
C151  C     C_R   0.134402 0.823125 0.814219 -0.267618
C152  C     C_R   0.865477 0.176681 0.185918 -0.267783
C153  C     C_R   0.866792 0.821338 0.185081 -0.258910
C154  C     C_R   0.133853 0.177529 0.814009 -0.259489
C155  C     C_R   0.686383 0.296027 0.767615 -0.135761
C156  C     C_R   0.794500 0.776862 0.326265 0.904467
C157  C     C_R   0.313529 0.703834 0.232506 -0.133341
C158  C     C_R   0.314903 0.293041 0.230897 -0.130027
C159  C     C_R   0.685460 0.706238 0.768492 -0.136118
C160  C     C_R   0.186422 0.796065 0.767559 -0.133544
C161  C     C_R   0.813435 0.203662 0.232607 -0.132558
C162  C     C_R   0.814342 0.794747 0.232055 -0.136880
C163  C     C_R   0.186512 0.203357 0.766775 -0.142449
C164  C     C_R   0.718202 0.286990 0.812123 0.084558
C165  C     C_R   0.281659 0.712792 0.188074 0.084732
C166  C     C_R   0.283330 0.282282 0.185930 0.092333
C167  C     C_R   0.206018 0.222162 0.673112 0.927009
C168  C     C_R   0.717236 0.716679 0.813076 0.091094
C169  C     C_R   0.218271 0.787050 0.812018 0.085087
C170  C     C_R   0.781532 0.212539 0.188219 0.084960
C171  C     C_R   0.782339 0.785420 0.187821 0.088737
C172  C     C_R   0.218834 0.211806 0.810476 0.083088
C173  C     C_R   0.691251 0.129118 0.533380 0.902489
C174  C     C_R   0.309364 0.870331 0.462441 0.899006
C175  C     C_R   0.308869 0.129646 0.463820 0.906650
C176  C     C_R   0.695867 0.872099 0.519010 0.910630
C177  C     C_R   0.190724 0.629833 0.537203 0.901023
C178  C     C_R   0.906730 0.498630 0.479112 0.071123
C179  C     C_R   0.809307 0.370135 0.462690 0.901008
C180  C     C_R   0.803595 0.627624 0.481536 0.910383
C181  C     C_R   0.196493 0.372362 0.518223 0.914014
C182  C     C_R   0.691813 0.288435 0.907075 0.034188
C183  C     C_R   0.308011 0.711286 0.093142 0.034318
C184  C     C_R   0.309715 0.285014 0.090972 0.033262
C185  C     C_R   0.690994 0.713958 0.907902 0.034408
C186  C     C_R   0.191912 0.788566 0.906954 0.034166
C187  C     C_R   0.807883 0.211078 0.093285 0.034177
C188  C     C_R   0.808512 0.787450 0.093118 0.034641
H1    H     H_    0.087886 0.276395 0.373748 0.131337
H2    H     H_    0.219089 0.499617 0.558306 0.198152
H3    H     H_    0.278672 0.999761 0.447347 0.198840
H4    H     H_    0.714900 0.999391 0.560917 0.195743
H5    H     H_    0.146697 0.340328 0.416783 0.156806
H6    H     H_    0.853835 0.659692 0.582206 0.156708
H7    H     H_    0.921572 0.331579 0.381903 0.177470
H8    H     H_    0.078531 0.668221 0.617731 0.177602
H9    H     H_    0.639219 0.827680 0.429186 0.168141
H10   H     H_    0.415332 0.185554 0.410051 0.190943
H11   H     H_    0.418591 0.821592 0.385456 0.183813
H12   H     H_    0.912713 0.723799 0.624660 0.131383
H13   H     H_    0.583425 0.175316 0.578068 0.187279
H14   H     H_    0.612539 0.337241 0.778708 0.209954
H15   H     H_    0.387425 0.662725 0.221351 0.208808
H16   H     H_    0.388900 0.335352 0.219866 0.209378
H17   H     H_    0.611318 0.664194 0.779753 0.210956
H18   H     H_    0.112549 0.837234 0.778689 0.208894
H19   H     H_    0.887370 0.162645 0.221405 0.208465
H20   H     H_    0.888951 0.835486 0.220376 0.211389
H21   H     H_    0.111449 0.163816 0.778992 0.211108
H22   H     H_    0.610732 0.270533 0.165623 0.171386
H23   H     H_    0.005688 0.274036 0.358003 0.160024
H24   H     H_    0.389048 0.729105 0.834626 0.172630
H25   H     H_    0.390476 0.271348 0.831897 0.170069
H26   H     H_    0.610253 0.729357 0.166555 0.169416
H27   H     H_    0.110879 0.770840 0.165490 0.172719
H28   H     H_    0.888949 0.229169 0.834802 0.172705
H29   H     H_    0.889352 0.768254 0.835200 0.167990
H30   H     H_    0.111520 0.233279 0.162752 0.168419
H31   H     H_    0.799046 0.285875 0.693657 0.177137
H32   H     H_    0.200840 0.713973 0.306602 0.177387
H33   H     H_    0.202345 0.273242 0.303523 0.160681
H34   H     H_    0.994725 0.726002 0.640888 0.160039
H35   H     H_    0.798069 0.725536 0.695219 0.159264
H36   H     H_    0.299106 0.785800 0.693516 0.177296
H37   H     H_    0.700726 0.213605 0.306797 0.176672
H38   H     H_    0.701914 0.780801 0.305910 0.156603
H39   H     H_    0.299467 0.212134 0.691439 0.174120
H40   H     H_    0.847376 0.255173 0.767616 0.145981
H41   H     H_    0.152447 0.744576 0.232664 0.146035
H42   H     H_    0.155262 0.241263 0.229568 0.133886
H43   H     H_    0.845574 0.756965 0.768751 0.133697
H44   H     H_    0.347451 0.755091 0.767445 0.145857
H45   H     H_    0.578646 0.761052 0.395415 0.134724
H46   H     H_    0.652254 0.243973 0.232833 0.145978
H47   H     H_    0.652841 0.752005 0.233195 0.139030
H48   H     H_    0.348884 0.241516 0.765065 0.144783
H49   H     H_    0.464008 0.250295 0.474568 0.144403
H50   H     H_    0.497664 0.759066 0.376001 0.155856
H51   H     H_    0.528992 0.246819 0.531810 0.146786
H52   H     H_    0.780982 0.500344 0.441487 0.198067
O1    O     O_R   0.746490 0.236330 0.638080 -0.634968
O2    O     O_R   0.325830 0.813840 0.483730 -0.646409
O3    O     O_R   0.325830 0.186160 0.483730 -0.657137
O4    O     O_R   0.674170 0.813840 0.516270 -0.643638
O5    O     O_R   0.174170 0.686160 0.516270 -0.642627
O6    O     O_R   0.825830 0.313840 0.483730 -0.642732
O7    O     O_R   0.825830 0.686160 0.483730 -0.635753
O8    O     O_R   0.174170 0.313840 0.516270 -0.634735
O9    O     O_R   0.739960 0.127620 0.525000 -0.620193
O10   O     O_R   0.260040 0.872380 0.475000 -0.624019
O11   O     O_R   0.260040 0.127620 0.475000 -0.627614
O12   O     O_R   0.253510 0.763670 0.361920 -0.635762
O13   O     O_R   0.739960 0.872380 0.525000 -0.625609
O14   O     O_R   0.239960 0.627620 0.525000 -0.623314
O15   O     O_R   0.760040 0.372380 0.475000 -0.623633
O16   O     O_R   0.760040 0.627620 0.475000 -0.628151
O17   O     O_R   0.239960 0.372380 0.525000 -0.627126
O18   O     O_R   0.680700 0.294870 0.629350 -0.619854
O19   O     O_R   0.319300 0.705130 0.370650 -0.624258
O20   O     O_R   0.319300 0.294870 0.370650 -0.626810
O21   O     O_R   0.680700 0.705130 0.629350 -0.613453
O22   O     O_R   0.180700 0.794870 0.629350 -0.623079
O23   O     O_R   0.253510 0.236330 0.361920 -0.648517
O24   O     O_R   0.819300 0.205130 0.370650 -0.623674
O25   O     O_R   0.819300 0.794870 0.370650 -0.612922
O26   O     O_R   0.180700 0.205130 0.629350 -0.610250
O27   O     O_R   0.062020 0.072840 0.007170 -0.598217
O28   O     O_R   0.937980 0.927160 0.992830 -0.598110
O29   O     O_R   0.937980 0.072840 0.992830 -0.597905
O30   O     O_R   0.062020 0.927160 0.007170 -0.598214
O31   O     O_R   0.562020 0.572840 0.007170 -0.597990
O32   O     O_R   0.437980 0.427160 0.992830 -0.597920
O33   O     O_R   0.437980 0.572840 0.992830 -0.597727
O34   O     O_R   0.746490 0.763670 0.638080 -0.644467
O35   O     O_R   0.562020 0.427160 0.007170 -0.597734
O36   O     O_R   0.947860 0.073950 0.109290 -0.604294
O37   O     O_R   0.052140 0.926050 0.890710 -0.603853
O38   O     O_R   0.052140 0.073950 0.890710 -0.605002
O39   O     O_R   0.947860 0.926050 0.109290 -0.605106
O40   O     O_R   0.447860 0.573950 0.109290 -0.603465
O41   O     O_R   0.552140 0.426050 0.890710 -0.603118
O42   O     O_R   0.552140 0.573950 0.890710 -0.604795
O43   O     O_R   0.447860 0.426050 0.109290 -0.604990
O44   O     O_R   0.246490 0.736330 0.638080 -0.636405
O45   O     O_R   0.753510 0.263670 0.361920 -0.637416
O46   O     O_R   0.753510 0.736330 0.361920 -0.643345
O47   O     O_R   0.246490 0.263670 0.638080 -0.632254
O48   O     O_R   0.674170 0.186160 0.516270 -0.651085
Zn1   Zn    Zn3+2 0.792340 0.208750 0.507670 0.959446
Zn2   Zn    Zn3+2 0.494040 0.500000 0.919480 1.037261
Zn3   Zn    Zn3+2 0.005960 0.000000 0.080520 1.035842
Zn4   Zn    Zn3+2 0.994040 0.000000 0.919480 1.036405
Zn5   Zn    Zn3+2 0.207660 0.791250 0.492330 0.957964
Zn6   Zn    Zn3+2 0.207660 0.208750 0.492330 0.963242
Zn7   Zn    Zn3+2 0.792340 0.791250 0.507670 0.965015
Zn8   Zn    Zn3+2 0.292340 0.708750 0.507670 0.953289
Zn9   Zn    Zn3+2 0.707660 0.291250 0.492330 0.952460
Zn10  Zn    Zn3+2 0.707660 0.708750 0.492330 0.959518
Zn11  Zn    Zn3+2 0.292340 0.291250 0.507670 0.950010
Zn12  Zn    Zn3+2 0.505960 0.500000 0.080520 1.033956

loop_
_geom_bond_atom_site_label_1
_geom_bond_atom_site_label_2
_ccdc_geom_bond_type
C93   C99   A    
O32   Zn2   S    
C173  O48   A    
C26   C34   A    
O5    Zn5   S    
C112  C158  S    
C150  H17   S    
O13   Zn7   S    
C35   C81   A    
O14   Zn8   S    
C116  C125  A    
C95   C175  S    
C33   H43   S    
C99   H4    S    
C173  O9    A    
C109  C124  A    
C79   H9    S    
C108  C187  A    
C105  C114  A    
O17   Zn11  S    
C35   H5    S    
C83   C92   A    
C109  C118  A    
C37   H47   S    
O8    Zn6   S    
C89   C97   A    
C111  C120  A    
C27   C170  A    
C135  C143  A    
C154  H21   S    
C151  H18   S    
C47   O35   A    
C65   C67   A    
C28   C171  A    
C72   C75   A    
O26   Zn6   S    
O27   Zn3   S    
C150  C159  A    
C131  C140  A    
C158  C166  A    
C142  C151  A    
C41   C143  S    
C35   C55   A    
C22   H32   S    
C129  C138  A    
C119  C128  A    
O15   Zn9   S    
C131  C184  A    
C34   H44   S    
C82   C178  A    
C164  C182  A    
C152  H19   S    
C165  C183  A    
C134  O22   A    
C70   C74   A    
C57   H7    S    
C4    C12   A    
C43   O31   A    
C155  C164  A    
C30   C111  A    
C18   H28   S    
C102  H13   S    
C47   O41   A    
C58   H50   S    
C8    C17   A    
C29   C172  A    
O36   Zn3   S    
C88   C177  S    
O33   Zn2   S    
O46   Zn10  S    
C32   C114  A    
C41   O36   A    
C92   C98   A    
O6    Zn1   S    
C104  C183  A    
C30   H40   S    
C24   C84   A    
O2    Zn8   S    
C23   H33   S    
C1    C155  S    
C20   C122  A    
O7    Zn7   S    
C51   C79   A    
C78   C87   A    
C134  C160  S    
C53   C57   A    
C50   C59   A    
O3    Zn11  S    
O43   Zn12  S    
C90   H10   S    
C26   C169  A    
C12   C126  A    
C160  C169  A    
C115  C124  A    
C156  C162  S    
C130  C183  A    
C50   C90   A    
C49   C58   A    
C36   H46   S    
C2    C80   A    
C15   C128  A    
C46   C82   A    
C40   O39   A    
C70   C72   A    
C28   H38   S    
C103  C111  A    
O40   Zn12  S    
C32   H42   S    
C64   H1    S    
C2    C81   A    
C66   C69   A    
C21   C30   A    
C48   C56   A    
C168  C185  A    
C141  C150  A    
C60   H45   S    
C144  C153  A    
C89   C181  S    
C24   C85   A    
C123  C159  S    
C44   C140  S    
C48   C67   A    
C148  H15   S    
C19   C124  A    
C181  O17   A    
Br1   C4    S    
C133  C142  A    
C29   H39   S    
O22   Zn5   S    
C134  O44   A    
C174  O10   A    
C36   C117  A    
Br8   C11   S    
C154  C163  A    
C14   C125  A    
C38   C119  A    
C19   H29   S    
C69   C76   A    
C147  C155  A    
C132  C185  A    
C41   O29   A    
C37   C118  A    
C94   C99   A    
C11   C20   A    
C106  C115  A    
C40   O28   A    
C7    C16   A    
C107  C186  A    
C108  C117  A    
O37   Zn4   S    
C110  C119  A    
C137  C146  A    
C44   O43   A    
C82   C91   A    
C31   H41   S    
O20   Zn11  S    
C93   C173  S    
O35   Zn12  S    
C105  C184  A    
C52   C72   A    
C54   C70   A    
C39   O38   A    
C103  C126  A    
C45   O33   A    
C136  C188  A    
C42   O30   A    
C62   H23   S    
C162  C171  A    
C5    C130  A    
C8    C133  A    
C174  O2    A    
C104  C113  A    
C136  C144  A    
C53   C73   A    
C59   H49   S    
C84   C102  A    
C52   C61   A    
C79   C85   A    
C22   C31   A    
C140  C149  A    
C66   C77   A    
C129  C182  A    
C49   C100  A    
C25   H35   S    
C3    C110  A    
C132  C141  A    
C166  C184  A    
C23   C166  A    
C53   C62   A    
O47   Zn11  S    
C88   C97   A    
C80   C88   A    
C112  O20   A    
O1    Zn1   S    
O42   Zn2   S    
C38   H48   S    
C101  O19   A    
C156  O46   A    
C87   C179  S    
C57   C78   A    
O39   Zn3   S    
C74   C178  A    
C177  O5    A    
C177  O14   A    
C86   C90   A    
O48   Zn9   S    
C2    C75   A    
C23   C32   A    
Br6   C9    S    
C25   C168  A    
C67   C77   A    
C138  C147  A    
C15   H25   S    
C96   H52   S    
C152  C161  A    
C27   H37   S    
C92   C174  S    
C171  C188  A    
C91   C96   A    
O19   Zn8   S    
C91   C180  S    
O28   Zn4   S    
C146  C154  A    
O12   Zn5   S    
C169  C186  A    
C49   C69   A    
C47   C138  S    
C46   C54   A    
C110  C122  A    
O29   Zn4   S    
C156  O25   A    
O30   Zn3   S    
C13   C76   A    
C135  C187  A    
C176  O13   A    
C179  O6    A    
C139  C148  A    
C51   C66   A    
Br3   C6    S    
C101  C157  S    
C84   C93   A    
O9    Zn1   S    
C97   H2    S    
C153  H20   S    
C86   C95   A    
C78   C178  A    
C175  O11   A    
C40   C144  S    
C145  O24   A    
O41   Zn2   S    
O16   Zn10  S    
C7    C132  A    
C13   C83   A    
C14   H24   S    
C107  C116  A    
C12   H22   S    
C83   C100  A    
C147  H14   S    
C26   H36   S    
C113  C121  A    
C85   C94   A    
C39   C146  S    
C16   H26   S    
C1    O18   A    
O11   Zn6   S    
O4    Zn10  S    
C31   C113  A    
C9    C135  A    
C25   C33   A    
C101  O12   A    
C10   C136  A    
C117  C126  A    
C71   C75   A    
O31   Zn12  S    
C148  C157  A    
C24   C77   A    
C52   C68   A    
C5    C14   A    
C175  O3    A    
O21   Zn10  S    
C55   C64   A    
C43   C141  S    
C103  C182  A    
C145  C161  S    
C3    C172  A    
O23   Zn6   S    
C29   C38   A    
O18   Zn9   S    
C58   C60   A    
C106  C185  A    
C167  O47   A    
C104  C125  A    
C17   C121  A    
C73   C74   A    
C34   C116  A    
C55   C71   A    
C11   C137  A    
C112  O23   A    
C9    C18   A    
C176  O4    A    
C39   O27   A    
C13   C86   A    
C157  C165  A    
C45   C139  S    
C151  C160  A    
C61   C63   A    
Br2   C5    S    
Br5   C8    S    
C105  C128  A    
C54   C63   A    
C106  C127  A    
O44   Zn8   S    
C181  O8    A    
C68   C80   A    
C22   C165  A    
C44   O32   A    
O38   Zn4   S    
C100  H11   S    
C48   C102  A    
O10   Zn5   S    
C56   C59   A    
C43   O42   A    
C20   H30   S    
C71   C73   A    
C3    C137  A    
C45   O40   A    
C145  O45   A    
C46   H6    S    
C163  C167  S    
C81   C89   A    
C6    C15   A    
C1    O1    A    
C51   C60   A    
O45   Zn9   S    
C42   C142  S    
C123  O21   A    
C130  C139  A    
Br7   C10   S    
C28   C37   A    
C18   C120  A    
C27   C36   A    
C153  C162  A    
O34   Zn7   S    
C16   C127  A    
C163  C172  A    
C21   H31   S    
C161  C170  A    
C87   C96   A    
C107  C121  A    
C63   H12   S    
C65   C76   A    
C180  O7    A    
C10   C19   A    
O25   Zn7   S    
C149  C158  A    
C118  C127  A    
C68   H8    S    
C170  C187  A    
C180  O16   A    
C42   O37   A    
C94   C176  S    
C143  C152  A    
C33   C115  A    
Br4   C7    S    
C167  O26   A    
C109  C188  A    
C61   H34   S    
C56   H51   S    
C179  O15   A    
C17   H27   S    
C95   C98   A    
C133  C186  A    
C21   C164  A    
C6    C131  A    
C149  H16   S    
C108  C120  A    
C4    C129  A    
C98   H3    S    
C62   C64   A    
O24   Zn1   S    
C114  C122  A    
C123  O34   A    
C50   C65   A    
C159  C168  A    
