data_mof_unit_49138.cif
_audit_creation_date              2013-03-05T16:01:16-0500
_audit_creation_method            fapswitch 2.2
_symmetry_space_group_name_H-M    P1
_symmetry_Int_Tables_number       1
_space_group_crystal_system       triclinic
_cell_length_a                    14.842095
_cell_length_b                    14.96972
_cell_length_c                    17.150168
_cell_angle_alpha                 108.790692
_cell_angle_beta                  73.060934
_cell_angle_gamma                 116.210749
_cell_volume                      3186.19417172

loop_
_atom_site_label
_atom_site_type_symbol
_atom_site_description
_atom_site_fract_x
_atom_site_fract_y
_atom_site_fract_z
_atom_type_partial_charge
O1    O     O_R   0.020090 0.662480 0.528530 -0.581966
O2    O     O_R   0.979910 0.337520 0.471470 -0.582815
O3    O     O_R   0.160710 0.620650 0.491980 -0.563677
O4    O     O_R   0.839290 0.379350 0.508020 -0.568547
C1    C     C_R   0.118814 0.687964 0.514277 0.836466
C2    C     C_R   0.881140 0.312241 0.487617 0.831978
O5    O     O_R   0.921540 0.523360 0.633990 -0.592763
O6    O     O_R   0.078460 0.476640 0.366010 -0.592936
O7    O     O_R   0.062170 0.481520 0.597440 -0.543168
O8    O     O_R   0.937830 0.518480 0.402560 -0.555238
C3    C     C_R   0.987855 0.502008 0.652378 0.796508
C4    C     C_R   0.010196 0.494766 0.346989 0.803724
Cu1   Cu    Cu3+1 0.916740 0.524770 0.521640 0.987674
Cu2   Cu    Cu3+1 0.083260 0.475230 0.478360 0.992448
C5    C     C_R   0.971743 0.490868 0.736702 -0.028482
C6    C     C_R   0.012600 0.482986 0.258870 -0.033217
C7    C     C_R   0.047923 0.549508 0.785392 -0.135225
C8    C     C_R   0.980784 0.543378 0.234329 -0.133606
C9    C     C_R   0.032683 0.535080 0.865054 -0.079246
C10   C     C_R   0.981270 0.529733 0.150116 -0.083727
C11   C     C_R   0.942795 0.458889 0.895081 0.104407
C12   C     C_R   0.009525 0.452635 0.090069 0.108852
C13   C     C_R   0.865611 0.402184 0.846738 -0.037053
C14   C     C_R   0.042396 0.393146 0.114809 -0.042830
C15   C     C_R   0.879770 0.418736 0.767965 -0.178331
C16   C     C_R   0.044698 0.408769 0.198734 -0.174917
C17   C     C_2   0.929241 0.438963 0.977424 0.142185
C18   C     C_2   0.007824 0.436096 0.000826 0.148490
H1    H     H_    0.118358 0.606735 0.762165 0.172487
H2    H     H_    0.956841 0.601683 0.280063 0.166765
H3    H     H_    0.069032 0.361093 0.216928 0.150416
H4    H     H_    0.820415 0.373231 0.730323 0.147924
H5    H     H_    0.795535 0.343880 0.869217 0.178415
H6    H     H_    0.065097 0.333904 0.069339 0.176650
H7    H     H_    0.958972 0.578882 0.131853 0.160109
H8    H     H_    0.091675 0.582177 0.902779 0.166783
C19   C     C_R   0.186191 0.796697 0.527819 -0.119078
C20   C     C_R   0.813646 0.204912 0.487052 -0.120920
C21   C     C_R   0.212827 0.976400 0.578338 0.337576
C22   C     C_R   0.787355 0.028467 0.472522 0.343814
C23   C     C_R   0.147166 0.873401 0.562036 -0.220083
C24   C     C_R   0.852782 0.129765 0.470163 -0.217434
C25   C     C_R   0.291328 0.823067 0.509257 -0.206175
C26   C     C_R   0.708570 0.179038 0.507852 -0.221055
C27   C     C_R   0.359430 0.924238 0.531593 0.053805
C28   C     C_R   0.640415 0.079061 0.512385 0.050073
C29   C     C_R   0.319557 0.002272 0.564999 0.022776
C30   C     C_R   0.680288 0.001948 0.490712 0.028129
C31   C     C_R   0.466178 0.949472 0.520580 0.097599
C32   C     C_R   0.533256 0.053605 0.534048 0.096079
C33   C     C_R   0.491233 0.129092 0.570758 -0.204775
C34   C     C_R   0.507925 0.874166 0.498455 -0.200818
C35   C     C_R   0.386779 0.103694 0.586855 -0.129207
C36   C     C_R   0.612370 0.900074 0.484826 -0.136968
H9    H     H_    0.359579 0.164826 0.617394 0.207032
H10   H     H_    0.639019 0.838455 0.466500 0.199699
H11   H     H_    0.680842 0.237766 0.517344 0.181979
H12   H     H_    0.318521 0.762777 0.476463 0.175895
H13   H     H_    0.934504 0.149942 0.456317 0.204157
H14   H     H_    0.065524 0.853495 0.574750 0.204312
H15   H     H_    0.537259 0.208761 0.591382 0.156167
H16   H     H_    0.461845 0.793945 0.493472 0.164278
N1    N     N_R   0.208390 0.438070 0.445820 -0.194590
N2    N     N_R   0.791610 0.561930 0.554180 -0.201014
C37   C     C_R   0.318716 0.373236 0.333695 -0.205754
C38   C     C_R   0.681090 0.626606 0.666148 -0.197484
C39   C     C_R   0.223223 0.378169 0.368760 0.058787
C40   C     C_R   0.776621 0.621768 0.631222 0.064645
C41   C     C_R   0.283209 0.484371 0.495289 0.305319
C42   C     C_R   0.716977 0.515633 0.504498 0.296393
C43   C     C_R   0.375241 0.466059 0.467039 -0.062659
C44   C     C_R   0.624792 0.533731 0.532692 -0.064039
C45   C     C_R   0.398041 0.424269 0.380648 0.005890
C46   C     C_R   0.601856 0.575459 0.619109 -0.001105
C47   C     C_R   0.449436 0.496158 0.518596 0.021295
C48   C     C_R   0.550595 0.503578 0.481098 0.023890
C49   C     C_R   0.575666 0.486644 0.393392 -0.216118
C50   C     C_R   0.424277 0.513038 0.606286 -0.204609
C51   C     C_R   0.500483 0.439719 0.343022 0.330347
C52   C     C_R   0.499374 0.559889 0.656703 0.332543
H17   H     H_    0.835930 0.658025 0.668872 0.148192
H18   H     H_    0.163837 0.341960 0.331188 0.136488
H19   H     H_    0.330361 0.331612 0.269590 0.200098
H20   H     H_    0.669328 0.668234 0.730235 0.202196
H21   H     H_    0.654638 0.510369 0.362947 0.197826
H22   H     H_    0.345269 0.489410 0.636668 0.208595
N3    N     N_R   0.531406 0.416523 0.253663 0.132000
O9    O     O_R   0.605603 0.384367 0.220964 -0.252913
O10   O     O_R   0.498362 0.443834 0.206225 -0.312672
N4    N     N_R   0.468320 0.582813 0.746070 0.136329
O11   O     O_R   0.393724 0.614399 0.778818 -0.291503
O12   O     O_R   0.501566 0.555574 0.793415 -0.312448
I1    I     I_    0.717711 0.385371 0.402556 -0.279850
I2    I     I_    0.283487 0.615276 0.596493 -0.340376
N5    N     N_R   0.093503 0.421325 0.939749 0.113364
O13   O     O_R   0.184146 0.464070 0.959169 -0.291789
O14   O     O_R   0.079529 0.357254 0.867850 -0.293344
N6    N     N_R   0.832461 0.426273 0.032960 0.115487
O15   O     O_R   0.777012 0.471805 0.029594 -0.293387
O16   O     O_R   0.794719 0.361030 0.080453 -0.278400
N7    N     N_R   0.169781 0.053053 0.607681 0.128653
O17   O     O_R   0.084852 0.038361 0.661329 -0.298611
O18   O     O_R   0.204058 0.127296 0.569649 -0.331734
N8    N     N_R   0.831083 0.954544 0.457639 0.121078
O19   O     O_R   0.912208 0.957896 0.400950 -0.324570
O20   O     O_R   0.802135 0.896953 0.510350 -0.341840

loop_
_geom_bond_atom_site_label_1
_geom_bond_atom_site_label_2
_geom_bond_distance
_ccdc_geom_bond_type
C38   C40   1.393660 A    
N3    O9    1.301305 A    
C17   N6    1.443909 S    
N7    O17   1.301330 A    
C1    C19   1.468788 S    
C7    H1    1.082363 S    
N5    O13   1.301402 A    
C33   H15   1.078648 S    
C44   C48   1.439030 A    
C51   N3    1.438032 S    
C21   C23   1.399629 A    
O5    C3    1.301573 A    
C18   N5    1.444376 S    
O1    C1    1.307630 A    
C40   H17   1.081561 S    
N2    C40   1.356447 A    
C9    C11   1.407070 A    
C14   C16   1.390059 A    
C20   C24   1.398579 A    
C9    H8    1.083140 S    
C50   C52   1.400794 A    
C5    C15   1.400449 A    
C38   C46   1.406951 A    
C37   C45   1.407071 A    
C5    C7    1.395518 A    
C27   C29   1.423012 A    
O4    Cu1   1.932158 S    
C41   C43   1.426621 A    
C47   C48   1.419935 A    
C25   H12   1.075288 S    
C10   H7    1.083008 S    
C3    C5    1.447427 S    
C4    C6    1.455578 S    
C26   C28   1.400364 A    
C13   H5    1.083224 S    
C2    C20   1.469322 S    
C8    H2    1.083433 S    
N2    C42   1.387354 A    
C29   C35   1.397949 A    
C50   H22   1.080729 S    
C15   H4    1.083911 S    
C35   H9    1.081245 S    
C11   C17   1.475328 S    
C49   H21   1.080613 S    
C16   H3    1.083511 S    
N7    O18   1.301400 A    
C46   C52   1.412725 A    
Cu1   Cu2   2.721160 S    
C19   C23   1.397733 A    
O2    C2    1.307608 A    
N8    O20   1.301391 A    
N8    O19   1.301333 A    
C34   C36   1.387182 A    
C21   N7    1.437497 S    
C28   C30   1.421193 A    
C49   C51   1.401141 A    
C6    C16   1.402863 A    
N1    C39   1.356665 A    
N1    C41   1.386944 A    
C42   I1    2.161150 S    
C48   C49   1.405998 A    
C44   C46   1.414239 A    
C41   I2    2.158350 S    
C43   C45   1.413788 A    
C37   C39   1.393931 A    
C14   H6    1.083250 S    
C33   C35   1.386302 A    
C19   C25   1.392682 A    
C30   C36   1.397925 A    
O7    Cu2   1.951218 S    
C20   C26   1.393099 A    
C22   N8    1.437656 S    
O7    C3    1.305936 A    
N4    O12   1.301358 A    
C27   C31   1.425300 A    
C26   H11   1.075683 S    
O6    C4    1.303474 A    
C31   C34   1.415337 A    
C32   C33   1.413415 A    
C45   C51   1.412616 A    
C25   C27   1.400622 A    
O3    Cu2   1.932160 S    
O8    C4    1.307787 A    
O4    C2    1.309804 A    
C10   C12   1.406630 A    
N6    O15   1.301423 A    
N6    O16   1.301711 A    
C11   C13   1.400481 A    
C12   C14   1.399614 A    
O1    Cu1   1.942164 S    
C21   C29   1.419743 A    
C22   C30   1.419090 A    
O6    Cu2   1.955935 S    
C23   H14   1.083318 S    
O3    C1    1.309574 A    
O8    Cu1   1.951218 S    
C24   H13   1.083302 S    
C42   C44   1.427153 A    
N5    O14   1.301852 A    
C36   H10   1.081282 S    
C28   C32   1.422785 A    
N3    O10   1.301354 A    
C34   H16   1.076857 S    
C43   C47   1.438720 A    
N4    O11   1.301465 A    
Cu1   N2    2.044190 S    
Cu2   N1    2.044190 S    
C22   C24   1.399981 A    
C7    C9    1.389696 A    
C8    C10   1.390265 A    
C13   C15   1.391011 A    
C52   N4    1.438229 S    
O2    Cu2   1.942165 S    
C47   C50   1.405821 A    
C37   H19   1.081625 S    
C38   H20   1.081620 S    
O5    Cu1   1.955934 S    
C39   H18   1.081586 S    
C6    C8    1.398381 A    
C31   C32   1.416218 A    
C17   C18   1.360634 D    
C12   C18   1.475581 S    
