data_mof_unit_39363.cif
_audit_creation_date              2012-10-26T20:19:15-0400
_audit_creation_method            fapswitch 2.2
_symmetry_space_group_name_H-M    P1
_symmetry_Int_Tables_number       1
_space_group_crystal_system       triclinic
_cell_length_a                    15.062571
_cell_length_b                    12.996351
_cell_length_c                    11.870677
_cell_angle_alpha                 100.620614
_cell_angle_beta                  94.376977
_cell_angle_gamma                 93.123213
_cell_volume                      2271.73772841

loop_
_atom_site_label
_atom_site_type_symbol
_atom_type_description
_atom_site_fract_x
_atom_site_fract_y
_atom_site_fract_z
_atom_type_partial_charge
C1    C     C_R   0.499185 0.299751 0.478320 0.599752
C2    C     C_R   0.570102 0.872178 0.607762 -0.166731
C3    C     C_R   0.548983 0.137196 0.536130 0.252023
C4    C     C_R   0.442439 0.862382 0.467909 0.236679
C5    C     C_R   0.529420 0.030564 0.542461 0.006649
C6    C     C_R   0.455729 0.971989 0.469984 0.006890
C7    C     C_R   0.406765 0.410708 0.022202 0.217144
C8    C     C_R   0.595755 0.586346 0.978164 0.215153
C9    C     C_R   0.423446 0.408278 0.139812 0.296603
C10   C     C_R   0.577672 0.590808 0.860714 0.292874
C11   C     C_R   0.536946 0.545360 0.159590 0.279593
C12   C     C_R   0.499921 0.700235 0.521706 0.616830
C13   C     C_R   0.464989 0.451928 0.841187 0.286282
C14   C     C_R   0.534350 0.533471 0.035421 -0.062697
C15   C     C_R   0.466829 0.466165 0.965330 -0.069595
C16   C     C_R   0.329220 0.500230 0.499847 0.616743
C17   C     C_R   0.670684 0.501029 0.500272 0.632857
C18   C     C_R   0.819175 0.596913 0.535756 0.194844
C19   C     C_R   0.179401 0.407301 0.463959 0.186263
C20   C     C_R   0.767243 0.502127 0.500171 0.019744
C21   C     C_R   0.232492 0.501027 0.500374 0.015440
C22   C     C_R   0.806413 0.408722 0.460557 0.242595
C23   C     C_R   0.034868 0.309942 0.471529 0.189002
C24   C     C_R   0.194182 0.594714 0.542290 0.247451
C25   C     C_R   0.899853 0.405886 0.476213 0.021999
C26   C     C_R   0.100393 0.598447 0.528906 0.027309
C27   C     C_R   0.953018 0.502502 0.501724 -0.089071
C28   C     C_R   0.046828 0.502149 0.503179 -0.089586
C29   C     C_R   0.912169 0.599339 0.524888 0.028812
C30   C     C_R   0.087240 0.405285 0.478566 0.033353
C31   C     C_R   0.941647 0.310428 0.470750 0.278335
C32   C     C_R   0.058515 0.694126 0.536537 0.282793
C33   C     C_3   0.105446 0.201445 0.592076 -0.240777
C34   C     C_R   0.965082 0.694728 0.534243 0.183052
C35   C     C_3   0.896460 0.807451 0.416813 -0.212369
C36   C     C_3   0.240545 0.992324 0.391388 -0.201769
C37   C     C_3   0.601902 0.079428 0.811113 -0.253053
C38   C     C_3   0.341237 0.343620 0.713951 -0.192874
C39   C     C_3   0.566295 0.733775 0.231093 -0.239101
C40   C     C_3   0.607665 0.776454 0.864692 -0.268955
C41   C     C_3   0.400217 0.222560 0.140723 -0.262852
C42   C     C_R   0.502607 0.813794 0.533929 -0.001636
C43   C     C_R   0.491899 0.186413 0.467553 -0.000703
C44   C     C_R   0.399724 0.025383 0.401162 0.127030
C45   C     C_R   0.581535 0.979963 0.617910 0.152406
C46   C     C_R   0.419013 0.131043 0.401520 -0.192555
Cl1   Cl    Cl    0.764911 0.709657 0.595128 -0.636234
Cl2   Cl    Cl    0.648879 0.209967 0.602046 -0.436672
Cl3   Cl    Cl    0.229796 0.295454 0.395559 -0.683784
Cl4   Cl    Cl    0.300621 0.356895 0.958690 -0.594689
Cl5   Cl    Cl    0.704051 0.633860 0.041901 -0.582127
Cl6   Cl    Cl    0.737470 0.302354 0.376898 -0.452642
Cl7   Cl    Cl    0.265200 0.700354 0.623626 -0.464777
Cl8   Cl    Cl    0.881846 0.193039 0.486542 -0.484488
Cl9   Cl    Cl    0.118440 0.812734 0.525888 -0.563701
Cl10  Cl    Cl    0.352951 0.781372 0.384351 -0.491542
Cu1   Cu    Cu3+1 0.506660 0.507730 0.615930 1.063294
Cu2   Cu    Cu3+1 0.493340 0.492270 0.384070 1.072837
H1    H     H_    0.615398 0.833110 0.657614 0.160181
H2    H     H_    0.955480 0.816292 0.367829 0.179581
H3    H     H_    0.315026 0.993008 0.252320 0.259176
H4    H     H_    0.184260 0.942544 0.339314 0.205104
H5    H     H_    0.224574 0.075617 0.401376 0.176210
H6    H     H_    0.248257 0.970523 0.477624 0.229158
H7    H     H_    0.698081 0.995916 0.726216 0.281051
H8    H     H_    0.653073 0.126886 0.874743 0.185055
H9    H     H_    0.572277 0.015352 0.849822 0.114606
H10   H     H_    0.549032 0.131298 0.790946 0.167703
H11   H     H_    0.445427 0.288896 0.808549 0.241692
H12   H     H_    0.373530 0.171729 0.353680 0.167489
H13   H     H_    0.301322 0.276522 0.735120 0.159663
H14   H     H_    0.345306 0.323607 0.619904 0.173230
H15   H     H_    0.305421 0.416044 0.737102 0.199465
H16   H     H_    0.657410 0.617003 0.246416 0.298099
H17   H     H_    0.587752 0.760555 0.153609 0.159429
H18   H     H_    0.599148 0.787785 0.308250 0.159597
H19   H     H_    0.492964 0.738299 0.231483 0.198424
H20   H     H_    0.635656 0.656892 0.732850 0.324462
H21   H     H_    0.660392 0.831821 0.845050 0.170244
H22   H     H_    0.606922 0.790298 0.959598 0.170007
H23   H     H_    0.044321 0.147994 0.426465 0.299469
H24   H     H_    0.541625 0.793399 0.826657 0.145622
H25   H     H_    0.364273 0.342724 0.267129 0.326189
H26   H     H_    0.348331 0.165243 0.158535 0.166257
H27   H     H_    0.465636 0.209640 0.183766 0.152982
H28   H     H_    0.404842 0.207422 0.046256 0.171822
H29   H     H_    0.143972 0.130603 0.587575 0.159412
H30   H     H_    0.046931 0.191657 0.641638 0.199334
H31   H     H_    0.149115 0.270491 0.637594 0.160299
H32   H     H_    0.955998 0.856357 0.584057 0.309672
H33   H     H_    0.859995 0.880012 0.423337 0.195229
H34   H     H_    0.850990 0.740618 0.369554 0.180711
N1    N     N_R   0.516670 0.519360 0.790130 -0.234215
N2    N     N_2   0.375679 0.328349 0.182444 -0.421972
N3    N     N_R   0.483330 0.480640 0.209870 -0.238918
N4    N     N_2   0.076417 0.214726 0.476892 -0.451228
N5    N     N_2   0.924219 0.790742 0.531152 -0.432994
N6    N     N_2   0.321448 0.976266 0.334098 -0.444337
N7    N     N_2   0.643063 0.036024 0.708193 -0.424311
N8    N     N_2   0.429968 0.353377 0.773501 -0.448607
N9    N     N_2   0.590419 0.627693 0.233731 -0.437227
N10   N     N_2   0.627178 0.669640 0.818425 -0.426080
O1    O     O_R   0.504720 0.354460 0.582000 -0.456293
O2    O     O_R   0.495280 0.645540 0.418000 -0.452428
O3    O     O_R   0.493480 0.341410 0.386200 -0.521119
O4    O     O_R   0.506520 0.658590 0.613800 -0.518325
O5    O     O_R   0.375880 0.506510 0.597910 -0.501579
O6    O     O_R   0.624120 0.493490 0.402090 -0.474225
O7    O     O_R   0.364640 0.493450 0.402110 -0.471117
O8    O     O_R   0.635360 0.506550 0.597890 -0.479296

loop_
_geom_bond_atom_site_label_1
_geom_bond_atom_site_label_2
_ccdc_geom_bond_type
C25   C31   A    
C26   C32   A    
C16   C21   S    
H20   N10   S    
Cu2   O7    S    
H3    N6    S    
C17   O8    A    
C17   C20   S    
C41   H28   S    
C3    C43   A    
C39   H19   S    
C19   C21   A    
C33   H30   S    
C24   C26   A    
C12   O2    A    
C5    C6    A    
C11   C14   A    
C27   C29   A    
C37   H10   S    
C3    Cl2   S    
C34   N5    S    
C23   N4    S    
C12   C42   S    
C16   O5    A    
C44   N6    S    
C1    C43   S    
C41   N2    S    
C22   C25   A    
C40   H22   S    
C39   H17   S    
C36   H5    S    
C9    N3    A    
C32   Cl9   S    
Cu2   O6    S    
C35   H34   S    
C7    C15   A    
Cu1   O4    S    
Cu1   N1    S    
C4    Cl10  S    
C36   H4    S    
C44   C46   A    
C16   O7    A    
C39   N9    S    
C2    C45   A    
Cu1   O1    S    
C38   H14   S    
C23   C30   A    
C40   H24   S    
C10   N10   S    
H7    N7    S    
C38   N8    S    
C45   N7    S    
C17   O6    A    
H23   N4    S    
C2    H1    S    
C10   N1    A    
C3    C5    A    
C24   Cl7   S    
H25   N2    S    
C5    C45   A    
C29   C34   A    
C13   N1    A    
C35   H2    S    
C32   C34   A    
Cu2   N3    S    
C33   H31   S    
C19   Cl3   S    
Cu1   O8    S    
C37   H8    S    
C40   H21   S    
C11   N9    S    
C18   C29   A    
C39   H18   S    
C8    Cl5   S    
H16   N9    S    
C4    C6    A    
Cu1   O5    S    
C20   C22   A    
C13   C15   A    
Cu2   O2    S    
C33   N4    S    
C37   N7    S    
C22   Cl6   S    
C11   N3    A    
C7    C9    A    
C1    O1    A    
C38   H13   S    
C8    C14   A    
H32   N5    S    
C7    Cl4   S    
C18   Cl1   S    
C36   N6    S    
C25   C27   A    
C41   H27   S    
C26   C28   A    
Cu2   O3    S    
C13   N8    S    
C28   C30   A    
C33   H29   S    
C36   H6    S    
C12   O4    A    
C41   H26   S    
Cu1   Cu2   S    
C4    C42   A    
C2    C42   A    
C37   H9    S    
C18   C20   A    
C31   Cl8   S    
C43   C46   A    
C46   H12   S    
C40   N10   S    
H11   N8    S    
C8    C10   A    
C21   C24   A    
C1    O3    A    
C27   C28   A    
C14   C15   A    
C6    C44   A    
C35   N5    S    
C19   C30   A    
C9    N2    S    
C23   C31   A    
C38   H15   S    
C35   H33   S    
