data_mof_unit_23240.cif
_audit_creation_date              2012-12-11T19:42:22-0500
_audit_creation_method            fapswitch 2.2
_symmetry_space_group_name_H-M    P1
_symmetry_Int_Tables_number       1
_space_group_crystal_system       triclinic
_cell_length_a                    8.204992
_cell_length_b                    15.067134
_cell_length_c                    26.963833
_cell_angle_alpha                 98.629394
_cell_angle_beta                  92.758683
_cell_angle_gamma                 81.143504
_cell_volume                      3255.32391761

loop_
_atom_site_label
_atom_site_type_symbol
_atom_type_description
_atom_site_fract_x
_atom_site_fract_y
_atom_site_fract_z
_atom_type_partial_charge
Ba1   Ba    Ba6+2 0.860050 0.456430 0.522530 1.635005
Ba2   Ba    Ba6+2 0.329780 0.543490 0.477460 1.645227
C1    C     C_3   0.725305 0.129753 0.645020 -0.024223
C2    C     C_R   0.926401 0.595187 0.182824 0.582409
C3    C     C_2   0.759750 0.565228 0.274043 -0.094235
C4    C     C_3   0.186967 0.264388 0.654626 0.268869
C5    C     C_3   0.734201 0.593062 0.329610 -0.063411
C6    C     C_1   0.984749 0.486534 0.343436 0.045997
C7    C     C_2   0.027331 0.480888 0.295706 -0.083392
C8    C     C_2   0.907954 0.520392 0.257588 0.213346
C9    C     C_R   0.033005 0.511621 0.103458 -0.080409
C10   C     C_R   0.065732 0.432615 0.126616 -0.034265
C11   C     C_R   0.138879 0.351826 0.098299 -0.061614
C12   C     C_3   0.702585 0.224020 0.628887 0.360118
C13   C     C_R   0.962103 0.593194 0.131893 -0.026023
C14   C     C_2   0.846962 0.535394 0.361753 -0.273751
C15   C     C_2   0.353105 0.478414 0.640890 -0.281412
C16   C     C_3   0.165016 0.246379 0.707628 -0.324405
C17   C     C_R   0.196405 0.426907 0.973479 0.019718
C18   C     C_R   0.060620 0.585286 0.976535 0.019912
C19   C     C_R   0.147516 0.505128 0.949520 0.050050
C20   C     C_R   0.290840 0.350712 0.945684 -0.100895
C21   C     C_R   0.331930 0.350642 0.896064 -0.060887
C22   C     C_R   0.279718 0.426129 0.871473 -0.030631
C23   C     C_3   0.483542 0.685876 0.632075 0.299792
C24   C     C_R   0.186320 0.503337 0.898040 -0.077941
C25   C     C_R   0.132604 0.579012 0.873242 -0.033707
C26   C     C_R   0.171508 0.576325 0.822346 0.590494
C27   C     C_R   0.319907 0.425961 0.820910 0.576559
C28   C     C_3   0.224261 0.263091 0.409725 0.318159
C29   C     C_2   0.462407 0.480838 0.729000 -0.070812
C30   C     C_3   0.503094 0.485389 0.675130 -0.048531
C31   C     C_1   0.208511 0.518991 0.657594 0.036418
C32   C     C_2   0.170057 0.520412 0.705183 -0.108763
C33   C     C_2   0.303471 0.499005 0.743970 0.199884
C34   C     C_3   0.455377 0.721144 0.687351 -0.378106
C35   C     C_R   0.150908 0.427655 0.024219 0.019721
C36   C     C_R   0.071511 0.509292 0.051903 0.049456
C37   C     C_R   0.030377 0.588807 0.028622 0.020239
C38   C     C_R   0.181155 0.349336 0.048485 -0.100296
C39   C     C_R   0.929207 0.671907 0.109054 -0.067066
C40   C     C_3   0.218170 0.160686 0.398328 -0.038123
C41   C     C_R   0.005779 0.659313 0.950156 -0.101691
C42   C     C_R   0.040839 0.656058 0.899816 -0.062707
C43   C     C_R   0.961792 0.669856 0.058697 -0.103010
C44   C     C_R   0.842551 0.831012 0.464171 -0.026053
C45   C     C_3   0.950152 0.793083 0.348501 0.297459
C46   C     C_R   0.776861 0.924344 0.468528 -0.032367
C47   C     C_R   0.641746 0.111514 0.478933 -0.037327
C48   C     C_R   0.784107 0.077199 0.450969 -0.052097
C49   C     C_R   0.852831 0.985989 0.446966 -0.108021
C50   C     C_R   0.576086 0.205105 0.486127 0.039449
C51   C     C_R   0.431628 0.234864 0.512806 -0.301837
C52   C     C_3   0.978029 0.734387 0.585711 0.312181
C53   C     C_R   0.614728 0.803492 0.511142 0.028974
C54   C     C_R   0.549198 0.896113 0.517095 -0.032498
C55   C     C_R   0.628790 0.956692 0.494959 0.013256
C56   C     C_3   0.982658 0.813417 0.296674 -0.333818
C57   C     C_R   0.406295 0.929785 0.544679 -0.049961
C58   C     C_R   0.338120 0.020188 0.548516 -0.110300
C59   C     C_R   0.414110 0.081631 0.526909 -0.038579
C60   C     C_R   0.562105 0.050119 0.500479 0.011216
C61   C     C_R   0.346888 0.173952 0.531414 -0.006192
C62   C     C_R   0.755818 0.771604 0.483325 -0.290647
C63   C     C_3   0.958545 0.837034 0.600022 -0.388293
C64   C     C_3   0.695135 0.346225 0.372718 0.289795
C65   C     C_3   0.713579 0.323566 0.316165 -0.379777
C66   C     C_3   0.438067 0.119905 0.336199 -0.188200
C67   C     C_3   0.474042 0.785850 0.365426 0.418938
C68   C     C_3   0.585539 0.025407 0.682317 -0.208647
C69   C     C_3   0.471517 0.831854 0.256830 -0.166335
C70   C     C_3   0.414466 0.877204 0.347088 -0.010713
C71   C     C_R   0.022900 0.435778 0.177401 0.592187
H1    H     H_    0.816206 0.229602 0.609665 0.084908
H2    H     H_    0.589168 0.401095 0.380492 0.086216
H3    H     H_    0.765118 0.078261 0.612098 0.037672
H4    H     H_    0.824064 0.271820 0.307350 0.133005
H5    H     H_    0.727248 0.385291 0.299985 0.073932
H6    H     H_    0.602365 0.296986 0.298582 0.120159
H7    H     H_    0.596206 0.230244 0.602064 -0.048288
H8    H     H_    0.365699 0.667238 0.614866 0.030748
H9    H     H_    0.580078 0.625082 0.628633 0.037392
H10   H     H_    0.364860 0.784544 0.691268 0.134487
H11   H     H_    0.405749 0.670317 0.705755 0.079397
H12   H     H_    0.297686 0.124563 0.425670 0.033054
H13   H     H_    0.573461 0.735436 0.706462 0.124136
H14   H     H_    0.824045 0.125838 0.674697 0.108148
H15   H     H_    0.194430 0.304796 0.734774 0.129378
H16   H     H_    0.922235 0.722715 0.344939 0.025782
H17   H     H_    0.843116 0.842360 0.363500 -0.032501
H18   H     H_    0.087210 0.764270 0.279730 0.160215
H19   H     H_    0.870908 0.808288 0.272281 0.126723
H20   H     H_    0.011973 0.883502 0.299217 0.089782
H21   H     H_    0.611034 0.774653 0.366494 -0.150648
H22   H     H_    0.435610 0.932387 0.377948 0.037055
H23   H     H_    0.090145 0.148941 0.403107 0.077868
H24   H     H_    0.114615 0.331405 0.650655 0.094051
H25   H     H_    0.280089 0.885595 0.338633 0.136708
H26   H     H_    0.150195 0.449187 0.284221 0.123448
H27   H     H_    0.164469 0.289568 0.114681 0.119225
H28   H     H_    0.562532 0.469195 0.756173 0.104544
H29   H     H_    0.405137 0.290399 0.876849 0.121947
H30   H     H_    0.338605 0.290197 0.961575 0.068682
H31   H     H_    0.234501 0.283937 0.029616 0.068217
H32   H     H_    0.667983 0.593083 0.247966 0.097043
H33   H     H_    0.876764 0.736123 0.130127 0.114702
H34   H     H_    0.857307 0.713987 0.573888 0.003327
H35   H     H_    0.931735 0.720698 0.967061 0.068324
H36   H     H_    0.319408 0.266898 0.649012 0.005677
H37   H     H_    0.995547 0.714930 0.881712 0.120861
H38   H     H_    0.042325 0.536560 0.716229 0.126050
H39   H     H_    0.935118 0.734033 0.044786 0.067460
H40   H     H_    0.828459 0.549063 0.401915 0.079921
H41   H     H_    0.363513 0.439852 0.603462 0.072785
H42   H     H_    0.844907 0.120021 0.431787 0.097568
H43   H     H_    0.964504 0.964321 0.425997 0.091473
H44   H     H_    0.226207 0.040868 0.569352 0.112523
H45   H     H_    0.064036 0.714516 0.554176 0.075756
H46   H     H_    0.342750 0.887065 0.563282 0.103354
H47   H     H_    0.380688 0.306142 0.517283 0.073753
H48   H     H_    0.034981 0.237981 0.712697 0.128607
H49   H     H_    0.805399 0.700179 0.479837 0.062564
H50   H     H_    0.247784 0.183952 0.715060 0.133978
H51   H     H_    0.353829 0.275037 0.412545 -0.007650
H52   H     H_    0.163856 0.288658 0.446196 0.024035
H53   H     H_    0.184774 0.142662 0.319850 0.228511
H54   H     H_    0.465940 0.075207 0.300095 0.121419
H55   H     H_    0.520714 0.092709 0.366002 0.105624
H56   H     H_    0.869363 0.859020 0.630727 0.123997
H57   H     H_    0.461369 0.188929 0.332182 0.133502
H58   H     H_    0.474451 0.119731 0.638465 0.198760
H59   H     H_    0.466776 0.020280 0.698970 0.113112
H60   H     H_    0.684180 0.020455 0.711908 0.121952
H61   H     H_    0.612387 0.968239 0.651244 0.103808
H62   H     H_    0.431113 0.790413 0.404325 0.054775
H63   H     H_    0.624060 0.896552 0.310511 0.186115
H64   H     H_    0.519260 0.859493 0.225425 0.103294
H65   H     H_    0.337070 0.831052 0.250161 0.114460
H66   H     H_    0.536351 0.761666 0.257337 0.135748
H67   H     H_    0.912904 0.871346 0.567403 0.063204
H68   H     H_    0.079521 0.857873 0.612866 0.115181
H69   H     H_    0.808726 0.369857 0.389722 0.020442
N1    N     N_R   0.953174 0.516662 0.205168 -0.419944
N2    N     N_R   0.263740 0.500128 0.796455 -0.425110
N3    N     N_2   0.266933 0.122452 0.347610 -0.417925
N4    N     N_2   0.572774 0.111098 0.663399 -0.399651
N5    N     N_2   0.502378 0.888400 0.303567 -0.437850
O1    O     O_2   0.906480 0.548660 0.619050 -0.467209
O2    O     O_2   0.183069 0.823845 0.472966 -0.488520
O3    O     O_3   0.090229 0.802457 0.379456 -0.587159
O4    O     O_3   0.138490 0.548590 0.558870 -0.493109
O5    O     O_3   0.572560 0.389960 0.472890 -0.487769
O6    O     O_2   0.345660 0.723580 0.528500 -0.468341
O7    O     O_3   0.535718 0.754256 0.609594 -0.649682
O8    O     O_2   0.415911 0.537970 0.323628 -0.485187
O9    O     O_3   0.408573 0.715042 0.334394 -0.583158
O10   O     O_2   0.045868 0.366205 0.196534 -0.602771
O11   O     O_2   0.404491 0.359398 0.798645 -0.595481
O12   O     O_3   0.668978 0.268157 0.391637 -0.653120
O13   O     O_2   0.872342 0.667599 0.207450 -0.637234
O14   O     O_2   0.125494 0.642655 0.801374 -0.598989
O15   O     O_3   0.686300 0.382310 0.585700 -0.486662
O16   O     O_2   0.845513 0.425244 0.671468 -0.506197
O17   O     O_3   0.037601 0.694172 0.627740 -0.627187
O18   O     O_3   0.675834 0.292094 0.670733 -0.590852
O19   O     O_2   0.844040 0.276390 0.471470 -0.463101
O20   O     O_3   0.101510 0.335500 0.560330 -0.486522
O21   O     O_2   0.005392 0.175883 0.529382 -0.492569
O22   O     O_3   0.129625 0.195265 0.620584 -0.625854
O23   O     O_2   0.283210 0.451310 0.380920 -0.463307
O24   O     O_3   0.051220 0.451340 0.441120 -0.493118
O25   O     O_3   0.503410 0.617620 0.414290 -0.471511
O26   O     O_3   0.143820 0.306017 0.370917 -0.640643
O27   O     O_3   0.617150 0.609960 0.527100 -0.474398
O28   O     O_3   0.088210 0.664420 0.439670 -0.464852
P1    P     P_3+3 0.071950 0.575820 0.612140 0.993014
P2    P     P_3+3 0.664370 0.290050 0.457240 0.967869
P3    P     P_3+3 0.145545 0.219024 0.559611 0.915975
P4    P     P_3+3 0.117760 0.424110 0.387850 0.989853
P5    P     P_3+3 0.048833 0.781917 0.439286 0.953067
P6    P     P_3+3 0.677992 0.398082 0.651131 0.965280
P7    P     P_3+3 0.531950 0.723506 0.544422 0.938262
P8    P     P_3+3 0.515103 0.612302 0.349436 0.967345

loop_
_geom_bond_atom_site_label_1
_geom_bond_atom_site_label_2
_ccdc_geom_bond_type
C69   N5    S    
C53   C54   A    
Ba1   P1    S    
O16   P6    D    
C65   H4    S    
C19   C24   A    
C14   H40   S    
O27   P7    S    
C2    N1    Am   
C43   H39   S    
C46   C55   A    
C69   H64   S    
C52   C63   S    
C3    H32   S    
C24   C25   A    
O1    P1    D    
C61   P3    S    
C52   H34   S    
Ba1   O5    S    
C40   H23   S    
C29   H28   S    
C17   C19   A    
C56   H20   S    
C22   C24   A    
C32   C33   S    
C35   C38   A    
C71   N1    Am   
C36   C37   A    
C62   H49   S    
C21   H29   S    
Ba1   O20   S    
C34   H10   S    
C63   H67   S    
C71   O10   D    
O7    P7    S    
C54   C55   A    
Ba2   O24   S    
H58   N4    S    
C48   H42   S    
C6    C14   D    
O5    P2    S    
C59   C61   A    
C31   P1    S    
C50   P2    S    
C11   C38   A    
C17   C35   A    
C22   C27   A    
C70   H22   S    
C9    C13   A    
C25   C42   A    
O9    P8    S    
C46   C49   A    
C6    C7    D    
C26   O14   D    
C68   H60   S    
C21   C22   A    
Ba1   O4    S    
C68   N4    S    
C12   H7    S    
C56   H18   S    
C66   H55   S    
C28   O26   S    
C16   H50   S    
C37   C43   A    
C64   C65   S    
C28   H52   S    
C57   C58   A    
C67   H62   S    
C10   C71   A    
C23   H8    S    
C32   H38   S    
C45   H16   S    
O24   P4    S    
C65   H5    S    
C15   C31   D    
O12   P2    S    
C64   O12   S    
H53   N3    S    
C15   H41   S    
C31   C32   D    
C69   H65   S    
Ba2   O5    S    
C4    C16   S    
C44   C46   A    
Ba1   O27   S    
C51   H47   S    
C67   O9    S    
C39   H33   S    
C1    H14   S    
C4    H24   S    
C44   P5    S    
C30   P6    S    
C55   C60   A    
C17   C20   A    
C65   H6    S    
C13   C39   A    
O15   P6    S    
C67   H21   S    
C3    C5    S    
C18   C37   A    
C70   H25   S    
C16   H48   S    
C34   H13   S    
C27   N2    Am   
Ba1   O24   S    
O2    P5    D    
C16   H15   S    
C20   H30   S    
O4    P1    S    
C44   C62   A    
C58   C59   A    
C67   C70   S    
C41   C42   A    
O25   P8    S    
C35   C36   A    
Ba2   O28   S    
C38   H31   S    
C63   H68   S    
C63   H56   S    
C29   C30   S    
C45   O3    S    
C47   C50   A    
C53   C62   A    
C68   H59   S    
C48   C49   A    
C58   H44   S    
C40   H12   S    
C39   C43   A    
C18   C19   A    
C12   O18   S    
C66   H57   S    
C1    H3    S    
C66   H54   S    
C27   O11   D    
C1    C12   S    
Ba2   O23   S    
C26   N2    Am   
C5    C14   S    
C28   H51   S    
Ba1   O15   S    
Ba2   O6    S    
O19   P2    D    
C52   H45   S    
C23   H9    S    
C45   H17   S    
C29   C33   D    
Ba2   P4    S    
C12   H1    S    
O22   P3    S    
C18   C41   A    
C50   C51   A    
O3    P5    S    
C9    C36   A    
C7    C8    S    
Ba2   O4    S    
C57   H46   S    
C47   C60   A    
C23   O7    S    
C34   H11   S    
C69   H66   S    
C9    C10   A    
O28   P5    S    
C64   H69   S    
C70   N5    S    
C33   N2    S    
Ba1   P2    S    
C49   H43   S    
C54   C57   A    
C5    P8    S    
O23   P4    D    
O18   P6    S    
C11   H27   S    
C3    C8    D    
O6    P7    D    
Ba2   O27   S    
C45   C56   S    
C51   C61   A    
C6    P4    S    
C2    O13   D    
Ba1   O19   S    
C2    C13   A    
O21   P3    D    
C64   H2    S    
Ba1   Ba2   S    
C4    H36   S    
C53   P7    S    
O17   P1    S    
O8    P8    D    
C41   H35   S    
C59   C60   A    
H63   N5    S    
C23   C34   S    
O20   P3    S    
C10   C11   A    
C1    N4    S    
C7    H26   S    
C47   C48   A    
C25   C26   A    
C68   H61   S    
C15   C30   S    
O26   P4    S    
C20   C21   A    
C28   C40   S    
Ba1   O1    S    
C52   O17   S    
C40   N3    S    
C56   H19   S    
C66   N3    S    
Ba2   O25   S    
C8    N1    S    
C4    O22   S    
C42   H37   S    
