data_mof_unit_62586.cif
_audit_creation_date              2012-12-10T17:59:37-0500
_audit_creation_method            fapswitch 2.2
_symmetry_space_group_name_H-M    P1
_symmetry_Int_Tables_number       1
_space_group_crystal_system       triclinic
_cell_length_a                    18.298878
_cell_length_b                    18.298679
_cell_length_c                    34.361744
_cell_angle_alpha                 89.939648
_cell_angle_beta                  89.93804
_cell_angle_gamma                 90.07349
_cell_volume                      11505.8456999

loop_
_atom_site_label
_atom_site_type_symbol
_atom_type_description
_atom_site_fract_x
_atom_site_fract_y
_atom_site_fract_z
_atom_type_partial_charge
C1    C     C_R   0.015326 0.566119 0.418017 0.069354
C2    C     C_R   0.485252 0.933773 0.081996 0.067687
C3    C     C_R   0.432783 0.989190 0.540959 0.002482
C4    C     C_R   0.010912 0.567223 0.459027 0.000577
C5    C     C_R   0.988774 0.432836 0.540953 0.001400
C6    C     C_R   0.435979 0.979510 0.458732 0.002623
C7    C     C_R   0.564022 0.020464 0.541237 0.002742
C8    C     C_R   0.479621 0.935945 0.958764 0.002718
C9    C     C_R   0.520378 0.064058 0.041268 0.002858
C10   C     C_R   0.067229 0.510728 0.959039 0.002343
C11   C     C_R   0.932704 0.489595 0.040983 0.002647
C12   C     C_R   0.510700 0.067231 0.959040 0.002291
C13   C     C_R   0.935795 0.484119 0.917791 0.072300
C14   C     C_R   0.489620 0.932700 0.040982 0.002557
C15   C     C_R   0.935954 0.479602 0.958764 0.002623
C16   C     C_R   0.064050 0.520404 0.041268 0.002732
C17   C     C_R   0.196006 0.696029 0.249970 -0.066509
C18   C     C_R   0.804022 0.303941 0.750035 -0.066538
C19   C     C_R   0.303968 0.196037 0.249998 -0.068774
C20   C     C_R   0.696038 0.803963 0.749999 -0.064518
C21   C     C_R   0.803965 0.304000 0.250028 -0.064619
C22   C     C_R   0.196044 0.695992 0.749963 -0.064441
C23   C     C_R   0.695994 0.803731 0.249813 -0.040843
C24   C     C_R   0.064236 0.515683 0.082231 0.071100
C25   C     C_R   0.304104 0.196373 0.750098 -0.047645
C26   C     C_R   0.196875 0.304636 0.750956 -0.018736
C27   C     C_R   0.802608 0.694847 0.249438 -0.012531
C28   C     C_R   0.303949 0.804017 0.750034 -0.065028
C29   C     C_R   0.696034 0.196000 0.249973 -0.065465
C30   C     C_R   0.803965 0.696039 0.749999 -0.064318
C31   C     C_R   0.196039 0.303970 0.249996 -0.068607
C32   C     C_R   0.695994 0.196040 0.749961 -0.064598
C33   C     C_R   0.304005 0.803964 0.250024 -0.065346
C34   C     C_R   0.998058 0.500698 0.479370 -0.026270
C35   C     C_R   0.484137 0.935788 0.917790 0.072110
C36   C     C_R   0.001747 0.499333 0.520608 -0.025981
C37   C     C_R   0.500683 0.998060 0.479367 -0.026268
C38   C     C_R   0.499350 0.001761 0.520607 -0.026082
C39   C     C_R   0.498228 0.000647 0.979393 -0.025921
C40   C     C_R   0.501931 0.999322 0.020633 -0.026095
C41   C     C_R   0.000649 0.498231 0.979393 -0.025936
C42   C     C_R   0.999322 0.501932 0.020633 -0.026111
C43   C     C_R   0.515658 0.064243 0.082232 0.070906
C44   C     C_R   0.066103 0.515203 0.918030 0.066484
C45   C     C_R   0.933778 0.485223 0.081996 0.067456
C46   C     C_R   0.999209 0.501227 0.398042 0.033790
C47   C     C_R   0.000744 0.498789 0.601944 0.033574
C48   C     C_R   0.501198 0.999198 0.398040 0.035438
C49   C     C_R   0.984316 0.433976 0.581962 0.067638
C50   C     C_R   0.498822 0.000755 0.601944 0.034711
C51   C     C_R   0.499239 0.001169 0.898056 0.034439
C52   C     C_R   0.500804 0.998809 0.101960 0.035864
C53   C     C_R   0.001172 0.499243 0.898056 0.035112
C54   C     C_R   0.998808 0.500802 0.101960 0.036342
C55   C     C_R   0.960050 0.372933 0.479976 0.126391
C56   C     C_R   0.039788 0.627090 0.519980 0.125572
C57   C     C_R   0.631785 0.021901 0.480631 0.125705
C58   C     C_R   0.368271 0.977724 0.519357 0.125065
C59   C     C_R   0.022718 0.631652 0.480642 0.123909
C60   C     C_R   0.435789 0.984233 0.417768 0.070650
C61   C     C_R   0.976913 0.368400 0.519344 0.123817
C62   C     C_R   0.372685 0.960854 0.479985 0.126345
C63   C     C_R   0.627326 0.039035 0.519965 0.125255
C64   C     C_R   0.461143 0.872615 0.980036 0.123946
C65   C     C_R   0.538935 0.127381 0.020014 0.126289
C66   C     C_R   0.131757 0.522115 0.980640 0.124806
C67   C     C_R   0.868192 0.478241 0.019371 0.125497
C68   C     C_R   0.522063 0.131764 0.980641 0.124643
C69   C     C_R   0.478289 0.868183 0.019370 0.125262
C70   C     C_R   0.872630 0.461100 0.980037 0.124029
C71   C     C_R   0.564183 0.015947 0.582210 0.072262
C72   C     C_R   0.127366 0.538985 0.020013 0.126322
C73   C     C_R   0.500923 0.999910 0.355774 0.545190
C74   C     C_R   0.499074 0.000081 0.644221 0.543997
C75   C     C_R   0.999913 0.500954 0.355774 0.549581
C76   C     C_R   0.000079 0.499046 0.644221 0.545914
C77   C     C_R   0.000922 0.499918 0.855779 0.541569
C78   C     C_R   0.999081 0.500090 0.144226 0.543622
C79   C     C_R   0.499917 0.000920 0.855779 0.543832
C80   C     C_R   0.500091 0.999082 0.144227 0.544913
C81   C     C_R   0.360051 0.139951 0.250000 0.470335
C82   C     C_R   0.983803 0.435912 0.417764 0.068846
C83   C     C_R   0.639951 0.860049 0.750000 0.469940
C84   C     C_R   0.860049 0.360072 0.250011 0.470265
C85   C     C_R   0.139958 0.639921 0.749991 0.471303
C86   C     C_R   0.639996 0.859995 0.249976 0.477537
C87   C     C_R   0.360022 0.140026 0.749999 0.476085
C88   C     C_R   0.139931 0.639948 0.249987 0.473742
C89   C     C_R   0.860085 0.360035 0.750006 0.475065
C90   C     C_R   0.360038 0.860083 0.750006 0.472639
C91   C     C_R   0.639951 0.139928 0.249989 0.472485
C92   C     C_R   0.860050 0.639952 0.749999 0.469554
C93   C     C_R   0.016302 0.564069 0.582215 0.071569
C94   C     C_R   0.139952 0.360052 0.249998 0.469923
C95   C     C_R   0.639922 0.139957 0.749990 0.472416
C96   C     C_R   0.360074 0.860049 0.250010 0.472228
C97   C     C_R   0.140231 0.360211 0.750208 0.538936
C98   C     C_R   0.859715 0.639734 0.249836 0.540965
C99   C     C_R   0.231421 0.822371 0.260391 0.272870
C100  C     C_R   0.768690 0.177513 0.739887 0.271554
C101  C     C_R   0.177083 0.230854 0.259066 0.270475
C102  C     C_R   0.765099 0.711342 0.784695 0.272957
C103  C     C_R   0.768623 0.177529 0.260221 0.273284
C104  C     C_R   0.566208 0.014852 0.418005 0.067379
C105  C     C_R   0.231338 0.822508 0.739844 0.273595
C106  C     C_R   0.767932 0.714585 0.214229 0.252326
C107  C     C_R   0.175989 0.231279 0.746206 0.259646
C108  C     C_R   0.229862 0.176702 0.744733 0.205238
C109  C     C_R   0.714270 0.768369 0.214473 0.272733
C110  C     C_R   0.177555 0.768655 0.739803 0.272080
C111  C     C_R   0.822431 0.231357 0.260236 0.273087
C112  C     C_R   0.711341 0.765099 0.784696 0.272888
C113  C     C_R   0.230850 0.177083 0.259066 0.270420
C114  C     C_R   0.822547 0.231289 0.739935 0.271547
C115  C     C_R   0.433910 0.984722 0.581969 0.067026
C116  C     C_R   0.177593 0.768561 0.260375 0.272616
C117  C     C_R   0.731323 0.322467 0.760108 0.271775
C118  C     C_R   0.268592 0.677622 0.239600 0.272602
C119  C     C_R   0.734904 0.788660 0.715303 0.272614
C120  C     C_R   0.322924 0.269153 0.240925 0.270392
C121  C     C_R   0.268652 0.677504 0.760156 0.274290
C122  C     C_R   0.731377 0.322472 0.239781 0.273178
C123  C     C_R   0.324385 0.270290 0.755909 0.267785
C124  C     C_R   0.731234 0.784401 0.285052 0.209916
C125  C     C_R   0.783518 0.728229 0.284808 0.265726
C126  C     C_R   0.515176 0.066106 0.918031 0.066751
C127  C     C_R   0.270992 0.324333 0.755953 0.247479
C128  C     C_R   0.677569 0.268644 0.239765 0.272743
C129  C     C_R   0.322437 0.731353 0.760193 0.272269
C130  C     C_R   0.269155 0.322924 0.240924 0.270389
C131  C     C_R   0.788663 0.734903 0.715302 0.272666
C132  C     C_R   0.322419 0.731434 0.239612 0.273338
C133  C     C_R   0.677474 0.268683 0.760072 0.274392
C134  C     C_R   0.979094 0.436118 0.458728 0.003169
C135  C     C_R   0.020830 0.563890 0.541244 0.003143
C136  C     C_R   0.567286 0.010476 0.459018 0.002521
H1    H     H_    0.253888 0.921736 0.278357 0.331109
H2    H     H_    0.631318 0.805305 0.184387 0.332835
H3    H     H_    0.078257 0.746277 0.721752 0.332940
H4    H     H_    0.921800 0.253726 0.278205 0.331158
H5    H     H_    0.627254 0.801902 0.814160 0.337145
H6    H     H_    0.252289 0.077386 0.276748 0.331723
H7    H     H_    0.922143 0.253576 0.722147 0.345125
H8    H     H_    0.078209 0.746010 0.278391 0.337800
H9    H     H_    0.753644 0.421782 0.778142 0.332207
H10   H     H_    0.246118 0.578239 0.221663 0.330842
H11   H     H_    0.698127 0.872767 0.685846 0.336824
H12   H     H_    0.746361 0.078193 0.721860 0.333031
H13   H     H_    0.422627 0.247706 0.223254 0.331720
H14   H     H_    0.246269 0.578035 0.778085 0.328941
H15   H     H_    0.753828 0.421876 0.221779 0.331298
H16   H     H_    0.424551 0.250767 0.772907 0.329755
H17   H     H_    0.697414 0.869158 0.314771 0.347941
H18   H     H_    0.799745 0.732600 0.341231 0.396293
H19   H     H_    0.252223 0.425258 0.771893 0.325468
H20   H     H_    0.578197 0.246276 0.221800 0.331174
H21   H     H_    0.421735 0.753727 0.778245 0.332782
H22   H     H_    0.247707 0.422632 0.223260 0.331672
H23   H     H_    0.077420 0.252294 0.276788 0.331603
H24   H     H_    0.872754 0.698097 0.685838 0.336760
H25   H     H_    0.421817 0.754008 0.221607 0.332496
H26   H     H_    0.578010 0.246356 0.778013 0.330051
H27   H     H_    0.801899 0.627251 0.814157 0.337076
H28   H     H_    0.746170 0.078125 0.278223 0.332617
H29   H     H_    0.253709 0.922019 0.721963 0.330651
H30   H     H_    0.806249 0.633025 0.183563 0.328222
H31   H     H_    0.094909 0.162051 0.739502 0.406099
H32   H     H_    0.249176 0.077617 0.725918 0.345143
I1    I     I_    0.877525 0.297599 0.461469 -0.107565
I2    I     I_    0.620864 0.203359 0.038525 -0.105021
I3    I     I_    0.236178 0.481004 0.963102 -0.107377
I4    I     I_    0.763865 0.519842 0.036724 -0.075374
I5    I     I_    0.480916 0.236169 0.963104 -0.106965
I6    I     I_    0.519926 0.763871 0.036721 -0.075028
I7    I     I_    0.796810 0.378862 0.961740 -0.109350
I8    I     I_    0.203313 0.620946 0.038524 -0.104962
I9    I     I_    0.067847 0.651887 0.385066 -0.170595
I10   I     I_    0.931209 0.348504 0.614867 -0.176471
I11   I     I_    0.336524 0.996701 0.384569 -0.197663
I12   I     I_    0.122495 0.702366 0.538314 -0.108956
I13   I     I_    0.663461 0.004136 0.615447 -0.182484
I14   I     I_    0.995655 0.336572 0.384560 -0.199943
I15   I     I_    0.004946 0.663413 0.615448 -0.183144
I16   I     I_    0.652335 0.066667 0.385002 -0.192445
I17   I     I_    0.348156 0.932124 0.614897 -0.192375
I18   I     I_    0.567665 0.151926 0.885102 -0.191303
I19   I     I_    0.433575 0.847572 0.115006 -0.189134
I20   I     I_    0.836529 0.496025 0.884553 -0.181248
I21   I     I_    0.163485 0.503097 0.115431 -0.197316
I22   I     I_    0.496067 0.836525 0.884550 -0.180370
I23   I     I_    0.736154 0.980410 0.463278 -0.090629
I24   I     I_    0.503032 0.163488 0.115433 -0.197451
I25   I     I_    0.151905 0.567722 0.885102 -0.193048
I26   I     I_    0.847597 0.433509 0.115004 -0.191310
I27   I     I_    0.263802 0.018720 0.536886 -0.108611
I28   I     I_    0.981878 0.736271 0.463270 -0.092396
I29   I     I_    0.017313 0.263680 0.536845 -0.105629
I30   I     I_    0.296842 0.878799 0.461475 -0.106568
I31   I     I_    0.703059 0.121350 0.538264 -0.108614
I32   I     I_    0.378932 0.796766 0.961743 -0.108855
O1    O     O_3   0.500000 0.000000 0.250000 -0.480310
O2    O     O_R   0.500000 0.939270 0.662450 -0.505506
O3    O     O_R   0.939270 0.500000 0.337550 -0.507717
O4    O     O_R   0.060730 0.500000 0.662450 -0.515061
O5    O     O_R   0.000000 0.439270 0.837550 -0.523367
O6    O     O_R   0.000000 0.560730 0.162450 -0.517938
O7    O     O_R   0.560730 1.000000 0.837550 -0.505556
O8    O     O_R   0.439270 1.000000 0.162450 -0.507108
O9    O     O_R   0.000000 0.560730 0.837550 -0.505944
O10   O     O_R   1.000000 0.439270 0.162450 -0.507355
O11   O     O_R   0.439270 1.000000 0.837550 -0.518132
O12   O     O_3   0.500000 1.000000 0.750000 -0.480037
O13   O     O_R   0.560730 1.000000 0.162450 -0.514991
O14   O     O_R   0.414490 0.146150 0.273020 -0.520232
O15   O     O_R   0.585510 0.853850 0.726980 -0.519149
O16   O     O_R   0.853850 0.414490 0.273020 -0.525468
O17   O     O_R   0.146150 0.585510 0.726980 -0.523365
O18   O     O_R   0.585510 0.853850 0.273020 -0.517729
O19   O     O_R   0.414490 0.146150 0.726980 -0.523644
O20   O     O_R   0.146150 0.585510 0.273020 -0.517791
O21   O     O_R   0.853850 0.414490 0.726980 -0.516475
O22   O     O_R   0.414490 0.853850 0.726980 -0.516155
O23   O     O_3   0.000000 0.500000 0.250000 -0.484064
O24   O     O_R   0.585510 0.146150 0.273020 -0.517730
O25   O     O_R   0.853850 0.585510 0.726980 -0.520094
O26   O     O_R   0.146150 0.414490 0.273020 -0.521283
O27   O     O_R   0.585510 0.146150 0.726980 -0.520555
O28   O     O_R   0.414490 0.853850 0.273020 -0.520409
O29   O     O_R   0.146150 0.414490 0.726980 -0.530848
O30   O     O_R   0.853850 0.585510 0.273020 -0.488119
O31   O     O_R   0.914490 0.646150 0.773020 -0.520065
O32   O     O_R   0.085510 0.353850 0.226980 -0.520062
O33   O     O_R   0.353850 0.914490 0.773020 -0.520809
O34   O     O_3   0.000000 0.500000 0.750000 -0.483702
O35   O     O_R   0.646150 0.085510 0.226980 -0.519399
O36   O     O_R   0.085510 0.353850 0.773020 -0.489433
O37   O     O_R   0.914490 0.646150 0.226980 -0.529832
O38   O     O_R   0.646150 0.085510 0.773020 -0.516851
O39   O     O_R   0.353850 0.914490 0.226980 -0.517643
O40   O     O_R   0.914490 0.353850 0.226980 -0.518186
O41   O     O_R   0.085510 0.646150 0.773020 -0.517135
O42   O     O_R   0.353850 0.085510 0.226980 -0.520061
O43   O     O_R   0.646150 0.914490 0.773020 -0.520044
O44   O     O_R   0.085510 0.646150 0.226980 -0.517901
O45   O     O_R   0.500000 0.939270 0.337550 -0.515278
O46   O     O_R   0.914490 0.353850 0.773020 -0.514744
O47   O     O_R   0.646150 0.914490 0.226980 -0.522579
O48   O     O_R   0.353850 0.085510 0.773020 -0.518786
O49   O     O_3   0.210571 0.891836 0.271880 -0.558928
O50   O     O_3   0.789617 0.107941 0.728641 -0.572781
O51   O     O_3   0.107046 0.209416 0.269329 -0.557653
O52   O     O_3   0.775969 0.673640 0.819166 -0.568310
O53   O     O_3   0.789478 0.107973 0.271582 -0.568666
O54   O     O_3   0.210431 0.892100 0.728564 -0.565940
O55   O     O_3   0.782450 0.680757 0.179055 -0.576398
O56   O     O_R   0.500000 0.060730 0.662450 -0.517185
O57   O     O_3   0.102494 0.215485 0.741254 -0.627118
O58   O     O_3   0.208162 0.105559 0.737288 -0.641064
O59   O     O_3   0.679605 0.782906 0.179529 -0.573089
O60   O     O_3   0.108019 0.789551 0.728484 -0.571334
O61   O     O_3   0.891958 0.210453 0.271576 -0.559064
O62   O     O_3   0.673638 0.775970 0.819167 -0.568395
O63   O     O_3   0.209402 0.107050 0.269333 -0.557620
O64   O     O_3   0.892179 0.210329 0.728749 -0.565762
O65   O     O_3   0.108100 0.789361 0.271883 -0.565474
O66   O     O_3   0.710391 0.392037 0.771354 -0.567592
O67   O     O_R   0.060730 0.500000 0.337550 -0.508459
O68   O     O_3   0.289443 0.608157 0.228108 -0.559457
O69   O     O_3   0.724029 0.826361 0.680832 -0.569013
O70   O     O_3   0.392957 0.290596 0.230655 -0.557906
O71   O     O_3   0.289552 0.607916 0.771445 -0.560200
O72   O     O_3   0.710521 0.392028 0.228420 -0.569920
O73   O     O_3   0.395583 0.292275 0.762882 -0.557641
O74   O     O_3   0.717197 0.819801 0.319860 -0.654851
O75   O     O_3   0.819740 0.706742 0.318311 -0.631435
O76   O     O_3   0.293711 0.395399 0.762616 -0.560621
O77   O     O_3   0.608041 0.289549 0.228426 -0.559392
O78   O     O_R   0.939270 0.500000 0.662450 -0.506111
O79   O     O_3   0.391973 0.710455 0.771511 -0.567426
O80   O     O_3   0.290602 0.392956 0.230653 -0.557950
O81   O     O_3   0.826366 0.724031 0.680831 -0.569143
O82   O     O_3   0.391908 0.710636 0.228090 -0.568961
O83   O     O_3   0.607851 0.289615 0.771280 -0.559415
O84   O     O_R   0.500000 0.060730 0.337550 -0.506718
Zn1   Zn    Zn3+2 0.413190 1.000000 0.217350 0.999097
Zn2   Zn    Zn3+2 0.086810 0.500000 0.282650 1.003082
Zn3   Zn    Zn3+2 0.500000 0.913190 0.717350 1.001387
Zn4   Zn    Zn3+2 0.500000 0.086810 0.282650 0.999290
Zn5   Zn    Zn3+2 0.086810 0.500000 0.717350 0.999385
Zn6   Zn    Zn3+2 0.913190 0.500000 0.282650 1.014503
Zn7   Zn    Zn3+2 0.500000 0.086810 0.717350 0.992854
Zn8   Zn    Zn3+2 0.500000 0.913190 0.282650 0.995442
Zn9   Zn    Zn3+2 0.586810 0.000000 0.782650 1.000106
Zn10  Zn    Zn3+2 0.000000 0.413190 0.217350 0.995983
Zn11  Zn    Zn3+2 0.000000 0.586810 0.782650 0.997141
Zn12  Zn    Zn3+2 0.586810 1.000000 0.217350 0.996115
Zn13  Zn    Zn3+2 0.413190 0.000000 0.782650 0.992274
Zn14  Zn    Zn3+2 0.000000 0.586810 0.217350 1.002533
Zn15  Zn    Zn3+2 0.000000 0.413190 0.782650 1.010083
Zn16  Zn    Zn3+2 0.913190 0.500000 0.717350 1.005265

loop_
_geom_bond_atom_site_label_1
_geom_bond_atom_site_label_2
_ccdc_geom_bond_type
C105  C110  A    
C101  C113  A    
H8    O65   S    
C117  C133  A    
C75   O67   A    
O33   Zn13  S    
C31   C101  A    
C47   C76   S    
C31   C130  A    
C32   C133  A    
C1    C46   A    
C12   C126  A    
C19   C113  A    
C24   C54   A    
C30   C131  A    
C5    C36   A    
C58   I27   S    
C120  O70   S    
H29   O54   S    
C113  O63   S    
C114  O64   S    
C111  O61   S    
C44   C53   A    
C66   C72   A    
H28   O53   S    
O67   Zn2   S    
H9    O66   S    
C117  O66   S    
C10   C41   A    
C5    C49   A    
O11   Zn13  S    
O23   Zn14  S    
O12   Zn13  S    
C61   I29   S    
C99   C116  A    
H25   O82   S    
C133  O83   S    
C8    C35   A    
C81   O42   A    
C82   C134  A    
O42   Zn1   S    
C110  O60   S    
C37   C38   A    
C77   O5    A    
C83   O15   A    
C65   C68   A    
H3    O60   S    
C30   C102  A    
O9    Zn11  S    
C2    C52   A    
C17   C118  A    
C73   O84   A    
C19   C120  A    
C35   I22   S    
C64   I32   S    
C35   C51   A    
C96   O39   A    
H6    O63   S    
C36   C135  A    
O1    Zn1   S    
C29   C91   S    
O37   Zn14  S    
C125  O75   S    
C45   I26   S    
C18   C89   S    
O34   Zn16  S    
H19   O76   S    
C56   C59   A    
C65   I2    S    
O29   Zn5   S    
H23   O51   S    
C93   I15   S    
C79   O7    A    
O15   Zn3   S    
C2    C14   A    
C9    C65   A    
C73   O45   A    
H7    O64   S    
H31   O57   S    
C91   O24   A    
C86   O47   A    
C71   I13   S    
C99   O49   S    
O44   Zn14  S    
C98   O37   A    
H26   O83   S    
C60   I11   S    
C12   C68   A    
O3    Zn6   S    
O27   Zn7   S    
C96   O28   A    
H27   O52   S    
H13   O70   S    
C50   C74   S    
C89   O21   A    
O16   Zn6   S    
C43   C52   A    
C34   C134  A    
C91   O35   A    
O20   Zn2   S    
C86   O18   A    
C22   C85   S    
C2    I19   S    
C98   O30   A    
C123  C127  A    
C119  C131  A    
C107  C108  A    
C78   O10   A    
O39   Zn1   S    
C130  O80   S    
C46   C75   S    
O12   Zn3   S    
C57   C63   A    
C95   O27   A    
C10   C66   A    
C119  O69   S    
O78   Zn16  S    
C9    C43   A    
C10   C44   A    
C66   I3    S    
C100  C114  A    
C30   C92   S    
C39   C40   A    
C75   O3    A    
C27   C106  A    
O14   Zn4   S    
O47   Zn12  S    
C32   C100  A    
C90   O33   A    
C33   C99   A    
H21   O79   S    
H22   O80   S    
H30   O55   S    
C5    C61   A    
C64   C69   A    
O7    Zn9   S    
C25   C123  A    
C7    C63   A    
C8    C64   A    
C33   C132  A    
C80   O8    A    
C43   I24   S    
O30   Zn6   S    
C33   C96   S    
C131  O81   S    
C56   I12   S    
C15   C70   A    
C104  C136  A    
C51   C126  A    
O26   Zn2   S    
C93   C135  A    
C68   I5    S    
C80   O13   A    
C67   I4    S    
C31   C94   S    
C82   I14   S    
C107  O57   S    
C67   C70   A    
O34   Zn11  S    
O19   Zn7   S    
O46   Zn15  S    
C55   C61   A    
C34   C36   A    
C26   C127  A    
C51   C79   S    
C118  C132  A    
C26   C97   S    
C32   C95   S    
O23   Zn6   S    
C19   C81   S    
O56   Zn7   S    
C123  O73   S    
C106  C109  A    
C58   C62   A    
C132  O82   S    
O21   Zn16  S    
C41   C42   A    
C102  C112  A    
C16   C72   A    
C79   O11   A    
C44   I25   S    
O25   Zn16  S    
C57   I23   S    
H16   O73   S    
C115  I17   S    
H15   O72   S    
C83   O43   A    
C25   C87   S    
C11   C42   A    
C103  C111  A    
C50   C115  A    
O10   Zn10  S    
C21   C122  A    
H32   O58   S    
O35   Zn12  S    
C20   C112  A    
O13   Zn12  S    
C22   C110  A    
C23   C86   S    
C121  O71   S    
C122  O72   S    
O4    Zn5   S    
C101  O51   S    
C105  O54   S    
O17   Zn5   S    
C21   C111  A    
C13   C53   A    
C23   C109  A    
C94   O32   A    
H24   O81   S    
O84   Zn4   S    
C15   C41   A    
C74   O2    A    
C92   O31   A    
C97   O36   A    
C9    C40   A    
C88   O20   A    
C53   C77   S    
C50   C71   A    
C78   O6    A    
O22   Zn3   S    
O23   Zn2   S    
C21   C84   S    
C126  I18   S    
C28   C105  A    
O40   Zn10  S    
C85   O41   A    
C37   C136  A    
H10   O68   S    
C18   C117  A    
O12   Zn7   S    
C118  O68   S    
C104  I16   S    
O1    Zn8   S    
C103  O53   S    
C120  C130  A    
C11   C45   A    
C69   I6    S    
H5    O62   S    
C22   C121  A    
C49   I10   S    
H2    O59   S    
C48   C73   S    
C121  C129  A    
H14   O71   S    
C88   O44   A    
H1    O49   S    
C59   I28   S    
C55   C134  A    
C6    C62   A    
C12   C39   A    
H11   O69   S    
C3    C115  A    
C27   C125  A    
C72   I8    S    
C122  C128  A    
C94   O26   A    
O32   Zn10  S    
C3    C58   A    
C28   C90   S    
C52   C80   S    
C55   I1    S    
C20   C119  A    
C25   C108  A    
C54   C78   S    
C27   C98   S    
C109  O59   S    
C17   C88   S    
O34   Zn15  S    
C108  O58   S    
C127  O76   S    
O5    Zn15  S    
C18   C114  A    
C87   O48   A    
C47   C49   A    
C102  O52   S    
C90   O22   A    
C100  O50   S    
C7    C71   A    
O38   Zn9   S    
O34   Zn5   S    
C48   C104  A    
O23   Zn10  S    
C89   O46   A    
C29   C103  A    
C28   C129  A    
C85   O17   A    
O12   Zn9   S    
C124  O74   S    
C97   O29   A    
C3    C38   A    
C57   C136  A    
H17   O74   S    
C8    C39   A    
C87   O19   A    
C70   I7    S    
C77   O9    A    
C16   C24   A    
C13   I20   S    
C46   C82   A    
C84   O40   A    
C1    I9    S    
C11   C67   A    
C48   C60   A    
O45   Zn8   S    
C47   C93   A    
C4    C34   A    
C6    C60   A    
C62   I30   S    
C116  O65   S    
O36   Zn15  S    
C95   O38   A    
O31   Zn11  S    
C81   O14   A    
C6    C37   A    
O28   Zn8   S    
O1    Zn4   S    
C24   I21   S    
O2    Zn3   S    
O24   Zn4   S    
C45   C54   A    
H4    O61   S    
C13   C15   A    
O48   Zn13  S    
C29   C128  A    
C16   C42   A    
C128  O77   S    
O6    Zn14  S    
C56   C135  A    
C106  O55   S    
C26   C107  A    
C92   O25   A    
C76   O4    A    
C23   C124  A    
O43   Zn9   S    
O41   Zn11  S    
H12   O50   S    
C76   O78   A    
C1    C4    A    
H20   O77   S    
O8    Zn1   S    
O1    Zn12  S    
C4    C59   A    
C14   C69   A    
C7    C38   A    
C63   I31   S    
C129  O79   S    
H18   O75   S    
C14   C40   A    
C20   C83   S    
C112  O62   S    
C74   O56   A    
C84   O16   A    
C17   C116  A    
O18   Zn8   S    
C124  C125  A    
