data_mof_unit_19180.cif
_audit_creation_date              2012-10-26T19:29:00-0400
_audit_creation_method            fapswitch 2.2
_symmetry_space_group_name_H-M    P1
_symmetry_Int_Tables_number       1
_space_group_crystal_system       triclinic
_cell_length_a                    9.555167
_cell_length_b                    10.817683
_cell_length_c                    17.223811
_cell_angle_alpha                 89.86059
_cell_angle_beta                  89.275349
_cell_angle_gamma                 89.647679
_cell_volume                      1780.15423641

loop_
_atom_site_label
_atom_site_type_symbol
_atom_type_description
_atom_site_fract_x
_atom_site_fract_y
_atom_site_fract_z
_atom_type_partial_charge
Br1   Br    Br    0.242537 0.090082 0.412548 -0.369898
Br2   Br    Br    0.878998 0.273919 0.408245 -0.464261
Br3   Br    Br    0.129433 0.302331 0.614683 -0.492312
Br4   Br    Br    0.875638 0.512470 0.669116 -0.501240
C1    C     C_R   0.500621 0.739506 0.502883 0.527054
C2    C     C_R   0.520418 0.498343 0.263746 -0.037012
C3    C     C_3   0.473642 0.928208 0.422797 -0.200534
C4    C     C_R   0.485377 0.493251 0.649279 0.547751
C5    C     C_3   0.444615 0.067918 0.426097 0.059788
C6    C     C_3   0.396298 0.927873 0.565624 -0.220368
C7    C     C_3   0.649799 0.927427 0.527877 -0.248772
C8    C     C_3   0.504042 0.877221 0.504956 0.013928
C9    C     C_3   0.500081 0.120745 0.504330 0.014696
C10   C     C_3   0.408126 0.070138 0.572120 -0.218184
C11   C     C_3   0.651081 0.069177 0.517718 -0.258089
C12   C     C_R   0.392717 0.519817 0.784030 -0.093741
C13   C     C_3   0.917740 0.371491 0.502159 0.132413
C14   C     C_3   0.082156 0.371989 0.513044 0.128750
C15   C     C_3   0.915531 0.556736 0.427533 -0.090849
C16   C     C_R   0.500098 0.259765 0.502103 0.566327
C17   C     C_3   0.918311 0.572915 0.564311 0.110669
C18   C     C_3   0.080186 0.543025 0.422300 0.180576
C19   C     C_3   0.083117 0.580261 0.559204 -0.069593
C20   C     C_R   0.515078 0.495772 0.349736 0.576522
C21   C     C_R   0.488114 0.465707 0.731944 0.040297
C22   C     C_R   0.592232 0.385138 0.759155 -0.090294
C23   C     C_R   0.424583 0.469430 0.135426 -0.048621
C24   C     C_R   0.608548 0.366244 0.838072 -0.075880
C25   C     C_R   0.517014 0.423577 0.890630 0.011061
C26   C     C_R   0.407384 0.498885 0.863461 -0.108829
C27   C     C_R   0.412347 0.453577 0.215227 0.278423
C28   C     C_R   0.640157 0.551163 0.228448 -0.130043
C29   C     C_R   0.655531 0.557510 0.147712 0.281806
C30   C     C_R   0.546926 0.514240 0.101225 0.000263
C31   C     C_2   0.538919 0.409383 0.974096 0.202011
C32   C     C_2   0.556969 0.512848 0.016304 -0.074575
Cu1   Cu    Cu3+1 0.357600 0.500140 0.499960 1.053857
Cu2   Cu    Cu3+1 0.642400 0.499860 0.500040 0.976998
H1    H     H_    0.662930 0.338291 0.719188 0.164861
H2    H     H_    0.698966 0.112340 0.569543 0.148396
H3    H     H_    0.414823 0.885214 0.623479 0.114389
H4    H     H_    0.454796 0.095339 0.628773 0.125788
H5    H     H_    0.867406 0.320520 0.550926 0.204479
H6    H     H_    0.130154 0.307444 0.470930 0.227804
H7    H     H_    0.872881 0.516595 0.373966 0.190462
H8    H     H_    0.102656 0.471887 0.378101 0.208660
H9    H     H_    0.874877 0.668550 0.563202 0.140014
H10   H     H_    0.722911 0.587334 0.264023 0.178281
H11   H     H_    0.129504 0.560454 0.616353 0.205328
H12   H     H_    0.384430 0.881350 0.396883 0.206484
H13   H     H_    0.114049 0.676979 0.548722 0.147099
H14   H     H_    0.879421 0.654681 0.426864 0.163112
H15   H     H_    0.568796 0.601489 0.987149 0.157085
H16   H     H_    0.335286 0.543067 0.903905 0.140989
H17   H     H_    0.339637 0.440611 0.098595 0.201589
H18   H     H_    0.310588 0.580725 0.763583 0.139480
H19   H     H_    0.695002 0.309863 0.857908 0.192476
H20   H     H_    0.863124 0.768228 0.029485 0.386694
H21   H     H_    0.158334 0.206267 0.202167 0.404247
H22   H     H_    0.353236 0.714784 0.336156 0.332051
H23   H     H_    0.564620 0.909604 0.383388 0.116324
H24   H     H_    0.516655 0.134716 0.917072 0.350479
H25   H     H_    0.498399 0.113689 0.376167 0.173590
H26   H     H_    0.288299 0.903309 0.548466 0.202203
H27   H     H_    0.301791 0.110508 0.571326 0.216322
H28   H     H_    0.672607 0.902666 0.589216 0.145402
H29   H     H_    0.734633 0.886618 0.490964 0.165074
H30   H     H_    0.717293 0.090552 0.466406 0.201268
N1    N     N_3   0.856560 0.499750 0.498270 -0.278623
N2    N     N_3   0.143860 0.496700 0.498910 -0.293124
O1    O     O_R   0.379740 0.682430 0.499960 -0.480868
O2    O     O_2   0.874896 0.521109 0.052620 -0.232070
O3    O     O_3   0.773753 0.744498 0.055022 -0.496421
O4    O     O_2   0.277404 0.318843 0.325835 -0.264808
O5    O     O_2   0.136505 0.448597 0.238735 -0.216097
O6    O     O_3   0.245859 0.247088 0.184811 -0.433178
O7    O     O_2   0.023007 0.736850 0.326759 -0.206738
O8    O     O_2   0.167436 0.786376 0.435429 -0.322022
O9    O     O_3   0.273751 0.669345 0.314552 -0.453813
O10   O     O_2   0.625835 0.252279 0.086349 -0.179386
O11   O     O_2   0.388854 0.225223 0.037322 -0.228513
O12   O     O_R   0.620260 0.682190 0.500020 -0.531210
O13   O     O_3   0.596718 0.152158 0.951273 -0.482486
O14   O     O_R   0.365800 0.500150 0.613560 -0.501993
O15   O     O_R   0.606310 0.499910 0.613620 -0.466301
O16   O     O_R   0.379740 0.317810 0.499980 -0.457594
O17   O     O_R   0.620260 0.317570 0.500040 -0.495993
O18   O     O_R   0.393690 0.500090 0.386380 -0.425304
O19   O     O_R   0.634200 0.499850 0.386440 -0.514343
O20   O     O_2   0.915224 0.647560 0.168124 -0.188862
S1    S     S_3+6 0.811837 0.616375 0.106206 0.071484
S2    S     S_3+6 0.264280 0.367747 0.245066 0.083594
S3    S     S_3+6 0.138770 0.687906 0.376870 0.061140
S4    S     S_3+6 0.536654 0.257877 0.015143 0.073003

loop_
_geom_bond_atom_site_label_1
_geom_bond_atom_site_label_2
_ccdc_geom_bond_type
C14   N2    S    
C2    C28   A    
H24   O13   S    
H22   O9    S    
C13   N1    S    
O11   S4    D    
Cu1   O18   S    
C31   C32   D    
C20   O19   A    
C13   H5    S    
Cu1   O1    S    
C24   H19   S    
C26   H16   S    
Cu2   O19   S    
C25   C26   A    
C24   C25   A    
O9    S3    S    
C29   S1    S    
C23   H17   S    
C22   H1    S    
C19   H11   S    
O8    S3    D    
C12   C26   A    
C16   O17   A    
Br3   C14   S    
C4    O15   A    
O4    S2    D    
C5    C9    S    
C3    H23   S    
C32   H15   S    
C7    C11   S    
C15   H14   S    
C16   O16   A    
Cu1   O14   S    
C7    H28   S    
C10   H4    S    
C2    C27   A    
Cu2   N1    S    
C5    H25   S    
C9    C10   S    
Cu2   O12   S    
Br2   C13   S    
C4    C21   S    
C28   H10   S    
C19   N2    S    
C7    H29   S    
C13   C14   S    
C23   C30   A    
C3    C8    S    
Cu2   O15   S    
C23   C27   A    
Cu1   O16   S    
C15   C18   S    
Br1   C5    S    
O3    S1    S    
C1    C8    S    
C6    C10   S    
O2    S1    D    
C21   C22   A    
O13   S4    S    
C17   N1    S    
C12   H18   S    
Cu1   Cu2   S    
C14   H6    S    
C19   H13   S    
C2    C20   S    
C29   C30   A    
Br4   C17   S    
C20   O18   A    
C6    C8    S    
O5    S2    D    
O6    S2    S    
C18   H8    S    
C9    C11   S    
C18   S3    S    
C15   N1    S    
O10   S4    D    
C31   S4    S    
C12   C21   A    
C3    C5    S    
C9    C16   S    
C4    O14   A    
C6    H26   S    
C3    H12   S    
C7    C8    S    
C15   H7    S    
C25   C31   S    
C22   C24   A    
Cu2   O17   S    
C28   C29   A    
C17   C19   S    
C1    O1    A    
C1    O12   A    
O20   S1    D    
C6    H3    S    
C11   H30   S    
O7    S3    D    
C10   H27   S    
C30   C32   S    
C11   H2    S    
C27   S2    S    
Cu1   N2    S    
H21   O6    S    
C18   N2    S    
H20   O3    S    
C17   H9    S    
