data_mof_unit_14282.cif
_audit_creation_date              2012-12-11T15:49:05-0500
_audit_creation_method            fapswitch 2.2
_symmetry_space_group_name_H-M    P1
_symmetry_Int_Tables_number       1
_space_group_crystal_system       triclinic
_cell_length_a                    21.736341
_cell_length_b                    7.212639
_cell_length_c                    15.41707
_cell_angle_alpha                 90.0
_cell_angle_beta                  107.955603
_cell_angle_gamma                 89.999985
_cell_volume                      2299.31251591

loop_
_atom_site_label
_atom_site_type_symbol
_atom_type_description
_atom_site_fract_x
_atom_site_fract_y
_atom_site_fract_z
_atom_type_partial_charge
O1    O     O_R   0.335860 0.638190 0.002110 -0.547313
O2    O     O_R   0.664140 0.361810 0.997890 -0.547313
O3    O     O_R   0.164140 0.138190 0.997890 -0.547314
O4    O     O_R   0.835860 0.861810 0.002110 -0.547314
O5    O     O_R   0.217530 0.305920 0.861960 -0.554493
O6    O     O_R   0.782470 0.694080 0.138040 -0.554493
O7    O     O_R   0.282470 0.805920 0.138040 -0.554493
O8    O     O_R   0.717530 0.194080 0.861960 -0.554493
C1    C     C_R   0.204345 0.477666 0.826865 0.734834
C2    C     C_R   0.795655 0.522334 0.173135 0.734834
C3    C     C_R   0.295655 0.977666 0.173135 0.734834
C4    C     C_R   0.704345 0.022334 0.826865 0.734834
O9    O     O_R   0.338690 0.308320 0.993240 -0.512963
O10   O     O_R   0.661310 0.691680 0.006760 -0.512963
O11   O     O_R   0.161310 0.808320 0.006760 -0.512964
O12   O     O_R   0.838690 0.191680 0.993240 -0.512964
O13   O     O_R   0.286170 0.140430 0.130100 -0.523450
O14   O     O_R   0.713830 0.859570 0.869900 -0.523450
O15   O     O_R   0.213830 0.640430 0.869900 -0.523450
O16   O     O_R   0.786170 0.359570 0.130100 -0.523450
C5    C     C_R   0.365476 0.476642 0.000789 0.695269
C6    C     C_R   0.634524 0.523358 0.999211 0.695267
C7    C     C_R   0.134524 0.976642 0.999211 0.695266
C8    C     C_R   0.865476 0.023358 0.000789 0.695268
O17   O     O_3   0.232630 0.472410 0.044750 -0.376924
O18   O     O_3   0.767370 0.527590 0.955250 -0.376924
O19   O     O_3   0.267370 0.972410 0.955250 -0.376923
O20   O     O_3   0.732630 0.027590 0.044750 -0.376923
V1    V     V_3+5 0.253220 0.196620 0.991700 1.517652
V2    V     V_3+5 0.746780 0.803380 0.008300 1.517651
V3    V     V_3+5 0.246780 0.696620 0.008300 1.517651
V4    V     V_3+5 0.753220 0.303380 0.991700 1.517651
C9    C     C_R   0.036307 0.837353 0.029898 0.369316
C10   C     C_R   0.963693 0.162646 0.970102 0.369316
C11   C     C_R   0.463693 0.337354 0.970102 0.369315
C12   C     C_R   0.536307 0.662646 0.029898 0.369313
C13   C     C_R   0.973003 0.852945 0.035733 -0.197828
C14   C     C_R   0.026997 0.147055 0.964267 -0.197828
C15   C     C_R   0.526997 0.352945 0.964267 -0.197828
C16   C     C_R   0.473003 0.647054 0.035733 -0.197829
C17   C     C_R   0.935139 0.013475 0.003388 -0.238752
C18   C     C_R   0.064861 0.986525 0.996612 -0.238753
C19   C     C_R   0.564861 0.513474 0.996612 -0.238751
C20   C     C_R   0.435139 0.486525 0.003388 -0.238751
C21   C     C_R   0.677764 0.004856 0.727211 -0.143205
C22   C     C_R   0.322235 0.995143 0.272789 -0.143205
C23   C     C_R   0.822236 0.504857 0.272789 -0.143205
C24   C     C_R   0.177765 0.495143 0.727211 -0.143205
C25   C     C_R   0.687546 0.885473 0.585096 -0.094820
C26   C     C_R   0.312454 0.114527 0.414904 -0.094820
C27   C     C_R   0.812454 0.385472 0.414904 -0.094820
C28   C     C_R   0.187546 0.614527 0.585096 -0.094820
C29   C     C_R   0.714621 0.917829 0.678640 0.398832
C30   C     C_R   0.285379 0.082171 0.321360 0.398832
C31   C     C_R   0.785379 0.417829 0.321360 0.398833
C32   C     C_R   0.214621 0.582171 0.678640 0.398832
C33   C     C_R   0.612286 0.043373 0.683738 -0.259296
C34   C     C_R   0.387714 0.956626 0.316262 -0.259295
C35   C     C_R   0.887714 0.543374 0.316262 -0.259295
C36   C     C_R   0.112286 0.456626 0.683738 -0.259296
C37   C     C_R   0.582082 0.997945 0.590733 0.073923
C38   C     C_R   0.417917 0.002055 0.409267 0.073923
C39   C     C_R   0.917917 0.497945 0.409267 0.073923
C40   C     C_R   0.082083 0.502055 0.590733 0.073923
C41   C     C_R   0.622150 0.937174 0.538702 -0.008415
C42   C     C_R   0.377850 0.062825 0.461298 -0.008415
C43   C     C_R   0.877850 0.437174 0.461298 -0.008415
C44   C     C_R   0.122150 0.562825 0.538702 -0.008415
C45   C     C_R   0.513470 0.012847 0.548011 0.077224
C46   C     C_R   0.486530 0.987153 0.451989 0.077224
C47   C     C_R   0.986530 0.512847 0.451989 0.077224
C48   C     C_R   0.013470 0.487153 0.548011 0.077224
C49   C     C_R   0.529357 0.957900 0.400780 -0.242540
C50   C     C_R   0.470643 0.042100 0.599220 -0.242540
C51   C     C_R   0.970643 0.457900 0.599220 -0.242540
C52   C     C_R   0.029357 0.542100 0.400780 -0.242540
C53   C     C_R   0.595573 0.933183 0.442557 -0.037906
C54   C     C_R   0.404427 0.066816 0.557443 -0.037906
C55   C     C_R   0.904427 0.433183 0.557443 -0.037906
C56   C     C_R   0.095573 0.566816 0.442557 -0.037906
H1    H     H_    0.414242 0.892842 0.275580 0.144841
H2    H     H_    0.585757 0.107158 0.724420 0.144842
H3    H     H_    0.085758 0.392841 0.724420 0.144842
H4    H     H_    0.914242 0.607159 0.275580 0.144842
H5    H     H_    0.512643 0.959905 0.327151 0.129076
H6    H     H_    0.487357 0.040095 0.672849 0.129076
H7    H     H_    0.987357 0.459905 0.672849 0.129077
H8    H     H_    0.012643 0.540095 0.327151 0.129077
O21   O     O_3   0.065370 0.664430 0.040914 -0.535076
C57   C     C_3   0.093728 0.621475 0.133940 0.140776
H9    H     H_    0.071866 0.696063 0.180552 0.074669
H10   H     H_    0.145979 0.655077 0.153874 0.148103
C58   C     C_3   0.086921 0.414378 0.146106 -0.621649
H11   H     H_    0.116832 0.337591 0.111546 0.224799
H12   H     H_    0.103106 0.376834 0.218638 0.199861
H13   H     H_    0.035661 0.372172 0.118184 0.233262
O22   O     O_3   0.934629 0.335570 0.959085 -0.535076
C59   C     C_3   0.906272 0.378525 0.866059 0.140776
H14   H     H_    0.854021 0.344923 0.846125 0.148103
H15   H     H_    0.928134 0.303937 0.819448 0.074670
C60   C     C_3   0.913078 0.585622 0.853894 -0.621649
H16   H     H_    0.964339 0.627828 0.881817 0.233263
H17   H     H_    0.896894 0.623166 0.781362 0.199861
H18   H     H_    0.883167 0.662408 0.888453 0.224799
O23   O     O_3   0.434629 0.164431 0.959085 -0.535077
C61   C     C_3   0.406272 0.121475 0.866059 0.140776
H19   H     H_    0.428134 0.196066 0.819447 0.074668
H20   H     H_    0.354021 0.155073 0.846124 0.148105
C62   C     C_3   0.413081 0.914378 0.853893 -0.621645
H21   H     H_    0.383168 0.837589 0.888449 0.224797
H22   H     H_    0.396901 0.876836 0.781361 0.199854
H23   H     H_    0.464342 0.872175 0.881820 0.233266
O24   O     O_3   0.565371 0.835569 0.040915 -0.535077
C63   C     C_3   0.593728 0.878525 0.133941 0.140775
H24   H     H_    0.571866 0.803936 0.180553 0.074669
H25   H     H_    0.645979 0.844924 0.153875 0.148104
C64   C     C_3   0.586920 0.085621 0.146107 -0.621649
H26   H     H_    0.535660 0.127826 0.118182 0.233264
H27   H     H_    0.603103 0.123164 0.218638 0.199858
H28   H     H_    0.616832 0.162409 0.111549 0.224798
C65   C     C_1   0.948409 0.701165 0.077061 0.417097
N1    N     N_1   0.928795 0.580079 0.110152 -0.364709
C66   C     C_1   0.051591 0.298835 0.922939 0.417097
N2    N     N_1   0.071204 0.419921 0.889847 -0.364710
C67   C     C_1   0.551591 0.201164 0.922939 0.417096
N3    N     N_1   0.571205 0.080079 0.889848 -0.364710
C68   C     C_1   0.448409 0.798836 0.077061 0.417098
N4    N     N_1   0.428795 0.919921 0.110152 -0.364708
C69   C     C_1   0.636359 0.926874 0.384484 0.285389
N5    N     N_1   0.670744 0.923003 0.340319 -0.362516
C70   C     C_1   0.363641 0.073125 0.615516 0.285388
N6    N     N_1   0.329256 0.076995 0.659682 -0.362514
C71   C     C_1   0.863641 0.426874 0.615516 0.285390
N7    N     N_1   0.829256 0.423003 0.659681 -0.362517
C72   C     C_1   0.136359 0.573126 0.384484 0.285390
N8    N     N_1   0.170744 0.576997 0.340319 -0.362517
O25   O     O_3   0.224448 0.152565 0.276014 -0.553728
C73   C     C_3   0.177558 0.009879 0.258603 0.071246
H29   H     H_    0.198162 0.867988 0.261575 0.121930
H30   H     H_    0.144620 0.028892 0.188323 0.110233
C74   C     C_3   0.137282 0.023283 0.323883 -0.673043
H31   H     H_    0.122685 0.168134 0.330850 0.231323
H32   H     H_    0.092996 0.937448 0.298313 0.165158
H33   H     H_    0.165417 0.972370 0.392261 0.230602
O26   O     O_3   0.775552 0.847435 0.723986 -0.553728
C75   C     C_3   0.822442 0.990120 0.741397 0.071247
H34   H     H_    0.855380 0.971108 0.811677 0.110233
H35   H     H_    0.801838 0.132012 0.738424 0.121931
C76   C     C_3   0.862718 0.976717 0.676117 -0.673042
H36   H     H_    0.834582 0.027629 0.607739 0.230602
H37   H     H_    0.907004 0.062552 0.701687 0.165158
H38   H     H_    0.877315 0.831866 0.669150 0.231322
O27   O     O_3   0.275552 0.652565 0.723986 -0.553727
C77   C     C_3   0.322442 0.509880 0.741397 0.071250
H39   H     H_    0.301838 0.367988 0.738425 0.121929
H40   H     H_    0.355380 0.528893 0.811677 0.110233
C78   C     C_3   0.362717 0.523283 0.676116 -0.673044
H41   H     H_    0.377313 0.668134 0.669148 0.231324
H42   H     H_    0.407004 0.437450 0.701687 0.165159
H43   H     H_    0.334582 0.472368 0.607739 0.230601
O28   O     O_3   0.724448 0.347435 0.276014 -0.553728
C79   C     C_3   0.677558 0.490120 0.258603 0.071248
H44   H     H_    0.644620 0.471107 0.188323 0.110233
H45   H     H_    0.698162 0.632011 0.261576 0.121930
C80   C     C_3   0.637282 0.476716 0.323883 -0.673042
H46   H     H_    0.665418 0.527630 0.392261 0.230601
H47   H     H_    0.592996 0.562550 0.298313 0.165158
H48   H     H_    0.622686 0.331865 0.330851 0.231323
C81   C     C_1   0.728140 0.790721 0.540585 0.420087
N9    N     N_1   0.761387 0.717502 0.505428 -0.366875
C82   C     C_1   0.271860 0.209278 0.459415 0.420086
N10   N     N_1   0.238612 0.282497 0.494572 -0.366875
C83   C     C_1   0.771860 0.290720 0.459415 0.420087
N11   N     N_1   0.738613 0.217502 0.494572 -0.366875
C84   C     C_1   0.228140 0.709279 0.540585 0.420087
N12   N     N_1   0.261387 0.782498 0.505428 -0.366875

loop_
_geom_bond_atom_site_label_1
_geom_bond_atom_site_label_2
_ccdc_geom_bond_type
C34   C38   A    
C82   N10   T    
O1    C5    A    
C80   H46   S    
C15   C67   S    
O19   V1    S    
O13   V1    S    
C81   N9    T    
O3    C7    A    
O15   V3    S    
O22   C59   S    
C76   H36   S    
C66   N2    T    
C83   N11   T    
O7    C3    A    
C21   C33   A    
C60   H16   S    
C56   C72   S    
C25   C41   A    
C9    C18   A    
C40   C44   A    
O9    V1    S    
C14   C18   A    
C62   H22   S    
O26   C75   S    
C47   C52   A    
O4    C8    A    
C36   H3    S    
C30   O25   S    
C61   H19   S    
C79   C80   S    
O1    V3    S    
C10   O22   S    
C38   C46   A    
O2    V4    S    
C53   C69   S    
O3    V1    S    
C58   H12   S    
O24   C63   S    
C1    O15   A    
C78   H41   S    
C3    O13   A    
C6    C19   S    
C2    O16   A    
O2    C6    A    
C5    C20   S    
C26   C82   S    
O14   V2    S    
C72   N8    T    
C52   H8    S    
O5    V1    S    
C14   C66   S    
C28   C44   A    
O11   C7    A    
O25   C73   S    
C21   C29   A    
O12   C8    A    
C22   C34   A    
C8    C17   S    
C76   H37   S    
C80   H47   S    
C10   C17   A    
O10   V2    S    
C48   C51   A    
C42   C54   A    
C12   O24   S    
C24   C36   A    
C75   H35   S    
C55   C71   S    
C39   C43   A    
O7    V3    S    
C38   C42   A    
C28   C32   A    
O8    V4    S    
C12   C16   A    
C41   C53   A    
C35   H4    S    
C31   O28   S    
C77   C78   S    
C62   H21   S    
C74   H33   S    
O18   V4    S    
C4    C21   S    
C15   C19   A    
C16   C68   S    
C9    C13   A    
C74   H32   S    
C11   C15   A    
C54   C70   S    
O5    C1    A    
C11   O23   S    
C9    O21   S    
C75   C76   S    
C26   C42   A    
C57   H10   S    
C84   N12   T    
O8    C4    A    
C22   C30   A    
C46   C49   A    
C29   O26   S    
C77   H39   S    
O9    C5    A    
C45   C50   A    
C58   H11   S    
C27   C43   A    
C50   H6    S    
C33   C37   A    
C11   C20   A    
C7    C18   S    
C28   C84   S    
C49   H5    S    
C65   N1    T    
C75   H34   S    
C73   H30   S    
C13   C65   S    
C76   H38   S    
C51   H7    S    
O6    V2    S    
C39   C47   A    
C80   H48   S    
C59   H15   S    
C71   N7    T    
C62   H23   S    
O12   V4    S    
C44   C56   A    
C57   C58   S    
C23   C31   A    
C79   H44   S    
O16   V4    S    
C37   C45   A    
C24   C32   A    
C34   H1    S    
C10   C14   A    
C77   H40   S    
O17   V3    S    
C52   C56   A    
C32   O27   S    
C12   C19   A    
C73   C74   S    
O6    C2    A    
C63   H25   S    
O11   V3    S    
C68   N4    T    
C78   H43   S    
C58   H13   S    
C59   C60   S    
O23   C61   S    
C35   C39   A    
C60   H17   S    
C36   C40   A    
O10   C6    A    
C64   H27   S    
C69   N5    T    
C47   C48   A    
C26   C30   A    
C79   H45   S    
O28   C79   S    
C64   H26   S    
C25   C81   S    
C57   H9    S    
C67   N3    T    
C61   H20   S    
C25   C29   A    
O20   V2    S    
C64   H28   S    
C27   C31   A    
C63   H24   S    
C40   C48   A    
C13   C17   A    
C45   C46   A    
C63   C64   S    
C27   C83   S    
C73   H29   S    
C23   C35   A    
C37   C41   A    
C16   C20   A    
C1    C24   S    
C78   H42   S    
C59   H14   S    
C50   C54   A    
C4    O14   A    
C2    C23   S    
C49   C53   A    
C33   H2    S    
C3    C22   S    
C60   H18   S    
O21   C57   S    
C74   H31   S    
C51   C55   A    
C43   C55   A    
O4    V2    S    
C70   N6    T    
O27   C77   S    
C61   C62   S    
