data_mof_unit_7022.cif
_audit_creation_date              2013-03-05T15:48:07-0500
_audit_creation_method            fapswitch 2.2
_symmetry_space_group_name_H-M    P1
_symmetry_Int_Tables_number       1
_space_group_crystal_system       triclinic
_cell_length_a                    15.07017
_cell_length_b                    13.037742
_cell_length_c                    11.668543
_cell_angle_alpha                 99.563121
_cell_angle_beta                  93.488486
_cell_angle_gamma                 91.160593
_cell_volume                      2255.52322027

loop_
_atom_site_label
_atom_site_type_symbol
_atom_site_description
_atom_site_fract_x
_atom_site_fract_y
_atom_site_fract_z
_atom_type_partial_charge
O1    O     O_R   0.504720 0.354460 0.582000 -0.548486
O2    O     O_R   0.495280 0.645540 0.418000 -0.550173
O3    O     O_R   0.493480 0.341410 0.386200 -0.586247
O4    O     O_R   0.506520 0.658590 0.613800 -0.583606
C1    C     C_R   0.501766 0.299492 0.478909 0.909567
C2    C     C_R   0.498645 0.700562 0.521005 0.925726
O5    O     O_R   0.375880 0.506510 0.597910 -0.554449
O6    O     O_R   0.624120 0.493490 0.402090 -0.548228
O7    O     O_R   0.364640 0.493450 0.402110 -0.565240
O8    O     O_R   0.635360 0.506550 0.597890 -0.569452
C3    C     C_R   0.328904 0.498706 0.500740 0.960842
C4    C     C_R   0.671057 0.500214 0.499166 0.945364
Cu1   Cu    Cu3+1 0.506660 0.507730 0.615930 1.091574
Cu2   Cu    Cu3+1 0.493340 0.492270 0.384070 1.091289
C5    C     C_R   0.818133 0.589218 0.554071 0.353832
C6    C     C_R   0.181928 0.409125 0.445217 0.353824
C7    C     C_R   0.767556 0.501577 0.496851 -0.253896
C8    C     C_R   0.232328 0.496594 0.503229 -0.254252
C9    C     C_R   0.808888 0.415425 0.435930 0.272794
C10   C     C_R   0.191180 0.579792 0.569898 0.277084
C11   C     C_R   0.901702 0.417439 0.431715 -0.020659
C12   C     C_R   0.098313 0.577862 0.573880 -0.028902
C13   C     C_R   0.953185 0.498605 0.501927 -0.012149
C14   C     C_R   0.046779 0.497608 0.502067 -0.008099
C15   C     C_R   0.911153 0.580972 0.571317 -0.094570
C16   C     C_R   0.088663 0.416304 0.430697 -0.092871
C17   C     C_R   0.943460 0.342269 0.354878 -0.133287
C18   C     C_R   0.056174 0.653899 0.649327 -0.143940
C19   C     C_R   0.035610 0.344578 0.348755 0.339485
C20   C     C_R   0.963859 0.652898 0.653325 0.350619
H1    H     H_    0.904060 0.285486 0.293135 0.228180
H2    H     H_    0.094980 0.711789 0.710265 0.230136
C21   C     C_R   0.500049 0.813622 0.532390 -0.148363
C22   C     C_R   0.500877 0.186464 0.467130 -0.147969
C23   C     C_R   0.445812 0.021257 0.358767 -0.077989
C24   C     C_R   0.555451 0.978833 0.640591 -0.075388
C25   C     C_R   0.457981 0.127639 0.367281 -0.176989
C26   C     C_R   0.542772 0.872499 0.632348 -0.170976
C27   C     C_R   0.536292 0.137437 0.557945 0.311214
C28   C     C_R   0.465423 0.862626 0.441046 0.311817
C29   C     C_R   0.523542 0.029387 0.549972 -0.002478
C30   C     C_R   0.477968 0.970700 0.449265 -0.000730
H3    H     H_    0.569278 0.835761 0.703254 0.221632
H4    H     H_    0.431026 0.164414 0.296643 0.207003
H5    H     H_    0.409947 0.979659 0.281277 0.217659
H6    H     H_    0.591243 0.020436 0.718124 0.220916
N1    N     N_R   0.516670 0.519360 0.790130 -0.243878
N2    N     N_R   0.483330 0.480640 0.209870 -0.231930
C31   C     C_R   0.413690 0.402009 0.023471 0.272564
C32   C     C_R   0.586645 0.597590 0.976465 0.322751
C33   C     C_R   0.422836 0.412380 0.145667 0.029034
C34   C     C_R   0.577258 0.587528 0.854307 0.051667
C35   C     C_R   0.537233 0.541116 0.156843 0.179598
C36   C     C_R   0.462872 0.458771 0.843144 0.167916
C37   C     C_R   0.531615 0.535266 0.033894 -0.117947
C38   C     C_R   0.468608 0.464477 0.966075 -0.098271
H7    H     H_    0.415696 0.406216 0.788272 0.205541
H8    H     H_    0.584340 0.593777 0.211710 0.204883
H9    H     H_    0.618673 0.634313 0.809545 0.211707
H10   H     H_    0.381365 0.365739 0.190452 0.192090
S1    S     S_3+6 0.767875 0.713248 0.570482 0.054809
O9    O     O_2   0.718881 0.730417 0.679935 -0.264959
O10   O     O_2   0.836561 0.799313 0.574757 -0.210469
O11   O     O_3   0.695553 0.716436 0.455586 -0.548394
H11   H     H_    0.684337 0.791141 0.456423 0.383799
S2    S     S_3+6 0.232904 0.285470 0.426928 0.053621
O12   O     O_2   0.164841 0.198621 0.421906 -0.208335
O13   O     O_2   0.281602 0.269842 0.317234 -0.285606
O14   O     O_3   0.305620 0.281768 0.541292 -0.547469
H12   H     H_    0.316014 0.206939 0.540861 0.385875
S3    S     S_3+6 0.332794 0.311200 0.946917 0.076519
O15   O     O_2   0.264865 0.368177 0.884046 -0.192519
O16   O     O_2   0.376377 0.234097 0.859035 -0.251055
O17   O     O_3   0.280898 0.246798 0.038437 -0.408540
H13   H     H_    0.324596 0.196665 0.060727 0.359324
S4    S     S_3+6 0.668144 0.687653 0.052784 0.055817
O18   O     O_2   0.624489 0.765742 0.139458 -0.242421
O19   O     O_2   0.735365 0.630136 0.116190 -0.238256
O20   O     O_3   0.720033 0.750730 0.960140 -0.458111
H14   H     H_    0.765248 0.797015 0.009586 0.417902
N3    N     N_R   0.756462 0.326799 0.377282 0.108394
O21   O     O_R   0.763670 0.237747 0.412859 -0.285477
O22   O     O_R   0.712196 0.331174 0.279059 -0.307785
N4    N     N_R   0.244346 0.663936 0.636929 0.120231
O23   O     O_R   0.259416 0.667831 0.748566 -0.297633
O24   O     O_R   0.285227 0.730041 0.584826 -0.317649
N5    N     N_R   0.072590 0.283876 0.249676 0.181296
O25   O     O_R   0.038105 0.192553 0.205174 -0.236653
O26   O     O_R   0.129356 0.327279 0.191417 -0.234995
N6    N     N_R   0.926090 0.715237 0.750632 0.178388
O27   O     O_R   0.868769 0.672999 0.809132 -0.257919
O28   O     O_R   0.960525 0.806869 0.793902 -0.245585
N7    N     N_R   0.416448 0.803265 0.341550 0.121142
O29   O     O_R   0.341652 0.756084 0.354046 -0.280734
O30   O     O_R   0.449477 0.790552 0.239893 -0.311503
N8    N     N_R   0.586833 0.196731 0.656087 0.121537
O31   O     O_R   0.660346 0.245268 0.640806 -0.290080
O32   O     O_R   0.555326 0.210179 0.758695 -0.313404

loop_
_geom_bond_atom_site_label_1
_geom_bond_atom_site_label_2
_geom_bond_distance
_ccdc_geom_bond_type
S2    O13   1.500710 D    
C37   C38   1.417739 A    
C3    C8    1.457274 S    
N7    O29   1.300729 A    
C17   C19   1.394855 A    
C22   C25   1.398173 A    
C29   C30   1.421181 A    
S4    O20   1.681846 S    
C28   N7    1.437221 S    
C20   N6    1.436838 S    
N3    O21   1.300737 A    
C27   C29   1.404776 A    
O5    C3    1.287699 A    
O1    C1    1.291643 A    
C9    C11   1.402435 A    
S4    O19   1.503292 D    
O14   H12   0.990466 S    
C5    C15   1.412843 A    
S2    O14   1.682126 S    
O4    Cu1   1.971197 S    
S1    O10   1.503701 D    
C23   C30   1.402272 A    
N2    C33   1.358991 A    
C18   C20   1.394686 A    
C31   C33   1.407691 A    
N8    O32   1.300965 A    
C4    C7    1.455945 S    
C32   C34   1.407690 A    
C13   C14   1.410710 A    
C24   H6    1.081368 S    
C28   C30   1.404430 A    
S2    O12   1.503762 D    
C11   C17   1.400735 A    
N7    O30   1.300829 A    
C12   C18   1.401660 A    
Cu1   Cu2   2.674240 S    
N8    O31   1.301044 A    
C24   C29   1.402233 A    
O2    C2    1.290897 A    
N3    O22   1.300791 A    
C35   C37   1.421188 A    
C6    C16   1.412296 A    
N2    C35   1.364446 A    
C36   C38   1.421192 A    
C21   C28   1.410186 A    
O17   H13   0.990760 S    
C17   H1    1.082871 S    
C22   C27   1.409403 A    
C18   H2    1.081872 S    
S4    O18   1.502723 D    
O4    C2    1.292215 A    
Cu1   N1    2.009181 S    
Cu2   N2    2.009179 S    
S1    O11   1.682120 S    
O7    Cu2   1.963707 S    
C34   H9    1.079131 S    
C32   S4    1.772382 S    
N6    O28   1.301555 A    
O6    C4    1.287672 A    
C1    C22   1.456813 S    
C5    S1    1.785953 S    
N4    O23   1.300992 A    
O7    C3    1.292260 A    
O3    Cu2   1.971199 S    
O8    C4    1.291846 A    
C16   C19   1.416876 A    
N1    C36   1.364343 A    
C10   C12   1.402975 A    
C10   N4    1.435359 S    
C12   C14   1.413037 A    
O1    Cu1   1.970819 S    
C23   H5    1.081456 S    
S3    O16   1.503215 D    
C15   C20   1.416025 A    
C5    C7    1.407715 A    
O6    Cu2   1.968759 S    
C23   C25   1.381627 A    
C21   C26   1.398324 A    
C14   C16   1.418921 A    
O3    C1    1.291242 A    
O8    Cu1   1.963707 S    
S3    O17   1.682270 S    
C35   H8    1.078952 S    
N1    C34   1.359100 A    
C31   C38   1.420639 A    
C32   C37   1.420678 A    
C2    C21   1.457472 S    
O11   H11   0.990470 S    
C25   H4    1.082927 S    
C11   C13   1.412202 A    
C26   H3    1.082916 S    
N6    O27   1.301094 A    
C24   C26   1.382200 A    
C7    C9    1.404243 A    
C8    C10   1.404235 A    
C13   C15   1.418131 A    
S1    O9    1.500949 D    
O2    Cu2   1.970821 S    
C27   N8    1.437019 S    
C19   N5    1.437280 S    
O20   H14   0.990532 S    
O5    Cu1   1.968756 S    
S3    O15   1.502815 D    
N5    O25   1.301554 A    
C6    C8    1.407648 A    
C31   S3    1.773001 S    
N5    O26   1.301208 A    
N4    O24   1.300063 A    
C6    S2    1.786227 S    
C33   H10   1.078605 S    
C9    N3    1.436019 S    
C36   H7    1.078883 S    
