data_mof_unit_33125.cif
_audit_creation_date              2012-12-10T18:14:39-0500
_audit_creation_method            fapswitch 2.2
_symmetry_space_group_name_H-M    P1
_symmetry_Int_Tables_number       1
_space_group_crystal_system       triclinic
_cell_length_a                    10.88985
_cell_length_b                    9.538601
_cell_length_c                    27.764618
_cell_angle_alpha                 88.528471
_cell_angle_beta                  89.237043
_cell_angle_gamma                 90.821151
_cell_volume                      2882.50275221

loop_
_atom_site_label
_atom_site_type_symbol
_atom_type_description
_atom_site_fract_x
_atom_site_fract_y
_atom_site_fract_z
_atom_type_partial_charge
C1    C     C_R   0.260604 0.499104 0.502726 0.905465
C2    C     C_R   0.472337 0.437094 0.271292 -0.141005
C3    C     C_R   0.560106 0.532693 0.253006 0.274776
C4    C     C_R   0.567084 0.552062 0.101380 -0.046535
C5    C     C_R   0.472436 0.618583 0.127633 -0.095246
C6    C     C_R   0.372440 0.677523 0.102386 -0.017633
C7    C     C_R   0.666814 0.490865 0.126309 -0.076416
C8    C     C_R   0.515896 0.504428 0.353526 -0.060826
C9    C     C_R   0.505314 0.497337 0.645525 -0.043555
C10   C     C_R   0.444134 0.573885 0.975759 0.041080
C11   C     C_R   0.655191 0.486936 0.972491 0.044714
C12   C     C_R   0.498255 0.500849 0.407149 0.846262
C13   C     C_R   0.545184 0.525065 0.948861 0.077688
C14   C     C_R   0.332699 0.597796 0.951746 -0.235342
C15   C     C_R   0.322410 0.586640 0.901925 -0.008508
C16   C     C_R   0.424890 0.543949 0.874189 -0.079618
C17   C     C_R   0.536452 0.514439 0.897962 -0.041060
C18   C     C_R   0.640025 0.474392 0.870800 -0.024414
C19   C     C_R   0.632482 0.467961 0.820573 0.594315
C20   C     C_R   0.420482 0.526479 0.823690 0.594258
C21   C     C_R   0.522035 0.627500 0.719969 0.002314
C22   C     C_R   0.513141 0.624757 0.669697 -0.221673
C23   C     C_R   0.739891 0.500814 0.500618 0.817254
C24   C     C_R   0.504958 0.370670 0.672295 -0.208021
C25   C     C_R   0.512371 0.371542 0.722383 -0.092677
C26   C     C_R   0.520931 0.498592 0.746491 0.284980
C27   C     C_R   0.456677 0.595913 0.025934 0.043753
C28   C     C_R   0.561237 0.545270 0.050267 0.086141
C29   C     C_R   0.659368 0.487006 0.023774 0.033804
C30   C     C_R   0.367592 0.667995 0.052467 -0.229607
C31   C     C_R   0.765364 0.434593 0.099535 -0.017335
C32   C     C_R   0.757612 0.450640 0.943804 -0.173047
C33   C     C_R   0.749976 0.444880 0.894055 -0.105922
C34   C     C_R   0.500704 0.498658 0.592447 0.858192
C35   C     C_R   0.759024 0.430883 0.049388 -0.231653
C36   C     C_3   0.069437 0.637960 0.525273 -0.170741
C37   C     C_3   0.066138 0.369272 0.533183 -0.192596
C38   C     C_3   0.928368 0.621053 0.532919 -0.424316
C39   C     C_3   0.924309 0.363155 0.525350 -0.451015
C40   C     C_3   0.077023 0.484780 0.448351 -0.221385
C41   C     C_3   0.122707 0.498822 0.502906 -0.173041
C42   C     C_3   0.878368 0.501651 0.500888 -0.008088
C43   C     C_3   0.934809 0.521915 0.448173 0.216673
C44   C     C_3   0.604937 0.081106 0.528578 -0.180130
C45   C     C_3   0.615347 0.917353 0.520687 -0.177295
C46   C     C_3   0.389089 0.079658 0.525950 -0.229732
C47   C     C_3   0.399345 0.912947 0.532119 -0.217758
C48   C     C_3   0.503739 0.090532 0.451491 -0.116489
C49   C     C_3   0.476942 0.927499 0.451860 -0.076874
C50   C     C_R   0.482904 0.624932 0.178177 0.609788
C51   C     C_R   0.660087 0.481547 0.177202 0.613795
C52   C     C_R   0.632316 0.610404 0.284795 0.011993
C53   C     C_R   0.609425 0.593292 0.334488 -0.164511
C54   C     C_R   0.449640 0.420541 0.320746 -0.125605
Cu1   Cu    Cu3+1 0.499860 0.642410 0.500020 0.986716
Cu2   Cu    Cu3+1 0.499860 0.357590 0.500020 0.978810
H1    H     H_    0.846790 0.429962 0.958468 0.165979
H2    H     H_    0.498903 0.270985 0.654591 0.165675
H3    H     H_    0.831377 0.416871 0.873813 0.212487
H4    H     H_    0.510978 0.273058 0.742690 0.148935
H5    H     H_    0.834399 0.381883 0.031169 0.163811
H6    H     H_    0.085912 0.724365 0.498453 0.186245
H7    H     H_    0.103186 0.269474 0.519760 0.147141
H8    H     H_    0.905257 0.595560 0.571377 0.212247
H9    H     H_    0.873429 0.342710 0.559874 0.194019
H10   H     H_    0.418854 0.376977 0.246133 0.158616
H11   H     H_    0.883883 0.723223 0.525489 0.205457
H12   H     H_    0.899662 0.272590 0.503050 0.243819
H13   H     H_    0.591990 0.098862 0.567831 0.134711
H14   H     H_    0.636849 0.863913 0.555564 0.144121
H15   H     H_    0.693309 0.134872 0.520482 0.202336
H16   H     H_    0.693740 0.896071 0.496206 0.230533
H17   H     H_    0.376213 0.126211 0.561927 0.199073
H18   H     H_    0.414506 0.884135 0.570668 0.173816
H19   H     H_    0.426332 0.138787 0.431608 0.181186
H20   H     H_    0.376533 0.915535 0.444777 0.134074
H21   H     H_    0.305102 0.105191 0.505270 0.174620
H22   H     H_    0.309654 0.865174 0.522810 0.181262
H23   H     H_    0.514642 0.722868 0.649152 0.188884
H24   H     H_    0.250227 0.624540 0.971166 0.158029
H25   H     H_    0.291896 0.719230 0.035009 0.160042
H26   H     H_    0.667768 0.646396 0.359136 0.211469
N1    N     N_R   0.570897 0.550488 0.201588 -0.454352
N2    N     N_R   0.524472 0.495758 0.798198 -0.456878
N3    N     N_3   0.500250 0.143650 0.501060 -0.183649
N4    N     N_3   0.500250 0.856350 0.501060 -0.170817
O1    O     O_R   0.317570 0.620260 0.500030 -0.556072
O2    O     O_R   0.317570 0.379740 0.500030 -0.562097
O3    O     O_R   0.499900 0.620250 0.430280 -0.557331
O4    O     O_R   0.499900 0.379750 0.430280 -0.570417
O5    O     O_R   0.682190 0.620260 0.500010 -0.581063
O6    O     O_R   0.682190 0.379740 0.500010 -0.594044
O7    O     O_R   0.499860 0.620280 0.569750 -0.593150
O8    O     O_R   0.499860 0.379720 0.569750 -0.587104
O9    O     O_2   0.406373 0.704039 0.204244 -0.470473
O10   O     O_2   0.313954 0.538644 0.799884 -0.495019
O11   O     O_2   0.738485 0.400701 0.202341 -0.482246
O12   O     O_2   0.732523 0.435407 0.794138 -0.510532
C55   C     C_2   0.348681 0.322363 0.333991 0.946103
O13   O     O_2   0.243604 0.363123 0.331172 -0.456152
O14   O     O_R   0.368248 0.178839 0.340360 -0.697449
H27   H     H_    0.452075 0.149954 0.328484 0.343249
C56   C     C_2   0.731423 0.709153 0.267550 0.910557
O15   O     O_2   0.733188 0.755285 0.226048 -0.549367
O16   O     O_R   0.823330 0.750444 0.299128 -0.723812
H28   H     H_    0.885439 0.817970 0.283416 0.371067
C57   C     C_2   0.881575 0.387792 0.121705 0.941621
O17   O     O_2   0.926336 0.276239 0.110411 -0.554208
O18   O     O_R   0.942685 0.474305 0.153801 -0.692043
H29   H     H_    0.021214 0.431359 0.166178 0.372417
C58   C     C_2   0.126605 0.693340 0.570944 0.856008
O19   O     O_2   0.210630 0.633230 0.591158 -0.583062
O20   O     O_R   0.083327 0.818963 0.589180 -0.763686
H30   H     H_    0.128418 0.848289 0.619094 0.348097
C59   C     C_2   0.101469 0.365259 0.585960 0.916999
O21   O     O_2   0.028514 0.397526 0.617540 -0.568016
O22   O     O_R   0.219438 0.322873 0.598460 -0.767763
H31   H     H_    0.233521 0.324454 0.634463 0.347531
C60   C     C_2   0.142267 0.582127 0.410622 0.860442
O23   O     O_2   0.120383 0.567169 0.367940 -0.467931
O24   O     O_R   0.214769 0.696552 0.423552 -0.769646
H32   H     H_    0.245414 0.754550 0.394637 0.371346
C61   C     C_2   0.106009 0.333881 0.432302 0.892650
O25   O     O_2   0.211936 0.303534 0.422848 -0.588459
O26   O     O_R   0.017408 0.226600 0.432490 -0.756893
H33   H     H_    0.051828 0.133045 0.422783 0.359145
I1    I     I_    0.904155 0.739618 0.423636 -0.266066
I2    I     I_    0.835660 0.419472 0.391792 -0.162913
C62   C     C_2   0.622358 0.135255 0.423689 0.942813
O27   O     O_2   0.614814 0.189050 0.383494 -0.601963
O28   O     O_R   0.738515 0.099883 0.440578 -0.753967
H34   H     H_    0.805470 0.113423 0.415190 0.389977
C63   C     C_2   0.534791 0.871453 0.406840 0.875140
O29   O     O_2   0.471125 0.850647 0.371627 -0.585054
O30   O     O_R   0.661183 0.862223 0.402713 -0.733360
H35   H     H_    0.690396 0.871753 0.367954 0.355847
C64   C     C_2   0.264933 0.740878 0.126272 0.943407
O31   O     O_2   0.234876 0.860187 0.114994 -0.549799
O32   O     O_R   0.194543 0.661603 0.159819 -0.704874
H36   H     H_    0.122596 0.715577 0.173075 0.373505
C65   C     C_2   0.533736 0.766078 0.743262 0.891293
O33   O     O_2   0.571027 0.774420 0.784443 -0.575391
O34   O     O_R   0.503851 0.888636 0.717496 -0.772282
H37   H     H_    0.516130 0.976275 0.736884 0.339404
C66   C     C_2   0.204059 0.629396 0.880810 0.939095
O35   O     O_2   0.108552 0.571136 0.894432 -0.596152
O36   O     O_R   0.201253 0.740985 0.847200 -0.697295
H38   H     H_    0.115027 0.761564 0.835942 0.353443

loop_
_geom_bond_atom_site_label_1
_geom_bond_atom_site_label_2
_ccdc_geom_bond_type
C10   C27   A    
C1    O1    A    
C21   C26   A    
C52   C56   S    
C51   O11   S    
O14   H27   S    
C57   O18   S    
C39   H12   S    
Cu1   O3    S    
C58   O19   D    
C34   O7    A    
Cu1   O7    S    
C66   O35   D    
O30   H35   S    
C52   C53   A    
Cu2   O8    S    
C64   O32   S    
C23   C42   S    
C48   C62   S    
C12   O4    A    
C28   C29   A    
C22   H23   S    
C38   C42   S    
C65   O34   S    
C5    C6    A    
C3    C52   A    
C50   O9    S    
Cu2   O2    S    
O34   H37   S    
C5    C50   A    
C44   H15   S    
C18   C19   A    
Cu1   O5    S    
C66   O36   S    
C37   H7    S    
C40   C43   S    
O36   H38   S    
C16   C17   A    
C59   O22   S    
C57   O17   D    
C25   H4    S    
C14   H24   S    
C8    C12   S    
C46   N3    S    
C1    O2    A    
Cu2   O4    S    
C20   O10   S    
C33   H3    S    
C21   C22   A    
C45   H16   S    
C37   C41   S    
C39   H9    S    
C48   H19   S    
C36   C41   S    
C32   H1    S    
C4    C7    A    
C36   H6    S    
C4    C28   A    
C19   O12   S    
C50   N1    A    
C39   C42   S    
C38   H8    S    
C60   O24   S    
C7    C31   A    
C47   N4    S    
C12   O3    A    
C61   O25   D    
C24   C25   A    
C58   O20   S    
C2    C54   A    
C8    C54   A    
C15   C66   S    
C6    C64   S    
C25   C26   A    
C53   H26   S    
C43   I2    S    
C63   O29   D    
C55   O13   D    
C16   C20   A    
C36   C58   S    
C17   C18   A    
C49   H20   S    
C44   H13   S    
C56   O16   S    
C60   O23   D    
O24   H32   S    
C44   N3    S    
C1    C41   S    
C48   C49   S    
C6    C30   A    
C11   C32   A    
C20   N2    A    
C10   C14   A    
O26   H33   S    
C31   C35   A    
C54   C55   S    
C42   C43   S    
C43   I1    S    
C19   N2    A    
C51   N1    A    
C56   O15   D    
C44   C45   S    
O20   H30   S    
O16   H28   S    
C40   C61   S    
C49   C63   S    
C46   C47   S    
C40   C41   S    
C26   N2    S    
C55   O14   S    
C45   H14   S    
C14   C15   A    
C31   C57   S    
C49   N4    S    
C48   N3    S    
C34   O8    A    
C47   H18   S    
C4    C5    A    
C2    H10   S    
C10   C13   A    
C8    C53   A    
C46   H21   S    
O32   H36   S    
C9    C24   A    
C37   C59   S    
C64   O31   D    
C29   C35   A    
C13   C17   A    
C32   C33   A    
Cu1   N4    S    
C36   C38   S    
C2    C3    A    
C62   O27   D    
C21   C65   S    
C37   C39   S    
C65   O33   D    
C3    N1    S    
C11   C13   A    
Cu2   N3    S    
C9    C34   S    
C35   H5    S    
C62   O28   S    
C45   N4    S    
C23   O5    A    
C46   H17   S    
Cu1   O1    S    
O28   H34   S    
C9    C22   A    
C18   C33   A    
C61   O26   S    
Cu1   Cu2   S    
C7    C51   A    
Cu2   O6    S    
C40   C60   S    
C38   H11   S    
C11   C29   A    
C24   H2    S    
O18   H29   S    
C27   C28   A    
C63   O30   S    
C23   O6    A    
C47   H22   S    
C59   O21   D    
O22   H31   S    
C30   H25   S    
C15   C16   A    
C27   C30   A    
