data_mof_unit_36953.cif
_audit_creation_date              2012-12-11T16:05:01-0500
_audit_creation_method            fapswitch 2.2
_symmetry_space_group_name_H-M    P1
_symmetry_Int_Tables_number       1
_space_group_crystal_system       triclinic
_cell_length_a                    10.644313
_cell_length_b                    10.678451
_cell_length_c                    16.897508
_cell_angle_alpha                 98.77605
_cell_angle_beta                  98.939652
_cell_angle_gamma                 61.761214
_cell_volume                      1664.5982808

loop_
_atom_site_label
_atom_site_type_symbol
_atom_type_description
_atom_site_fract_x
_atom_site_fract_y
_atom_site_fract_z
_atom_type_partial_charge
C1    C     C_R   0.352801 0.778005 0.400031 0.543253
C2    C     C_3   0.681676 0.342520 0.234711 -0.171608
C3    C     C_3   0.761262 0.379559 0.310942 0.067814
C4    C     C_3   0.904812 0.255381 0.288159 -0.147212
C5    C     C_3   0.928565 0.358066 0.244547 -0.117347
C6    C     C_3   0.784934 0.480627 0.267270 0.296329
C7    C     C_3   0.702897 0.447551 0.190862 -0.140340
C8    C     C_3   0.845731 0.324992 0.168275 0.016339
C9    C     C_3   0.461453 0.777548 0.220582 -0.090201
C10   C     C_3   0.390422 0.700370 0.252268 -0.114086
C11   C     C_3   0.339697 0.819579 0.321011 0.069346
C12   C     C_R   0.369279 0.346121 0.359312 0.553207
C13   C     C_3   0.411588 0.894906 0.290961 0.104373
C14   C     C_3   0.269181 0.982201 0.240855 -0.116612
C15   C     C_3   0.198050 0.904277 0.272048 -0.148537
C16   C     C_3   0.248549 0.785542 0.202590 -0.128302
C17   C     C_3   0.320022 0.861811 0.172025 0.022573
C18   C     C_3   0.453303 0.256548 0.786099 -0.121803
C19   C     C_3   0.399338 0.408463 0.762638 0.038834
C20   C     C_3   0.365789 0.357277 0.675902 0.008022
C21   C     C_3   0.419446 0.204818 0.699122 -0.131343
C22   C     C_3   0.266283 0.248598 0.716301 0.241256
C23   C     C_R   0.712581 0.412246 0.390282 0.563530
C24   C     C_3   0.211576 0.400190 0.692438 -0.107658
C25   C     C_3   0.245954 0.448901 0.780566 -0.109388
C26   C     C_3   0.299971 0.296636 0.803059 0.054858
C27   C     C_1   0.781047 0.361108 0.713816 0.007063
C28   C     C_1   0.825426 0.323388 0.780200 0.006653
C29   C     C_1   0.322828 0.843281 0.705686 0.014917
C30   C     C_1   0.285038 0.890728 0.772015 0.034001
C31   C     C_R   0.896759 0.308015 0.091881 0.558564
C32   C     C_R   0.318528 0.298360 0.120568 0.553359
C33   C     C_R   0.293648 0.893047 0.089363 0.564049
C34   C     C_R   0.354761 0.775559 0.626607 0.530671
C35   C     C_R   0.883657 0.299879 0.861093 0.566403
C36   C     C_R   0.280331 0.257271 0.876961 0.556461
C37   C     C_R   0.247001 0.941912 0.852451 0.564184
C38   C     C_R   0.405559 0.375454 0.601725 0.555057
C39   C     C_R   0.724226 0.407285 0.635709 0.546996
C40   C     C_1   0.340743 0.334551 0.275674 -0.067800
C41   C     C_1   0.329431 0.324046 0.204379 -0.067845
C42   C     C_3   0.825996 0.218533 0.210209 -0.117312
Cr1   Cr    Cr6+3 0.608340 0.611040 0.520430 1.055108
Cr2   Cr    Cr6+3 0.287650 0.601120 0.489350 0.996834
Cr3   Cr    Cr6+3 0.604040 0.287870 0.490280 1.028802
Cr4   Cr    Cr6+3 0.054020 0.052700 0.970850 1.029654
Cr5   Cr    Cr6+3 0.059230 0.375120 0.993390 1.025247
Cr6   Cr    Cr6+3 0.374950 0.061200 0.992340 1.038791
H1    H     H_    0.581893 0.333978 0.232851 0.121232
H2    H     H_    0.220714 0.097793 0.233296 0.113062
H3    H     H_    0.091719 0.949286 0.294929 0.116788
H4    H     H_    0.182988 0.739119 0.164757 0.132211
H5    H     H_    0.555141 0.197859 0.823596 0.160294
H6    H     H_    0.491746 0.102309 0.667166 0.141217
H7    H     H_    0.112227 0.459744 0.653370 0.146724
H8    H     H_    0.173773 0.548574 0.814740 0.161573
H9    H     H_    0.844489 0.110012 0.184007 0.137507
H10   H     H_    0.983995 0.183797 0.332550 0.117133
H11   H     H_    0.031722 0.360749 0.245393 0.098503
H12   H     H_    0.624824 0.515363 0.144631 0.111230
H13   H     H_    0.435790 0.585843 0.260805 0.103594
H14   H     H_    0.562295 0.738785 0.193039 0.136369
O1    O     O_R   0.751220 0.499230 0.435170 -0.460743
O2    O     O_R   0.297880 0.469080 0.560050 -0.496705
O3    O     O_R   0.489720 0.254590 0.564810 -0.510131
O4    O     O_R   0.725220 0.304230 0.585080 -0.522659
O5    O     O_3   0.500010 0.500010 0.500020 -0.310349
O6    O     O_R   0.171830 0.913880 0.057510 -0.512237
O7    O     O_R   0.940690 0.186050 0.054730 -0.499813
O8    O     O_R   0.920470 0.405720 0.075010 -0.528439
O9    O     O_R   0.196690 0.370460 0.084120 -0.501241
O10   O     O_R   0.412990 0.180750 0.091610 -0.501081
O11   O     O_R   0.366620 0.943130 0.065760 -0.496194
O12   O     O_R   0.477220 0.727600 0.436870 -0.476320
O13   O     O_R   0.160510 0.906330 0.879210 -0.491719
O14   O     O_R   0.930190 0.179050 0.889450 -0.514157
O15   O     O_R   0.909140 0.398170 0.896710 -0.497186
O16   O     O_R   0.186190 0.363460 0.918830 -0.496781
O17   O     O_R   0.401670 0.173200 0.913310 -0.521351
O18   O     O_R   0.356120 0.936130 0.900470 -0.486427
O19   O     O_3   0.162740 0.163010 0.985530 -0.302204
O20   O     O_R   0.258650 0.745120 0.411470 -0.537401
O21   O     O_R   0.297070 0.467240 0.395960 -0.513235
O22   O     O_R   0.488830 0.252610 0.387790 -0.473395
O23   O     O_R   0.724400 0.302390 0.420980 -0.511317
O24   O     O_R   0.752100 0.501210 0.612190 -0.497389
O25   O     O_R   0.478040 0.729440 0.600970 -0.505007
O26   O     O_R   0.259530 0.747110 0.588490 -0.522762
I1    I     I_    0.486412 0.545355 0.819944 -0.403488
O27   O     O_3   0.189652 0.170089 0.689643 -0.587893
C43   C     C_3   0.198514 0.131672 0.605777 -0.016989
H15   H     H_    0.303569 0.038027 0.595165 0.146817
H16   H     H_    0.187753 0.219019 0.572259 0.145872
C44   C     C_3   0.079413 0.093990 0.569646 -0.340373
H17   H     H_    0.978964 0.193456 0.560119 0.186018
H18   H     H_    0.105945 0.031613 0.510345 0.114441
H19   H     H_    0.063469 0.030828 0.609938 0.180280
O28   O     O_3   0.763202 0.618033 0.300972 -0.526453
C45   C     C_3   0.836838 0.668058 0.261454 -0.024358
H20   H     H_    0.763834 0.780118 0.248658 0.162651
H21   H     H_    0.871282 0.609158 0.202034 0.132243
C46   C     C_3   0.965362 0.666051 0.316295 -0.330004
H22   H     H_    0.036373 0.556835 0.334266 0.169158
H23   H     H_    0.026360 0.700037 0.284452 0.106030
H24   H     H_    0.929037 0.739854 0.371267 0.177300
I2    I     I_    0.554525 0.949106 0.373365 -0.317597

loop_
_geom_bond_atom_site_label_1
_geom_bond_atom_site_label_2
_ccdc_geom_bond_type
C18   C21   S    
C3    C23   S    
C19   C20   S    
C1    C11   S    
C25   H8    S    
C3    C6    S    
Cr4   O14   S    
Cr1   O1    S    
C7    C8    S    
C32   O10   A    
C14   H2    S    
Cr2   O2    S    
C24   H7    S    
C1    O12   A    
C6    O28   S    
Cr6   O17   S    
C8    C42   S    
Cr2   O20   S    
C5    C6    S    
C15   C16   S    
C26   C36   S    
Cr6   O19   S    
C12   O22   A    
C46   H24   S    
C18   C19   S    
C9    C13   S    
Cr4   O7    S    
C18   H5    S    
C11   C15   S    
C31   O8    A    
C20   C24   S    
C28   C35   S    
C27   C39   S    
C16   C17   S    
C18   C26   S    
Cr3   O5    S    
C32   C41   S    
C15   H3    S    
C9    C10   S    
C44   H18   S    
Cr2   O21   S    
Cr1   O12   S    
C23   O1    A    
C37   O13   A    
C13   C14   S    
C8    C31   S    
C14   C17   S    
C44   H17   S    
C17   C33   S    
Cr6   O10   S    
C42   H9    S    
Cr4   O13   S    
C32   O9    A    
C38   O2    A    
C37   O18   A    
C35   O14   A    
C5    H11   S    
C9    H14   S    
C24   C25   S    
C43   H15   S    
C4    C5    S    
C44   H19   S    
C1    O20   A    
C29   C34   S    
C35   O15   A    
C12   O21   A    
C12   C40   S    
Cr3   O23   S    
Cr5   O8    S    
Cr4   O6    S    
C29   C30   T    
C19   I1    S    
C2    H1    S    
C43   H16   S    
Cr4   O19   S    
C20   C38   S    
C45   H20   S    
C38   O3    A    
C22   O27   S    
C34   O26   A    
C46   H23   S    
Cr5   O9    S    
C33   O11   A    
C40   C41   T    
C45   H21   S    
C2    C7    S    
C39   O4    A    
C22   C24   S    
C10   H13   S    
Cr5   O15   S    
C3    C4    S    
C7    H12   S    
Cr3   O4    S    
C9    C17   S    
Cr1   O24   S    
Cr6   O11   S    
C16   H4    S    
C13   I2    S    
C36   O17   A    
C5    C8    S    
C6    C7    S    
C39   O24   A    
Cr1   O25   S    
Cr6   O18   S    
C2    C3    S    
C25   C26   S    
C23   O23   A    
C36   O16   A    
C43   C44   S    
Cr3   O3    S    
C11   C13   S    
O27   C43   S    
C21   H6    S    
C4    C42   S    
C2    C42   S    
Cr2   O26   S    
C34   O25   A    
Cr5   O19   S    
C46   H22   S    
C19   C25   S    
C10   C11   S    
Cr3   O22   S    
C31   O7    A    
C45   C46   S    
C20   C21   S    
C30   C37   S    
Cr1   O5    S    
O28   C45   S    
C22   C26   S    
C4    H10   S    
C27   C28   T    
C14   C15   S    
Cr2   O5    S    
C10   C16   S    
Cr5   O16   S    
C21   C22   S    
C33   O6    A    
