data_mof_unit_33911.cif
_audit_creation_date              2012-12-10T16:43:16-0500
_audit_creation_method            fapswitch 2.2
_symmetry_space_group_name_H-M    P1
_symmetry_Int_Tables_number       1
_space_group_crystal_system       triclinic
_cell_length_a                    16.553639
_cell_length_b                    16.556131
_cell_length_c                    28.713918
_cell_angle_alpha                 89.942967
_cell_angle_beta                  90.229861
_cell_angle_gamma                 89.971784
_cell_volume                      7869.38922249

loop_
_atom_site_label
_atom_site_type_symbol
_atom_type_description
_atom_site_fract_x
_atom_site_fract_y
_atom_site_fract_z
_atom_type_partial_charge
C1    C     C_1   0.999094 0.126705 0.193418 0.102145
C2    C     C_3   0.002653 0.000331 0.750147 -0.033274
C3    C     C_3   0.786368 0.217813 0.755048 -0.809095
C4    C     C_3   0.174320 0.865591 0.139453 0.094208
C5    C     C_3   0.214800 0.947563 0.144759 -0.755071
C6    C     C_3   0.147028 0.181840 0.353668 0.088079
C7    C     C_3   0.069843 0.231046 0.348791 -0.739587
C8    C     C_3   0.780205 0.819135 0.688905 0.112229
C9    C     C_3   0.806779 0.772254 0.731888 -0.835942
C10   C     C_R   0.999235 0.192465 0.160512 -0.185873
C11   C     C_R   0.000504 0.803022 0.837077 -0.204395
C12   C     C_R   0.809121 0.999502 0.659823 -0.188669
C13   C     C_R   0.193117 0.000176 0.338733 -0.196055
C14   C     C_R   0.000021 0.804294 0.161751 -0.196240
C15   C     C_R   0.997857 0.191749 0.841098 -0.195756
C16   C     C_R   0.197836 0.002569 0.662312 -0.199388
C17   C     C_R   0.804913 0.999606 0.338998 -0.187325
C18   C     C_R   0.999844 0.612007 0.938947 0.829581
C19   C     C_1   0.003525 0.869478 0.804547 0.072309
C20   C     C_R   0.000043 0.387523 0.060915 0.829684
C21   C     C_R   0.387708 0.000109 0.438939 0.829497
C22   C     C_R   0.612476 0.999954 0.560916 0.830188
C23   C     C_R   0.999891 0.387819 0.939156 0.831205
C24   C     C_R   0.000166 0.611989 0.061052 0.831624
C25   C     C_R   0.612119 0.999970 0.439077 0.832381
C26   C     C_R   0.388151 0.999975 0.560952 0.831779
C27   C     C_R   0.059062 0.252099 0.163138 0.422299
C28   C     C_R   0.953222 0.810320 0.877377 0.442317
C29   C     C_R   0.810465 0.052734 0.621861 0.451619
C30   C     C_1   0.875221 0.999510 0.692799 0.098497
C31   C     C_R   0.254627 0.942330 0.335493 0.427832
C32   C     C_R   0.947880 0.738380 0.167427 0.427460
C33   C     C_R   0.042717 0.185022 0.882515 0.436178
C34   C     C_R   0.187312 0.960535 0.620205 0.440141
C35   C     C_R   0.740525 0.053904 0.333838 0.422150
C36   C     C_R   0.045017 0.732248 0.829039 0.426981
C37   C     C_R   0.940589 0.195059 0.125290 0.448836
C38   C     C_R   0.807423 0.946216 0.376858 0.447653
C39   C     C_R   0.271240 0.041688 0.671965 0.428467
C40   C     C_R   0.952097 0.261392 0.832061 0.431769
C41   C     C_1   0.126777 0.999109 0.306108 0.089415
C42   C     C_R   0.052534 0.807760 0.123588 0.437202
C43   C     C_R   0.194419 0.057917 0.374396 0.436681
C44   C     C_R   0.744692 0.945453 0.665400 0.419757
C45   C     C_R   0.058371 0.317258 0.131716 0.026656
C46   C     C_R   0.952390 0.748007 0.910620 0.028082
C47   C     C_R   0.747144 0.052188 0.589013 0.015749
C48   C     C_R   0.319586 0.943404 0.367160 0.028606
C49   C     C_R   0.949061 0.674358 0.135339 0.028583
C50   C     C_R   0.043199 0.248778 0.914764 0.027786
C51   C     C_R   0.249543 0.958930 0.587132 0.029575
C52   C     C_1   0.998354 0.870226 0.194442 0.086859
C53   C     C_R   0.676184 0.052824 0.365612 0.027172
C54   C     C_R   0.046261 0.670403 0.862622 0.036828
C55   C     C_R   0.941416 0.257570 0.092145 0.019957
C56   C     C_R   0.745376 0.946931 0.410094 0.020493
C57   C     C_R   0.333127 0.042102 0.638574 0.035235
C58   C     C_R   0.953748 0.326419 0.863490 0.027754
C59   C     C_R   0.052565 0.745475 0.090457 0.028160
C60   C     C_R   0.257106 0.057693 0.407470 0.028088
C61   C     C_R   0.679264 0.946647 0.633999 0.026672
C62   C     C_R   0.999842 0.320358 0.095370 -0.256311
C63   C     C_1   0.998174 0.126233 0.808007 0.090446
C64   C     C_R   0.999359 0.677409 0.903639 -0.257411
C65   C     C_R   0.680024 0.999884 0.595172 -0.251530
C66   C     C_R   0.321019 0.000551 0.404083 -0.259595
C67   C     C_R   0.000721 0.677827 0.096036 -0.255718
C68   C     C_R   0.999531 0.320636 0.905196 -0.250598
C69   C     C_R   0.323048 0.999958 0.596047 -0.253378
C70   C     C_R   0.678383 0.999746 0.404473 -0.253494
C71   C     C_1   0.998711 0.070208 0.219860 -0.002355
C72   C     C_1   0.003878 0.927242 0.778931 -0.005203
C73   C     C_1   0.931708 0.999758 0.719465 -0.006009
C74   C     C_1   0.132298 0.004833 0.695275 0.088362
C75   C     C_1   0.069826 0.998849 0.279902 0.005493
C76   C     C_1   0.997870 0.927160 0.220487 -0.001229
C77   C     C_1   0.999760 0.070419 0.781111 0.009709
C78   C     C_1   0.075103 0.003754 0.721132 0.009719
C79   C     C_1   0.926778 0.999756 0.279742 -0.008977
C80   C     C_3   0.185618 0.206637 0.179346 0.098063
C81   C     C_3   0.237441 0.175448 0.219335 -0.808185
C82   C     C_3   0.834748 0.877520 0.866580 0.089434
C83   C     C_3   0.797110 0.961341 0.866867 -0.739710
C84   C     C_3   0.857981 0.182073 0.628709 0.076268
C85   C     C_1   0.870305 0.999958 0.306040 0.096205
C86   C     C_3   0.931399 0.219873 0.652111 -0.736653
C87   C     C_3   0.212554 0.815846 0.316657 0.096979
C88   C     C_3   0.186229 0.764469 0.275446 -0.796825
C89   C     C_3   0.822061 0.769909 0.193092 0.100518
C90   C     C_3   0.776841 0.793045 0.237070 -0.804887
C91   C     C_3   0.159682 0.113666 0.877178 0.081676
C92   C     C_3   0.197034 0.030709 0.884743 -0.741571
C93   C     C_3   0.109398 0.847899 0.626948 0.091504
C94   C     C_3   0.022374 0.818628 0.624791 -0.772031
C95   C     C_3   0.775696 0.180364 0.310982 0.099377
C96   C     C_3   0.998204 0.999005 0.249995 -0.032765
C97   C     C_3   0.798922 0.229161 0.268236 -0.811947
C98   C     C_3   0.045440 0.690528 0.753691 0.082745
C99   C     C_3   0.101316 0.660855 0.715445 -0.772946
C100  C     C_3   0.810036 0.157695 0.140028 0.076397
C101  C     C_3   0.771240 0.086894 0.165310 -0.748564
C102  C     C_3   0.856061 0.818253 0.366202 0.085058
C103  C     C_3   0.931206 0.782838 0.343648 -0.760421
C104  C     C_3   0.315683 0.034327 0.746818 0.091165
C105  C     C_3   0.347523 0.086001 0.786586 -0.773695
C106  C     C_3   0.828059 0.238111 0.800801 0.099253
Cu1   Cu    Cu3+1 0.919200 0.500000 0.000000 0.903318
Cu2   Cu    Cu3+1 0.080800 0.500000 0.000000 0.909253
Cu3   Cu    Cu3+1 0.500000 0.919200 0.500000 0.902993
Cu4   Cu    Cu3+1 0.500000 0.080800 0.500000 0.908443
H1    H     H_    0.157154 0.379627 0.110440 0.232617
H2    H     H_    0.934019 0.553419 0.143251 0.216180
H3    H     H_    0.176336 0.988029 0.166152 0.246284
H4    H     H_    0.274272 0.940306 0.162302 0.207609
H5    H     H_    0.224150 0.975476 0.110010 0.248343
H6    H     H_    0.169098 0.168307 0.317917 0.133328
H7    H     H_    0.193056 0.218835 0.372248 0.153335
H8    H     H_    0.046456 0.247338 0.383744 0.247740
H9    H     H_    0.082252 0.287258 0.328942 0.208516
H10   H     H_    0.023322 0.195406 0.329835 0.246463
H11   H     H_    0.834751 0.828159 0.666752 0.118085
H12   H     H_    0.735366 0.782355 0.669278 0.160470
H13   H     H_    0.047470 0.248650 0.985450 0.217370
H14   H     H_    0.754638 0.762487 0.755448 0.257069
H15   H     H_    0.831711 0.712723 0.721421 0.195931
H16   H     H_    0.854481 0.806416 0.750676 0.232658
H17   H     H_    0.133811 0.279714 0.959037 0.229434
H18   H     H_    0.245657 0.957057 0.516476 0.218167
H19   H     H_    0.276397 0.869353 0.541667 0.227066
H20   H     H_    0.606051 0.148525 0.383244 0.231637
H21   H     H_    0.555608 0.070763 0.357373 0.216743
H22   H     H_    0.140482 0.596923 0.878608 0.248460
H23   H     H_    0.058165 0.548890 0.856291 0.197786
H24   H     H_    0.913810 0.259434 0.023014 0.228071
H25   H     H_    0.086973 0.435844 0.139379 0.220591
H26   H     H_    0.842573 0.301416 0.058427 0.231106
H27   H     H_    0.746701 0.929769 0.480202 0.223287
H28   H     H_    0.708346 0.851242 0.448763 0.230864
H29   H     H_    0.413325 0.131760 0.625368 0.247844
H30   H     H_    0.455077 0.044726 0.645759 0.194685
H31   H     H_    0.863573 0.406207 0.876316 0.229440
H32   H     H_    0.948511 0.447569 0.853328 0.207629
H33   H     H_    0.070737 0.746233 0.020466 0.223133
H34   H     H_    0.148997 0.708754 0.052550 0.231915
H35   H     H_    0.258898 0.085014 0.476550 0.227465
H36   H     H_    0.942205 0.750783 0.981089 0.220340
H37   H     H_    0.299957 0.156726 0.441091 0.232260
H38   H     H_    0.608836 0.850988 0.616559 0.231913
H39   H     H_    0.559046 0.928385 0.642964 0.211420
H40   H     H_    0.222264 0.249022 0.158044 0.160879
H41   H     H_    0.168636 0.153489 0.157464 0.128346
H42   H     H_    0.203469 0.129162 0.239253 0.239850
H43   H     H_    0.293257 0.147306 0.205431 0.208231
H44   H     H_    0.254401 0.225893 0.242888 0.250625
H45   H     H_    0.796062 0.836117 0.887357 0.152273
H46   H     H_    0.836039 0.856327 0.829773 0.127959
H47   H     H_    0.859104 0.716263 0.952370 0.228716
H48   H     H_    0.834438 0.003481 0.845854 0.245663
H49   H     H_    0.735381 0.958786 0.851659 0.199172
H50   H     H_    0.793234 0.984263 0.903128 0.253150
H51   H     H_    0.806206 0.186607 0.653386 0.112988
H52   H     H_    0.842800 0.217755 0.597071 0.174458
H53   H     H_    0.983490 0.219765 0.627855 0.256536
H54   H     H_    0.917615 0.283126 0.662176 0.207726
H55   H     H_    0.947751 0.185126 0.683903 0.259543
H56   H     H_    0.157257 0.830478 0.337161 0.131411
H57   H     H_    0.254487 0.779831 0.338815 0.158495
H58   H     H_    0.746325 0.068364 0.518823 0.224205
H59   H     H_    0.239021 0.749822 0.253243 0.250568
H60   H     H_    0.158760 0.707386 0.288103 0.207262
H61   H     H_    0.140584 0.797723 0.254458 0.239988
H62   H     H_    0.785384 0.725200 0.173323 0.159975
H63   H     H_    0.828704 0.825827 0.171651 0.131127
H64   H     H_    0.811007 0.840490 0.256062 0.245546
H65   H     H_    0.716221 0.817084 0.227836 0.205791
H66   H     H_    0.769518 0.739424 0.259937 0.250793
H67   H     H_    0.196324 0.159077 0.896507 0.151268
H68   H     H_    0.161781 0.127465 0.839200 0.130260
H69   H     H_    0.709296 0.147528 0.550111 0.230841
H70   H     H_    0.163335 0.984728 0.864278 0.253606
H71   H     H_    0.260986 0.031015 0.873361 0.187731
H72   H     H_    0.194852 0.014402 0.922247 0.262298
H73   H     H_    0.129654 0.844486 0.663976 0.119193
H74   H     H_    0.147561 0.807061 0.605515 0.153324
H75   H     H_    0.999786 0.820856 0.588341 0.261453
H76   H     H_    0.018567 0.755515 0.637620 0.189756
H77   H     H_    0.983715 0.857593 0.646941 0.243680
H78   H     H_    0.831868 0.170599 0.331927 0.129652
H79   H     H_    0.732078 0.216102 0.331946 0.160334
H80   H     H_    0.384471 0.845445 0.387662 0.232584
H81   H     H_    0.745099 0.239344 0.245768 0.251974
H82   H     H_    0.823898 0.288509 0.279058 0.206084
H83   H     H_    0.845720 0.196139 0.248221 0.245043
H84   H     H_    0.003787 0.736601 0.738721 0.134285
H85   H     H_    0.009428 0.637700 0.765989 0.144047
H86   H     H_    0.142288 0.613445 0.729411 0.260554
H87   H     H_    0.065158 0.634893 0.686458 0.191439
H88   H     H_    0.138166 0.711638 0.701932 0.235418
H89   H     H_    0.769757 0.176520 0.110933 0.172179
H90   H     H_    0.814531 0.209000 0.165122 0.114618
H91   H     H_    0.438966 0.918187 0.359733 0.219353
H92   H     H_    0.810454 0.067121 0.194671 0.260267
H93   H     H_    0.711610 0.105322 0.179353 0.217614
H94   H     H_    0.762530 0.035539 0.140951 0.245781
H95   H     H_    0.806268 0.816574 0.339868 0.114303
H96   H     H_    0.838422 0.779307 0.396010 0.169706
H97   H     H_    0.981681 0.780768 0.369223 0.245380
H98   H     H_    0.918437 0.720605 0.331263 0.214822
H99   H     H_    0.949460 0.820489 0.313424 0.255871
H100  H     H_    0.367471 0.998565 0.732973 0.144093
H101  H     H_    0.269263 0.992208 0.760728 0.137298
H102  H     H_    0.854353 0.602338 0.118203 0.231449
H103  H     H_    0.297796 0.122444 0.801652 0.238489
H104  H     H_    0.373732 0.046735 0.814140 0.192283
H105  H     H_    0.395238 0.127340 0.773603 0.257588
H106  H     H_    0.792645 0.285772 0.818841 0.160965
H107  H     H_    0.828001 0.182164 0.822578 0.124370
H108  H     H_    0.818709 0.167341 0.737788 0.245957
H109  H     H_    0.723090 0.198948 0.761689 0.204426
H110  H     H_    0.786056 0.271387 0.731738 0.252020
H111  H     H_    0.214104 0.825594 0.118505 0.155614
H112  H     H_    0.167626 0.839359 0.174994 0.128807
N1    N     N_3   0.116808 0.380195 0.138308 -0.547686
N2    N     N_3   0.883706 0.254011 0.054786 -0.550157
N3    N     N_3   0.753454 0.895276 0.449992 -0.549706
N4    N     N_3   0.406448 0.084558 0.649185 -0.542646
N5    N     N_3   0.909377 0.398125 0.851844 -0.552563
N6    N     N_3   0.104667 0.753590 0.050921 -0.534953
N7    N     N_3   0.252943 0.115179 0.444744 -0.532933
N8    N     N_3   0.612157 0.894201 0.642969 -0.549934
N9    N     N_3   0.905237 0.759270 0.951921 -0.535833
N10   N     N_3   0.754176 0.103240 0.548828 -0.551877
N11   N     N_3   0.384120 0.886890 0.360220 -0.547465
N12   N     N_3   0.898569 0.605686 0.144175 -0.549567
N13   N     N_3   0.086609 0.237932 0.957667 -0.537919
N14   N     N_3   0.235518 0.917237 0.544083 -0.536107
N15   N     N_3   0.608619 0.105077 0.356947 -0.548215
N16   N     N_3   0.094567 0.600220 0.853622 -0.537801
O1    O     O_R   0.931980 0.584070 0.954320 -0.586610
O2    O     O_R   0.068020 0.584070 0.954320 -0.581933
O3    O     O_R   0.415930 0.068020 0.545680 -0.580760
O4    O     O_R   0.584070 0.931980 0.454320 -0.586302
O5    O     O_R   0.068020 0.584070 0.045680 -0.585784
O6    O     O_R   0.931980 0.415930 0.954320 -0.586170
O7    O     O_R   0.584070 0.931980 0.545680 -0.587223
O8    O     O_R   0.415930 0.068020 0.454320 -0.586742
O9    O     O_3   0.117652 0.247474 0.197540 -0.552717
O10   O     O_3   0.912870 0.881828 0.886331 -0.526771
O11   O     O_3   0.877079 0.102012 0.615509 -0.533859
O12   O     O_R   0.068020 0.415930 0.045680 -0.587971
O13   O     O_3   0.252339 0.885699 0.300108 -0.552161
O14   O     O_3   0.897223 0.735409 0.205581 -0.553733
O15   O     O_3   0.079624 0.112587 0.893802 -0.526464
O16   O     O_3   0.112901 0.927391 0.609262 -0.524461
O17   O     O_3   0.739602 0.107063 0.296647 -0.555295
O18   O     O_3   0.092385 0.725110 0.789697 -0.546643
O19   O     O_3   0.885205 0.132714 0.121679 -0.540506
O20   O     O_3   0.874027 0.896641 0.382850 -0.540079
O21   O     O_3   0.280878 0.085182 0.712690 -0.544651
O22   O     O_3   0.906900 0.266563 0.791552 -0.551411
O23   O     O_R   0.415930 0.931980 0.454320 -0.586554
O24   O     O_3   0.099382 0.875856 0.116501 -0.536174
O25   O     O_3   0.130347 0.110938 0.379248 -0.536202
O26   O     O_3   0.744543 0.892826 0.702862 -0.549839
O27   O     O_R   0.584070 0.068020 0.545680 -0.585296
O28   O     O_R   0.068020 0.415930 0.954320 -0.584251
O29   O     O_R   0.931980 0.584070 0.045680 -0.585911
O30   O     O_R   0.584070 0.068020 0.454320 -0.587461
O31   O     O_R   0.415930 0.931980 0.545680 -0.586273
O32   O     O_R   0.931980 0.415930 0.045680 -0.587153

loop_
_geom_bond_atom_site_label_1
_geom_bond_atom_site_label_2
_ccdc_geom_bond_type
C10   C27   A    
H18   N14   S    
C80   H41   S    
C35   O17   S    
C87   C88   S    
C91   H68   S    
H20   N15   S    
H31   N5    S    
C93   C94   S    
C105  H105  S    
C89   O14   S    
C95   O17   S    
C12   C29   A    
C35   C53   A    
C93   H73   S    
C46   N9    S    
C50   C68   A    
Cu4   O3    S    
C94   H75   S    
C104  H100  S    
H33   N6    S    
C42   O24   S    
C18   C64   S    
C103  H99   S    
C13   C41   S    
C40   O22   S    
C26   O3    A    
C106  H106  S    
H32   N5    S    
C25   O4    A    
C80   H40   S    
C11   C19   S    
C34   C51   A    
C36   O18   S    
H17   N13   S    
C56   N3    S    
C29   C47   A    
C10   C37   A    
C16   C74   S    
H39   N8    S    
Cu3   O4    S    
C17   C35   A    
C11   C36   A    
C103  H97   S    
C101  H92   S    
C21   C66   S    
C93   H74   S    
C4    H112  S    
C8    H11   S    
C87   H56   S    
C41   C75   T    
C4    H111  S    
C39   C57   A    
C55   C62   A    
C90   H66   S    
C45   C62   A    
C9    H14   S    
C81   H43   S    
C98   H84   S    
C24   O5    A    
C28   O10   S    
C97   H83   S    
H22   N16   S    
H27   N3    S    
C34   O16   S    
C92   H70   S    
C24   C67   S    
C16   C34   A    
H91   N11   S    
C97   H82   S    
C14   C52   S    
C83   H50   S    
Cu2   O2    S    
C3    H110  S    
C95   H78   S    
Cu3   O31   S    
Cu1   Cu2   S    
C38   C56   A    
C6    O25   S    
C88   H59   S    
C89   H63   S    
C8    O26   S    
C6    H7    S    
C48   N11   S    
C3    H109  S    
C14   C42   A    
C59   C67   A    
C27   C45   A    
Cu4   O8    S    
C60   C66   A    
C88   H61   S    
C47   C65   A    
C5    H5    S    
Cu1   O32   S    
C106  O22   S    
C7    H8    S    
C19   C72   T    
C102  C103  S    
C86   H55   S    
C2    C72   S    
C53   C70   A    
C38   O20   S    
Cu4   O30   S    
C104  C105  S    
C18   O2    A    
C75   C96   S    
H36   N9    S    
C3    C106  S    
C15   C40   A    
C87   H57   S    
C40   C58   A    
H19   N14   S    
C60   N7    S    
C45   N1    S    
C7    H9    S    
C98   O18   S    
C105  H103  S    
C103  H98   S    
C54   N16   S    
C101  H93   S    
C53   N15   S    
C91   C92   S    
C30   C73   T    
C93   O16   S    
C8    C9    S    
C71   C96   S    
C91   O15   S    
C88   H60   S    
C33   C50   A    
C86   H54   S    
Cu1   O1    S    
C99   H86   S    
C9    H15   S    
C81   H44   S    
C102  O20   S    
C46   C64   A    
C51   N14   S    
C104  O21   S    
C29   O11   S    
C23   C68   S    
H28   N3    S    
C87   O13   S    
C22   C65   S    
C49   N12   S    
C2    C78   S    
C27   O9    S    
H58   N10   S    
C26   O31   A    
C20   O12   A    
H26   N2    S    
C97   H81   S    
C25   C70   S    
C28   C46   A    
C99   H87   S    
C61   N8    S    
C80   O9    S    
C31   O13   S    
C84   H51   S    
H80   N11   S    
H1    N1    S    
C94   H77   S    
C99   H88   S    
Cu2   O28   S    
C59   N6    S    
C102  H96   S    
C6    H6    S    
C6    C7    S    
C2    C73   S    
C39   O21   S    
C43   C60   A    
H13   N13   S    
C82   H45   S    
C100  H90   S    
C21   O23   A    
C23   O6    A    
C82   C83   S    
C56   C70   A    
C31   C48   A    
H29   N4    S    
C24   O29   A    
Cu1   O29   S    
C17   C85   S    
Cu1   O6    S    
H38   N8    S    
H23   N16   S    
C57   N4    S    
Cu3   O23   S    
C20   O32   A    
C13   C43   A    
C25   O30   A    
C84   H52   S    
C18   O1    A    
H47   N9    S    
C63   C77   T    
C58   C68   A    
H35   N7    S    
C100  O19   S    
C105  H104  S    
C49   C67   A    
C5    H3    S    
C84   O11   S    
H30   N4    S    
C7    H10   S    
C13   C31   A    
C1    C10   S    
C94   H76   S    
C89   H62   S    
C37   O19   S    
C80   C81   S    
C52   C76   T    
C101  H94   S    
C42   C59   A    
C44   O26   S    
C22   O7    A    
H102  N12   S    
C95   C97   S    
C21   O8    A    
C47   N10   S    
C44   C61   A    
C81   H42   S    
H25   N1    S    
C32   O14   S    
C23   O28   A    
H24   N2    S    
C9    H16   S    
C82   O10   S    
C92   H71   S    
C57   C69   A    
C5    H4    S    
C12   C30   S    
C89   C90   S    
C82   H46   S    
C79   C96   S    
C12   C44   A    
C2    C77   S    
C92   H72   S    
Cu3   Cu4   S    
C76   C96   S    
C43   O25   S    
H37   N7    S    
C22   O27   A    
C8    H12   S    
C83   H48   S    
C54   C64   A    
C11   C28   A    
C1    C71   T    
C3    H108  S    
H2    N12   S    
C91   H67   S    
Cu2   O5    S    
C33   O15   S    
C100  C101  S    
C79   C85   T    
C90   H65   S    
C98   H85   S    
C17   C38   A    
C20   C62   S    
C50   N13   S    
C102  H95   S    
C32   C49   A    
C36   C54   A    
C90   H64   S    
C95   H79   S    
C16   C39   A    
Cu3   O7    S    
C37   C55   A    
C100  H89   S    
C61   C65   A    
C4    C5    S    
C106  H107  S    
C83   H49   S    
C4    O24   S    
C98   C99   S    
C74   C78   T    
Cu2   O12   S    
C26   C69   S    
C15   C63   S    
H34   N6    S    
C86   H53   S    
C51   C69   A    
C104  H101  S    
C48   C66   A    
H69   N10   S    
C14   C32   A    
C15   C33   A    
Cu4   O27   S    
C58   N5    S    
C55   N2    S    
H21   N15   S    
C84   C86   S    
