data_mof_unit_17718.cif
_audit_creation_date              2012-12-11T18:06:54-0500
_audit_creation_method            fapswitch 2.2
_symmetry_space_group_name_H-M    P1
_symmetry_Int_Tables_number       1
_space_group_crystal_system       triclinic
_cell_length_a                    8.21441
_cell_length_b                    12.662804
_cell_length_c                    26.986353
_cell_angle_alpha                 96.47891
_cell_angle_beta                  92.775659
_cell_angle_gamma                 81.46009
_cell_volume                      2756.76772065

loop_
_atom_site_label
_atom_site_type_symbol
_atom_type_description
_atom_site_fract_x
_atom_site_fract_y
_atom_site_fract_z
_atom_type_partial_charge
Ba1   Ba    Ba6+2 0.859560 0.448380 0.523550 1.661284
Ba2   Ba    Ba6+2 0.330270 0.551530 0.476440 1.660450
C1    C     C_3   0.732234 0.092199 0.695816 -0.384610
C2    C     C_3   0.719481 0.169425 0.656091 0.391311
C3    C     C_3   0.493026 0.704294 0.627176 0.288442
C4    C     C_3   0.480382 0.731629 0.683311 -0.354729
C5    C     C_3   0.937335 0.861320 0.345252 0.289670
C6    C     C_3   0.963689 0.894126 0.294151 -0.298242
C7    C     C_3   0.466937 0.829553 0.342576 0.394928
C8    C     C_3   0.450281 0.905613 0.302274 -0.379645
C9    C     C_R   0.983340 0.418227 0.176939 0.591187
C10   C     C_R   0.964220 0.610017 0.183942 0.592390
C11   C     C_2   0.769163 0.585515 0.273624 -0.088538
C12   C     C_3   0.250377 0.139338 0.655237 0.286438
C13   C     C_3   0.740731 0.612994 0.328821 -0.068587
C14   C     C_1   0.984438 0.481053 0.343457 0.037392
C15   C     C_2   0.022883 0.469288 0.295521 -0.082218
C16   C     C_2   0.909620 0.523630 0.257651 0.225528
C17   C     C_R   0.029799 0.506530 0.103642 -0.081231
C18   C     C_R   0.021722 0.411899 0.125859 -0.027608
C19   C     C_R   0.047507 0.313187 0.096131 -0.087463
C20   C     C_R   0.999896 0.606173 0.132971 -0.031107
C21   C     C_2   0.851415 0.542434 0.361333 -0.262010
C22   C     C_2   0.345992 0.467638 0.639906 -0.258491
C23   C     C_3   0.219901 0.109274 0.706558 -0.297025
C24   C     C_R   0.154862 0.395664 0.972875 -0.053413
C25   C     C_R   0.088563 0.592913 0.977011 0.037047
C26   C     C_R   0.135876 0.491826 0.949080 0.002349
C27   C     C_R   0.228171 0.298948 0.945149 0.384093
C28   C     C_R   0.247877 0.295127 0.893812 -0.093935
C29   C     C_R   0.218888 0.388117 0.869253 -0.092540
C30   C     C_R   0.167642 0.487154 0.897055 -0.086227
C31   C     C_R   0.148862 0.581528 0.872857 -0.018748
C32   C     C_R   0.184269 0.575654 0.821559 0.591939
C33   C     C_R   0.248071 0.384131 0.817788 0.606331
C34   C     C_3   0.214311 0.223300 0.418786 0.290658
C35   C     C_2   0.421947 0.414959 0.725859 -0.095446
C36   C     C_3   0.449925 0.389894 0.670553 -0.062120
C37   C     C_1   0.205546 0.520387 0.656839 0.035115
C38   C     C_2   0.162174 0.525001 0.704145 -0.077396
C39   C     C_2   0.277708 0.471892 0.742046 0.215038
C40   C     C_R   0.105249 0.400473 0.023412 0.022100
C41   C     C_R   0.066918 0.501640 0.051993 0.048712
C42   C     C_R   0.064173 0.598017 0.029392 0.020301
C43   C     C_R   0.086425 0.307701 0.046070 -0.110131
C44   C     C_R   0.006311 0.700321 0.110810 -0.062160
C45   C     C_3   0.233863 0.102130 0.406803 -0.361560
C46   C     C_R   0.066916 0.685791 0.951310 -0.097936
C47   C     C_R   0.096872 0.680090 0.900587 -0.059844
C48   C     C_R   0.036895 0.696564 0.060261 -0.104875
C49   C     C_R   0.757688 0.820130 0.480328 -0.273233
C50   C     C_R   0.436280 0.189952 0.522160 -0.278975
C51   C     C_R   0.412205 0.010106 0.538422 -0.105149
C52   C     C_R   0.350005 0.118477 0.541651 -0.036108
C53   C     C_R   0.577093 0.152757 0.494762 0.068504
C54   C     C_R   0.639885 0.041418 0.489398 -0.054654
C55   C     C_R   0.557091 0.969909 0.512553 -0.055291
C56   C     C_3   0.981281 0.777684 0.581551 0.288040
C57   C     C_R   0.618922 0.859477 0.508019 0.048418
C58   C     C_R   0.844664 0.889487 0.459817 -0.035998
C59   C     C_R   0.783653 0.999081 0.462631 -0.093705
C60   C     C_3   0.968800 0.898572 0.593691 -0.355231
C61   C     C_3   0.695385 0.313228 0.375875 0.294467
C62   C     C_3   0.707704 0.285219 0.319749 -0.357460
H1    H     H_    0.788700 0.130058 0.623049 0.079461
H2    H     H_    0.318436 0.077153 0.375512 0.107853
H3    H     H_    0.285554 0.062058 0.439623 0.084824
H4    H     H_    0.112196 0.076714 0.396086 0.138697
H5    H     H_    0.858107 0.756156 0.571368 -0.002505
H6    H     H_    0.064018 0.752784 0.549758 0.075515
H7    H     H_    0.884991 0.925495 0.625020 0.110850
H8    H     H_    0.919746 0.939808 0.560954 0.087392
H9    H     H_    0.092508 0.920686 0.604449 0.134171
H10   H     H_    0.812926 0.337565 0.391199 0.006172
H11   H     H_    0.594475 0.381007 0.383138 0.087319
H12   H     H_    0.673956 0.020529 0.681527 0.079144
H13   H     H_    0.813590 0.221135 0.311390 0.127707
H14   H     H_    0.725596 0.357076 0.301826 0.079468
H15   H     H_    0.592576 0.256714 0.303963 0.131842
H16   H     H_    0.587437 0.185120 0.644125 -0.129162
H17   H     H_    0.667324 0.132229 0.729576 0.125323
H18   H     H_    0.373522 0.682418 0.611839 0.014410
H19   H     H_    0.591488 0.634752 0.619913 0.077015
H20   H     H_    0.379196 0.799007 0.691702 0.128079
H21   H     H_    0.454460 0.660703 0.700639 0.078679
H22   H     H_    0.598183 0.755247 0.699579 0.131701
H23   H     H_    0.863363 0.066121 0.706012 0.129204
H24   H     H_    0.333983 0.110047 0.730324 0.111495
H25   H     H_    0.905184 0.778785 0.340522 0.024182
H26   H     H_    0.834197 0.918926 0.362047 -0.029118
H27   H     H_    0.066978 0.839101 0.276021 0.176111
H28   H     H_    0.849916 0.890488 0.270442 0.104853
H29   H     H_    0.993138 0.977554 0.297911 0.095836
H30   H     H_    0.599606 0.815264 0.353943 -0.133871
H31   H     H_    0.399064 0.869318 0.375793 0.081193
H32   H     H_    0.511234 0.864491 0.268049 0.122154
H33   H     H_    0.510500 0.977121 0.315371 0.073435
H34   H     H_    0.285269 0.221246 0.659484 0.017129
H35   H     H_    0.318389 0.932205 0.293302 0.127519
H36   H     H_    0.138414 0.422106 0.283602 0.106922
H37   H     H_    0.035890 0.239180 0.111373 0.122135
H38   H     H_    0.509875 0.376208 0.751875 0.099579
H39   H     H_    0.297108 0.218887 0.873790 0.137757
H40   H     H_    0.093720 0.229503 0.025290 0.142091
H41   H     H_    0.685282 0.626543 0.247297 0.091418
H42   H     H_    0.986232 0.778212 0.132536 0.118221
H43   H     H_    0.023618 0.764691 0.969203 0.068413
H44   H     H_    0.352823 0.079936 0.639224 -0.021131
H45   H     H_    0.078953 0.754039 0.883074 0.121917
H46   H     H_    0.042590 0.566795 0.715576 0.118607
H47   H     H_    0.041828 0.772801 0.046705 0.069516
H48   H     H_    0.831861 0.556450 0.401160 0.076228
H49   H     H_    0.379774 0.469007 0.601611 0.069308
H50   H     H_    0.342342 0.958366 0.555056 0.098536
H51   H     H_    0.852022 0.049358 0.444576 0.103198
H52   H     H_    0.805079 0.735312 0.477700 0.058884
H53   H     H_    0.386534 0.274394 0.525130 0.066909
H54   H     H_    0.119510 0.167560 0.724372 0.169775
H55   H     H_    0.184505 0.027376 0.703237 0.097227
H56   H     H_    0.336154 0.247778 0.428628 0.001748
H57   H     H_    0.131873 0.246246 0.450802 0.073008
N1    N     N_R   0.954159 0.516777 0.205438 -0.423930
N2    N     N_R   0.234586 0.477517 0.794460 -0.420585
O1    O     O_2   0.907040 0.557650 0.617910 -0.450977
O2    O     O_3   0.663457 0.222862 0.397135 -0.643755
O3    O     O_3   0.106013 0.136901 0.625458 -0.583876
O4    O     O_2   0.282660 0.442310 0.382060 -0.451931
O5    O     O_3   0.050670 0.442340 0.442260 -0.502060
O6    O     O_3   0.504750 0.639360 0.411530 -0.465950
O7    O     O_3   0.148784 0.270281 0.376390 -0.630748
O8    O     O_3   0.618400 0.630290 0.524520 -0.481553
O9    O     O_3   0.090070 0.694820 0.435810 -0.464784
O10   O     O_2   0.182863 0.883939 0.466842 -0.480588
O11   O     O_3   0.082929 0.864145 0.374396 -0.585442
O12   O     O_3   0.139040 0.557570 0.557730 -0.499809
O13   O     O_3   0.571310 0.369620 0.475470 -0.492925
O14   O     O_2   0.348200 0.764910 0.523260 -0.464338
O15   O     O_3   0.530258 0.793843 0.606160 -0.651465
O16   O     O_2   0.442033 0.526250 0.324255 -0.484945
O17   O     O_3   0.399708 0.735785 0.324181 -0.561054
O18   O     O_2   0.973879 0.336100 0.195783 -0.599117
O19   O     O_2   0.285287 0.296973 0.793672 -0.625561
O20   O     O_2   0.942654 0.696781 0.209318 -0.621937
O21   O     O_2   0.172900 0.658197 0.801355 -0.600715
O22   O     O_3   0.684960 0.360550 0.588460 -0.471709
O23   O     O_2   0.751862 0.471941 0.675752 -0.484277
O24   O     O_3   0.041471 0.729495 0.624073 -0.630287
O25   O     O_3   0.787921 0.262059 0.675529 -0.565086
O26   O     O_2   0.841490 0.235060 0.476710 -0.468993
O27   O     O_3   0.099640 0.305100 0.564190 -0.466415
O28   O     O_2   0.014361 0.115763 0.531833 -0.484400
P1    P     P_3+3 0.072810 0.589830 0.610360 0.991627
P2    P     P_3+3 0.661990 0.251250 0.462170 0.968615
P3    P     P_3+3 0.144544 0.166894 0.565813 0.960449
P4    P     P_3+3 0.116900 0.410080 0.389630 0.989785
P5    P     P_3+3 0.047728 0.834415 0.434347 0.962367
P6    P     P_3+3 0.669426 0.374410 0.653337 0.983635
P7    P     P_3+3 0.532537 0.763796 0.541276 0.933643
P8    P     P_3+3 0.521746 0.624974 0.346626 0.981914
O29   O     O_3   0.291967 0.207614 0.967321 -0.667364
C63   C     C_3   0.442978 0.222794 0.992927 0.259331
H58   H     H_    0.461664 0.168097 0.022769 0.080530
H59   H     H_    0.442563 0.305639 0.012113 0.031629
C64   C     C_3   0.587616 0.193717 0.957665 -0.200863
H60   H     H_    0.589825 0.109792 0.940130 0.137147
H61   H     H_    0.572707 0.248033 0.927693 0.112079
C65   C     C_3   0.751373 0.204413 0.985527 -0.492237
H62   H     H_    0.752172 0.288406 0.002575 0.140641
H63   H     H_    0.853470 0.183377 0.959055 0.157332
H64   H     H_    0.772278 0.149455 0.015240 0.136119

loop_
_geom_bond_atom_site_label_1
_geom_bond_atom_site_label_2
_ccdc_geom_bond_type
C25   C46   A    
C56   C60   S    
C53   C54   A    
Ba2   P4    S    
O13   P2    S    
O8    P7    S    
O10   P5    D    
C62   H13   S    
Ba1   O22   S    
C17   C18   A    
Ba1   O5    S    
O6    P8    S    
C23   H54   S    
Ba2   O6    S    
C63   H58   S    
C3    O15   S    
C65   H63   S    
O23   P6    D    
C51   C52   A    
C21   H48   S    
C32   O21   D    
C64   H61   S    
C32   N2    Am   
C4    H21   S    
O14   P7    D    
C34   C45   S    
C64   H60   S    
C2    H16   S    
O17   P8    S    
C28   C29   A    
C3    H19   S    
C57   P7    S    
C55   C57   A    
C46   H43   S    
C31   C47   A    
O12   P1    S    
C5    H25   S    
C10   C20   A    
C22   C37   D    
C54   C55   A    
Ba1   P1    S    
Ba1   Ba2   S    
O28   P3    D    
O26   P2    D    
C2    H1    S    
O5    P4    S    
O9    P5    S    
C25   C42   A    
O11   P5    S    
O2    P2    S    
C14   C15   D    
C28   H39   S    
C59   H51   S    
C22   C36   S    
C60   H9    S    
Ba1   O26   S    
O7    P4    S    
C6    H28   S    
C27   O29   S    
Ba1   O13   S    
C7    C8    S    
C7    H31   S    
C45   H2    S    
C50   C53   A    
C19   H37   S    
Ba2   O4    S    
C50   C52   A    
C12   H44   S    
O1    P1    D    
O16   P8    D    
C22   H49   S    
C23   H55   S    
C45   H3    S    
C63   H59   S    
C17   C41   A    
C12   H34   S    
C65   H64   S    
C19   C43   A    
C9    C18   A    
C4    H20   S    
C1    H23   S    
Ba2   O8    S    
C26   C30   A    
C17   C20   A    
C5    O11   S    
C11   H41   S    
O4    P4    D    
C65   H62   S    
C51   C55   A    
C56   O24   S    
C56   H6    S    
C38   H46   S    
C5    H26   S    
C37   P1    S    
C23   H24   S    
Ba2   O13   S    
C35   H38   S    
C58   C59   A    
C40   C43   A    
C8    H33   S    
C41   C42   A    
C58   P5    S    
C13   P8    S    
C35   C36   S    
C43   H40   S    
C34   O7    S    
O22   P6    S    
O15   P7    S    
Ba2   O9    S    
C29   C30   A    
C8    H32   S    
C14   P4    S    
C15   C16   S    
C60   H8    S    
Ba1   O27   S    
C6    H27   S    
Ba1   P2    S    
C1    H12   S    
C9    O18   D    
C61   O2    S    
C16   N1    S    
C11   C16   D    
C46   C47   A    
C20   C44   A    
C14   C21   D    
C11   C13   S    
C62   H15   S    
C29   C33   A    
C9    N1    Am   
C49   C57   A    
C40   C41   A    
C1    C2    S    
O3    P3    S    
C45   H4    S    
C37   C38   D    
C63   C64   S    
C51   H50   S    
C24   C40   A    
C47   H45   S    
C42   C48   A    
C53   P2    S    
C38   C39   S    
Ba2   O14   S    
C62   H14   S    
C64   C65   S    
C6    H29   S    
Ba2   O12   S    
C36   P6    S    
Ba1   O8    S    
C12   O3    S    
C52   P3    S    
C56   H5    S    
C61   H10   S    
C1    H17   S    
C44   C48   A    
C24   C26   A    
C49   H52   S    
C4    H22   S    
C10   O20   D    
O29   C63   S    
C39   N2    S    
C33   N2    Am   
O24   P1    S    
Ba1   O1    S    
C30   C31   A    
C3    H18   S    
C3    C4    S    
C61   H11   S    
C44   H42   S    
C13   C21   S    
C48   H47   S    
C7    O17   S    
C31   C32   A    
C60   H7    S    
C34   H57   S    
O25   P6    S    
C12   C23   S    
C35   C39   D    
C8    H35   S    
C34   H56   S    
C15   H36   S    
C5    C6    S    
C33   O19   D    
C27   C28   A    
C61   C62   S    
C10   N1    Am   
C18   C19   A    
C24   C27   A    
O27   P3    S    
C50   H53   S    
C25   C26   A    
C54   C59   A    
C49   C58   A    
Ba1   O12   S    
C7    H30   S    
Ba2   O5    S    
C2    O25   S    
