data_mof_unit_37516.cif
_audit_creation_date              2012-12-11T16:35:24-0500
_audit_creation_method            fapswitch 2.2
_symmetry_space_group_name_H-M    P1
_symmetry_Int_Tables_number       1
_space_group_crystal_system       triclinic
_cell_length_a                    6.930085
_cell_length_b                    17.677997
_cell_length_c                    19.565435
_cell_angle_alpha                 108.92694
_cell_angle_beta                  90.769275
_cell_angle_gamma                 90.623986
_cell_volume                      2266.8663351

loop_
_atom_site_label
_atom_site_type_symbol
_atom_type_description
_atom_site_fract_x
_atom_site_fract_y
_atom_site_fract_z
_atom_type_partial_charge
O1    O     O_R   0.505700 0.440210 0.561730 -0.518131
O2    O     O_R   0.169350 0.406300 0.412660 -0.556632
O3    O     O_R   0.005650 0.559790 0.438270 -0.532964
C1    C     C_R   0.336858 0.378830 0.388114 0.656172
O4    O     O_R   0.175560 0.430650 0.559600 -0.527541
O5    O     O_R   0.011900 0.584320 0.586250 -0.525686
C2    C     C_R   0.345708 0.414840 0.580403 0.778909
O6    O     O_R   0.499450 0.415680 0.413750 -0.554102
O7    O     O_3   0.341370 0.550390 0.508570 -0.359150
V1    V     V_3+5 0.063940 0.490650 0.498410 1.536195
O8    O     O_R   0.682570 0.593700 0.587340 -0.516123
C3    C     C_R   0.852311 0.615306 0.615762 0.967433
O9    O     O_R   0.676370 0.569350 0.440400 -0.526836
C4    C     C_R   0.844613 0.583316 0.418188 0.910981
V2    V     V_3+5 0.564750 0.509350 0.501590 1.585941
O10   O     O_3   0.837190 0.449610 0.491430 -0.396562
C5    C     C_R   0.954097 0.641843 0.252546 0.780913
C6    C     C_R   0.944170 0.598444 0.301064 -0.341008
H1    H     H_    0.002360 0.538710 0.285568 0.182668
C7    C     C_R   0.854782 0.630486 0.368026 -0.339744
C8    C     C_R   0.777853 0.707538 0.386433 0.605708
C9    C     C_R   0.795240 0.752654 0.339452 0.569689
C10   C     C_R   0.881804 0.720150 0.271375 -0.189346
C11   C     C_R   0.729984 0.804526 0.203558 0.708068
C12   C     C_R   0.739794 0.848309 0.155565 -0.268095
H2    H     H_    0.607693 0.872296 0.141899 0.162730
C13   C     C_R   0.916561 0.861466 0.126415 -0.222506
C14   C     C_R   0.081165 0.823922 0.142482 -0.261304
H3    H     H_    0.219356 0.830954 0.119869 0.184096
C15   C     C_R   0.069040 0.776162 0.187517 0.706203
C16   C     C_R   0.894128 0.767505 0.220230 -0.090590
C17   C     C_R   0.145440 0.876172 0.749861 0.555124
C18   C     C_R   0.206120 0.884144 0.685016 -0.280635
C19   C     C_R   0.138317 0.831923 0.619895 -0.205467
C20   C     C_R   0.020589 0.767438 0.618694 0.620687
C21   C     C_R   0.963094 0.755322 0.684075 -0.138873
C22   C     C_R   0.007795 0.816056 0.751014 -0.089099
C23   C     C_R   0.865317 0.684202 0.683767 -0.127857
C24   C     C_R   0.791691 0.677698 0.749338 -0.069603
C25   C     C_R   0.809190 0.744337 0.814326 -0.065097
C26   C     C_R   0.913594 0.814428 0.815309 -0.056279
C27   C     C_R   0.702497 0.605933 0.752766 0.525111
C28   C     C_R   0.624778 0.602219 0.816904 -0.198383
C29   C     C_R   0.637801 0.667689 0.879405 0.628451
C30   C     C_R   0.731171 0.737407 0.878703 -0.245426
H4    H     H_    0.308613 0.930974 0.685387 0.181415
H5    H     H_    0.182541 0.839861 0.569752 0.200670
H6    H     H_    0.556440 0.547360 0.818301 0.200754
H7    H     H_    0.745546 0.784718 0.929966 0.155380
C31   C     C_R   0.222733 0.202969 0.363727 0.085088
C32   C     C_R   0.231695 0.122478 0.359322 -0.132695
C33   C     C_R   0.343822 0.068788 0.308241 0.106331
C34   C     C_R   0.437776 0.094299 0.256032 0.118257
C35   C     C_R   0.397046 0.170952 0.249898 -0.005469
C36   C     C_R   0.319052 0.230164 0.311255 0.009348
C37   C     C_R   0.429074 0.188723 0.184367 -0.093683
C38   C     C_R   0.428165 0.271366 0.186685 -0.015512
C39   C     C_R   0.395595 0.332250 0.254779 -0.040005
C40   C     C_R   0.342256 0.312424 0.316886 -0.073358
C41   C     C_R   0.461982 0.297749 0.125167 -0.096478
C42   C     C_R   0.477839 0.380070 0.134159 0.638100
C43   C     C_R   0.452390 0.436968 0.200763 0.604348
C44   C     C_R   0.408109 0.413895 0.259641 -0.396513
H8    H     H_    0.155908 0.101753 0.398194 0.137424
H9    H     H_    0.380844 0.461910 0.309133 0.176187
C45   C     C_R   0.528128 0.270265 0.675161 -0.048352
H10   H     H_    0.645490 0.229286 0.671921 0.147735
C46   C     C_R   0.516152 0.312464 0.625445 0.085990
C47   C     C_R   0.359845 0.365303 0.629003 -0.181846
C48   C     C_R   0.218259 0.372433 0.681673 0.582168
C49   C     C_R   0.232415 0.329559 0.730243 -0.187543
H11   H     H_    0.122099 0.336834 0.770487 0.209607
C50   C     C_R   0.387842 0.278601 0.727857 -0.000320
C51   C     C_R   0.233088 0.188394 0.786635 -0.196113
H12   H     H_    0.101776 0.192139 0.757230 0.171518
C52   C     C_R   0.235189 0.141168 0.832194 0.168954
C53   C     C_R   0.409721 0.134293 0.869474 -0.155764
C54   C     C_R   0.571707 0.179310 0.861726 -0.316768
H13   H     H_    0.701654 0.180181 0.892942 0.164787
C55   C     C_R   0.567039 0.226189 0.816160 0.680764
C56   C     C_R   0.397342 0.230548 0.777675 -0.033025
O11   O     O_R   0.273230 0.084330 0.086440 -0.542643
O12   O     O_R   0.596660 0.069390 0.940470 -0.554177
O13   O     O_R   0.760270 0.915710 0.913690 -0.539347
C57   C     C_R   0.425979 0.083183 0.917507 0.807209
O14   O     O_R   0.603330 0.093680 0.087390 -0.548716
O15   O     O_R   0.766990 0.940160 0.061660 -0.547503
C58   C     C_R   0.435806 0.119154 0.114427 0.705125
O16   O     O_R   0.266510 0.059870 0.938470 -0.520717
O17   O     O_3   0.431050 0.949630 0.991510 -0.352103
V3    V     V_3+5 0.708490 0.009340 0.001580 1.430468
O18   O     O_R   0.096270 0.930570 0.059390 -0.546334
C59   C     C_R   0.927489 0.913715 0.079706 0.762308
O19   O     O_R   0.089600 0.906290 0.912460 -0.487427
C60   C     C_R   0.921187 0.885180 0.883132 0.753404
V4    V     V_3+5 0.207670 0.990600 0.998190 1.518488
O20   O     O_3   0.935250 0.050360 0.008480 -0.384489
F1    F     F_    0.029867 0.606222 0.186443 -0.542038
F2    F     F_    0.241791 0.922102 0.809434 -0.701299
F3    F     F_    0.958914 0.719182 0.552859 -0.676364
F4    F     F_    0.694148 0.537449 0.695641 -0.662914
F5    F     F_    0.465417 0.515884 0.208091 -0.577532
C61   C     C_3   0.090268 0.253560 0.420125 -0.724829
H14   H     H_    0.176882 0.295372 0.464308 0.188168
H15   H     H_    0.985725 0.284207 0.395055 0.221395
H16   H     H_    0.001867 0.217469 0.445531 0.187254
C62   C     C_3   0.358097 0.983975 0.309407 -0.631225
H17   H     H_    0.251124 0.971033 0.346087 0.212238
H18   H     H_    0.329472 0.941231 0.254394 0.221172
H19   H     H_    0.503842 0.973615 0.328479 0.249670
C63   C     C_3   0.599575 0.044527 0.214792 -0.743602
H20   H     H_    0.675536 0.012195 0.246860 0.206972
H21   H     H_    0.538797 0.000908 0.164814 0.208485
H22   H     H_    0.713043 0.082995 0.202917 0.210117
C64   C     C_3   0.476971 0.242202 0.049095 -0.648391
H23   H     H_    0.610853 0.207407 0.043491 0.202848
H24   H     H_    0.344367 0.204600 0.034872 0.174913
H25   H     H_    0.484852 0.273593 0.008492 0.260095
F6    F     F_    0.517113 0.406235 0.077646 -0.583601
C65   C     C_3   0.668121 0.297695 0.568199 -0.659134
H26   H     H_    0.598688 0.283406 0.513884 0.167376
H27   H     H_    0.763902 0.351136 0.579036 0.272227
H28   H     H_    0.760868 0.246563 0.567396 0.178673
F7    F     F_    0.068046 0.422745 0.687691 -0.641768
F8    F     F_    0.690766 0.740126 0.450876 -0.597032
C66   C     C_3   0.047018 0.101661 0.840301 -0.653479
H29   H     H_    0.061304 0.036386 0.824399 0.235726
H30   H     H_    0.999506 0.125645 0.897069 0.205582
H31   H     H_    0.931101 0.112456 0.805051 0.186038
F9    F     F_    0.726974 0.269117 0.811440 -0.678033
F10   F     F_    0.731231 0.828971 0.361404 -0.612042
F11   F     F_    0.558589 0.797830 0.233363 -0.578090
F12   F     F_    0.228884 0.739058 0.199932 -0.535579
F13   F     F_    0.564677 0.662842 0.941832 -0.608962

loop_
_geom_bond_atom_site_label_1
_geom_bond_atom_site_label_2
_ccdc_geom_bond_type
C45   C46   A    
C44   H9    S    
C66   H29   S    
O15   V3    S    
C9    F10   S    
C42   F6    S    
C52   C66   S    
C63   H20   S    
C1    O6    A    
C38   C39   A    
C26   C60   S    
C34   C35   A    
C65   H26   S    
C5    C10   A    
C51   C52   A    
C21   C22   A    
C6    H1    S    
C36   C40   A    
O14   V3    S    
O5    C3    A    
C15   C16   A    
C54   C55   A    
C37   C58   S    
C64   H23   S    
O18   V4    S    
C37   C38   A    
C19   C20   A    
C5    F1    S    
O8    V2    S    
C20   C21   A    
C33   C62   S    
C46   C47   A    
C64   H24   S    
C62   H17   S    
C48   C49   A    
O1    V2    S    
O13   V3    S    
C61   H16   S    
C28   H6    S    
C42   C43   A    
C65   H28   S    
C64   H25   S    
C34   C63   S    
C45   H10   S    
C53   C57   S    
C31   C61   S    
O9    C4    A    
C3    C23   S    
C18   H4    S    
C62   H18   S    
O19   C60   A    
C50   C56   S    
C65   H27   S    
C31   C32   A    
C24   C27   A    
C29   F13   S    
C25   C30   A    
C35   C37   A    
O11   V4    S    
C51   H12   S    
O14   C58   A    
C32   C33   A    
C4    C7    S    
C55   F9    S    
C11   C12   A    
C61   H15   S    
C24   C25   A    
C49   C50   A    
C57   O16   A    
C54   H13   S    
C38   C41   A    
C66   H31   S    
C12   H2    S    
C53   C54   A    
C45   C50   A    
V3    O20   S    
C41   C42   A    
O13   C60   A    
C10   C16   S    
O2    C1    A    
C28   C29   A    
O5    V1    S    
C43   C44   A    
C11   F11   S    
C30   H7    S    
C15   F12   S    
V4    O20   S    
C5    C6    A    
C63   H21   S    
C17   C22   A    
C52   C53   A    
O19   V4    S    
O3    C4    A    
C25   C26   A    
O12   C57   A    
O6    V2    S    
O9    V2    S    
C62   H19   S    
C13   C59   S    
C27   C28   A    
C51   C56   A    
C8    F8    S    
C20   F3    S    
O2    V1    S    
C27   F4    S    
C13   C14   A    
C29   C30   A    
O4    C2    A    
O7    V1    S    
C39   C44   A    
C35   C36   A    
C14   H3    S    
C66   H30   S    
O1    C2    A    
C32   H8    S    
C55   C56   A    
C2    C47   S    
O8    C3    A    
O17   V4    S    
C12   C13   A    
O12   V3    S    
C31   C36   A    
C17   F2    S    
C17   C18   A    
O16   V4    S    
C14   C15   A    
O7    V2    S    
C11   C16   A    
O4    V1    S    
O3    V1    S    
V1    O10   S    
C46   C65   S    
O17   V3    S    
C23   C24   A    
O11   C58   A    
O15   C59   A    
C1    C40   S    
C21   C23   A    
O18   C59   A    
C18   C19   A    
C63   H22   S    
C6    C7    A    
C22   C26   A    
C47   C48   A    
C39   C40   A    
C48   F7    S    
C49   H11   S    
C7    C8    A    
C61   H14   S    
C9    C10   A    
C41   C64   S    
C19   H5    S    
C8    C9    A    
V2    O10   S    
C33   C34   A    
C43   F5    S    
