data_mof_unit_34913.cif
_audit_creation_date              2012-12-10T16:48:39-0500
_audit_creation_method            fapswitch 2.2
_symmetry_space_group_name_H-M    P1
_symmetry_Int_Tables_number       1
_space_group_crystal_system       triclinic
_cell_length_a                    7.764882
_cell_length_b                    8.588502
_cell_length_c                    10.72015
_cell_angle_alpha                 88.3026
_cell_angle_beta                  99.252455
_cell_angle_gamma                 93.348746
_cell_volume                      704.258209848

loop_
_atom_site_label
_atom_site_type_symbol
_atom_type_description
_atom_site_fract_x
_atom_site_fract_y
_atom_site_fract_z
_atom_type_partial_charge
C1    C     C_R   0.544630 0.794761 0.496775 0.980596
C2    C     C_2   0.431790 0.041886 0.504975 -0.375385
C3    C     C_R   0.455356 0.205233 0.503192 0.962200
C4    C     C_R   0.572328 0.488086 0.736725 0.796055
C5    C     C_R   0.425819 0.501359 0.263323 0.795557
C6    C     C_2   0.611057 0.460992 0.873068 0.238027
C7    C     C_2   0.378950 0.481892 0.127136 0.240658
C8    C     C_2   0.475644 0.419576 0.932371 -0.128064
C9    C     C_2   0.496089 0.417749 0.068182 -0.128403
C10   C     C_2   0.568182 0.958119 0.494952 -0.378969
H1    H     H_    0.618566 0.378146 0.119726 0.188009
H2    H     H_    0.343458 0.402850 0.880993 0.189794
H3    H     H_    0.697152 0.008967 0.485395 0.182564
H4    H     H_    0.302816 0.991043 0.514526 0.182941
H5    H     H_    0.985350 0.384640 0.407391 0.197439
H6    H     H_    0.014645 0.615346 0.592616 0.195984
H7    H     H_    0.158795 0.581164 0.118548 0.358625
H8    H     H_    0.858113 0.518873 0.881144 0.360331
N1    N     N_2   0.940600 0.458860 0.467170 -0.168340
N2    N     N_2   0.059400 0.541140 0.532830 -0.168900
O1    O     O_R   0.391630 0.738350 0.508060 -0.604349
O2    O     O_3   0.778211 0.481717 0.940387 -0.745230
O3    O     O_R   0.608370 0.261650 0.491940 -0.609284
O4    O     O_R   0.674540 0.711990 0.487010 -0.621461
O5    O     O_R   0.325460 0.288010 0.512990 -0.627405
O6    O     O_R   0.411370 0.508250 0.688780 -0.621143
O7    O     O_R   0.588630 0.491750 0.311220 -0.620292
O8    O     O_R   0.694270 0.481880 0.667740 -0.616824
O9    O     O_R   0.305730 0.518120 0.332260 -0.616048
O10   O     O_3   0.223878 0.531408 0.059580 -0.750607
Zn1   Zn    Zn3+2 0.311100 0.517600 0.514050 0.955788
Zn2   Zn    Zn3+2 0.688900 0.482400 0.485950 0.956137

loop_
_geom_bond_atom_site_label_1
_geom_bond_atom_site_label_2
_ccdc_geom_bond_type
O5    Zn1   S    
C4    O6    A    
O4    Zn2   S    
C1    O1    A    
O1    Zn1   S    
C3    O3    A    
N1    N2    D    
C8    H2    S    
H6    N2    S    
O3    Zn2   S    
C2    C3    S    
C5    C7    S    
O6    Zn1   S    
O9    Zn1   S    
C7    O10   S    
H8    O2    S    
H5    N1    S    
H7    O10   S    
C9    H1    S    
N1    Zn2   S    
C4    O8    A    
C5    O9    A    
C2    H4    S    
C2    C10   D    
O8    Zn2   S    
C3    O5    A    
C1    O4    A    
C4    C6    S    
C7    C9    D    
C6    C8    D    
O7    Zn2   S    
C5    O7    A    
C10   H3    S    
C1    C10   S    
C8    C9    S    
N2    Zn1   S    
C6    O2    S    
