data_mof_unit_56603.cif
_audit_creation_date              2012-12-11T16:37:19-0500
_audit_creation_method            fapswitch 2.2
_symmetry_space_group_name_H-M    P1
_symmetry_Int_Tables_number       1
_space_group_crystal_system       monoclinic
_cell_length_a                    19.530191
_cell_length_b                    6.967901
_cell_length_c                    17.683923
_cell_angle_alpha                 90.0
_cell_angle_beta                  108.97144
_cell_angle_gamma                 90.0
_cell_volume                      2275.78705538

loop_
_atom_site_label
_atom_site_type_symbol
_atom_type_description
_atom_site_fract_x
_atom_site_fract_y
_atom_site_fract_z
_atom_type_partial_charge
O1    O     O_R   0.561710 0.369960 0.440200 -0.532696
O2    O     O_R   0.061710 0.630040 0.940200 -0.532696
O3    O     O_R   0.412630 0.033330 0.406330 -0.546328
O4    O     O_R   0.912630 0.966670 0.906330 -0.546328
O5    O     O_R   0.438290 0.869790 0.559800 -0.543147
O6    O     O_R   0.938290 0.130210 0.059800 -0.543147
C1    C     C_R   0.384775 0.203262 0.383461 0.688984
C2    C     C_R   0.884775 0.796738 0.883461 0.688984
O7    O     O_R   0.559570 0.039810 0.430640 -0.542936
O8    O     O_R   0.059570 0.960190 0.930640 -0.542936
O9    O     O_R   0.586280 0.876320 0.584290 -0.545358
O10   O     O_R   0.086280 0.123680 0.084290 -0.545359
C3    C     C_R   0.581160 0.208937 0.415809 0.729820
C4    C     C_R   0.081160 0.791063 0.915809 0.729820
O11   O     O_R   0.413720 0.363440 0.415710 -0.539219
O12   O     O_R   0.913720 0.636560 0.915710 -0.539219
O13   O     O_3   0.508590 0.205630 0.550380 -0.370544
O14   O     O_3   0.008590 0.794370 0.050380 -0.370544
V1    V     V_3+5 0.498410 0.928130 0.490650 1.416820
V2    V     V_3+5 0.998410 0.071870 0.990650 1.416820
O15   O     O_R   0.587370 0.546990 0.593670 -0.522644
O16   O     O_R   0.087370 0.453010 0.093670 -0.522644
C5    C     C_R   0.615607 0.716734 0.616238 0.730991
C6    C     C_R   0.115607 0.283266 0.116238 0.730991
O17   O     O_R   0.440430 0.540520 0.569360 -0.546170
O18   O     O_R   0.940430 0.459480 0.069360 -0.546170
C7    C     C_R   0.419099 0.709248 0.584569 0.674381
C8    C     C_R   0.919099 0.290751 0.084569 0.674382
V3    V     V_3+5 0.501590 0.428960 0.509350 1.445491
V4    V     V_3+5 0.001590 0.571040 0.009350 1.445491
O19   O     O_3   0.491410 0.701330 0.449620 -0.373003
O20   O     O_3   0.991410 0.298670 0.949620 -0.373003
C9    C     C_R   0.314046 0.906021 0.714886 -0.138529
C10   C     C_R   0.814047 0.093979 0.214887 -0.138529
H1    H     H_    0.309350 0.042112 0.742284 0.104321
H2    H     H_    0.809352 0.957889 0.242286 0.104322
C11   C     C_R   0.360386 0.894624 0.669016 -0.163231
C12   C     C_R   0.860387 0.105376 0.169017 -0.163232
H3    H     H_    0.388979 0.022758 0.661653 0.122736
H4    H     H_    0.888981 0.977243 0.161655 0.122737
C13   C     C_R   0.370418 0.720057 0.634042 -0.050480
C14   C     C_R   0.870418 0.279943 0.134042 -0.050479
C15   C     C_R   0.332606 0.557254 0.645878 -0.162032
C16   C     C_R   0.832605 0.442745 0.145877 -0.162033
H5    H     H_    0.338493 0.420872 0.619249 0.117722
H6    H     H_    0.838492 0.579127 0.119248 0.117722
C17   C     C_R   0.285408 0.569210 0.690805 -0.138305
C18   C     C_R   0.785408 0.430789 0.190804 -0.138305
H7    H     H_    0.255855 0.441669 0.696537 0.099229
H8    H     H_    0.755853 0.558330 0.196535 0.099230
C19   C     C_R   0.275458 0.743771 0.726228 0.093846
C20   C     C_R   0.775458 0.256229 0.226228 0.093846
C21   C     C_R   0.215697 0.598652 0.820024 -0.135833
C22   C     C_R   0.715696 0.401349 0.320023 -0.135833
H9    H     H_    0.245329 0.466526 0.821883 0.108511
H10   H     H_    0.745327 0.533477 0.321881 0.108510
C23   C     C_R   0.168651 0.609847 0.865035 -0.113555
C24   C     C_R   0.668650 0.390154 0.365034 -0.113555
H11   H     H_    0.163002 0.485382 0.899227 0.137467
H12   H     H_    0.663000 0.514620 0.399226 0.137466
C25   C     C_R   0.130478 0.779958 0.867066 -0.053009
C26   C     C_R   0.630478 0.220042 0.367066 -0.053008
C27   C     C_R   0.140405 0.938491 0.822554 -0.153572
C28   C     C_R   0.640406 0.061508 0.322555 -0.153571
H13   H     H_    0.111661 0.071500 0.822392 0.124560
H14   H     H_    0.611662 0.928498 0.322394 0.124560
C29   C     C_R   0.186751 0.926518 0.776594 -0.132533
C30   C     C_R   0.686752 0.073481 0.276595 -0.132533
H15   H     H_    0.191401 0.050313 0.741628 0.101536
H16   H     H_    0.691402 0.949685 0.241630 0.101535
C31   C     C_R   0.225352 0.756484 0.774758 0.085530
C32   C     C_R   0.725352 0.243516 0.274758 0.085530
C33   C     C_R   0.772366 0.613874 0.807046 0.039816
C34   C     C_R   0.272366 0.386126 0.307046 0.039816
C35   C     C_R   0.814673 0.781136 0.817387 -0.085100
C36   C     C_R   0.314673 0.218864 0.317387 -0.085100
C37   C     C_R   0.789011 0.928841 0.761384 -0.164193
C38   C     C_R   0.289011 0.071159 0.261384 -0.164193
H17   H     H_    0.821305 0.056058 0.764844 0.162973
H18   H     H_    0.321305 0.943942 0.264845 0.162973
C39   C     C_R   0.724180 0.907122 0.696858 -0.134737
C40   C     C_R   0.224180 0.092878 0.196858 -0.134738
H19   H     H_    0.707279 0.020058 0.653187 0.187479
H20   H     H_    0.207279 0.979941 0.153187 0.187479
C41   C     C_R   0.683550 0.736231 0.685156 -0.065147
C42   C     C_R   0.183551 0.263769 0.185156 -0.065146
C43   C     C_R   0.709391 0.590611 0.741298 0.024299
C44   C     C_R   0.209391 0.409389 0.241298 0.024299
C45   C     C_3   0.729681 0.391314 0.726987 0.223759
C46   C     C_3   0.229681 0.608686 0.226987 0.223758
C47   C     C_3   0.795887 0.412901 0.800820 -0.404879
C48   C     C_3   0.295887 0.587099 0.300819 -0.404879
H21   H     H_    0.689852 0.284100 0.733353 0.076801
H22   H     H_    0.189852 0.715900 0.233353 0.076801
H23   H     H_    0.848380 0.404772 0.788972 0.210343
H24   H     H_    0.348380 0.595228 0.288971 0.210342
H25   H     H_    0.793246 0.323741 0.851947 0.128710
H26   H     H_    0.293246 0.676259 0.351947 0.128711
Cl1   Cl    Cl    0.753391 0.374158 0.637190 -0.678946
Cl2   Cl    Cl    0.253391 0.625842 0.137190 -0.678946

loop_
_geom_bond_atom_site_label_1
_geom_bond_atom_site_label_2
_ccdc_geom_bond_type
C24   C26   A    
V4    O20   S    
C27   H13   S    
O11   V3    S    
O13   V3    S    
O4    C2    A    
V1    O19   S    
C48   H26   S    
C17   H7    S    
O9    V1    S    
C34   C36   A    
C45   Cl1   S    
C28   C30   A    
C36   C38   A    
C12   C14   A    
O3    C1    A    
V2    O20   S    
C38   H18   S    
C23   H11   S    
O12   V4    S    
C48   H24   S    
C42   C44   A    
O9    C5    A    
C25   C27   A    
C7    C13   S    
C33   C43   A    
O7    C3    A    
O13   V1    S    
O5    C7    A    
O7    V1    S    
O6    C8    A    
C3    C26   S    
O8    V2    S    
C26   C28   A    
O3    V1    S    
O14   V4    S    
C45   C47   S    
C13   C15   A    
C29   C31   A    
C37   H17   S    
C34   C48   S    
C2    O12   A    
C11   C13   A    
C33   C35   A    
C14   C16   A    
C46   Cl2   S    
C39   H19   S    
C16   H6    S    
C46   H22   S    
C24   H12   S    
C27   C29   A    
C21   H9    S    
O17   V3    S    
C22   H10   S    
C41   C43   A    
C33   C47   S    
O8    C4    A    
C21   C23   A    
C17   C19   A    
C1    O11   A    
C40   C42   A    
C4    C25   S    
O15   V3    S    
C2    C35   S    
C9    C11   A    
C9    C19   A    
C29   H15   S    
C28   H14   S    
C20   C32   S    
C15   H5    S    
C38   C40   A    
C46   C48   S    
C37   C39   A    
C30   C32   A    
O10   V2    S    
O1    V3    S    
C47   H25   S    
C35   C37   A    
C30   H16   S    
C44   C46   S    
O18   V4    S    
C40   H20   S    
O15   C5    A    
O16   C6    A    
O1    C3    A    
C21   C31   A    
C22   C24   A    
O16   V4    S    
C10   C12   A    
C10   C20   A    
C19   C31   S    
C23   C25   A    
C1    C36   S    
O5    V1    S    
O17   C7    A    
O6    V2    S    
O10   C6    A    
O18   C8    A    
O2    V4    S    
C43   C45   S    
C11   H3    S    
C12   H4    S    
C15   C17   A    
C18   H8    S    
C9    H1    S    
C10   H2    S    
O14   V2    S    
C45   H21   S    
O2    C4    A    
C47   H23   S    
O4    V2    S    
C18   C20   A    
C22   C32   A    
V3    O19   S    
C5    C41   S    
C34   C44   A    
C6    C42   S    
C39   C41   A    
C16   C18   A    
C8    C14   S    
