data_mof_unit_16364.cif
_audit_creation_date              2012-12-10T17:32:16-0500
_audit_creation_method            fapswitch 2.2
_symmetry_space_group_name_H-M    P1
_symmetry_Int_Tables_number       1
_space_group_crystal_system       triclinic
_cell_length_a                    12.311619
_cell_length_b                    13.202046
_cell_length_c                    15.063735
_cell_angle_alpha                 77.532313
_cell_angle_beta                  101.397377
_cell_angle_gamma                 116.595761
_cell_volume                      2123.39216333

loop_
_atom_site_label
_atom_site_type_symbol
_atom_type_description
_atom_site_fract_x
_atom_site_fract_y
_atom_site_fract_z
_atom_type_partial_charge
C1    C     C_R   0.854892 0.286562 0.509200 0.767265
C2    C     C_R   0.903964 0.510505 0.075611 0.105375
C3    C     C_R   0.193526 0.482603 0.080653 -0.217403
C4    C     C_R   0.193049 0.482153 0.988116 -0.216221
C5    C     C_R   0.096875 0.491056 0.924307 0.107532
C6    C     C_R   0.000247 0.500682 0.953429 0.063095
C7    C     C_R   0.903170 0.509901 0.889611 0.109088
C8    C     C_R   0.807474 0.519257 0.919236 -0.214471
C9    C     C_R   0.807880 0.519575 0.011789 -0.218036
C10   C     C_R   0.095713 0.490594 0.831780 -0.248827
C11   C     C_R   0.999475 0.499985 0.768095 -0.070852
C12   C     C_R   0.999620 0.499819 0.671213 0.803400
C13   C     C_R   0.903506 0.509598 0.797224 -0.254275
C14   C     C_R   0.279084 0.016954 0.370758 -0.199958
C15   C     C_R   0.227981 0.833985 0.467016 -0.057031
C16   C     C_R   0.814030 0.088629 0.580689 -0.187234
C17   C     C_R   0.733518 0.976019 0.605395 -0.158663
C18   C     C_R   0.610407 0.937739 0.571829 -0.207094
C19   C     C_R   0.565842 0.010433 0.507896 0.082751
C20   C     C_R   0.650887 0.122375 0.476425 0.081855
C21   C     C_R   0.440018 0.975742 0.473744 0.082915
C22   C     C_R   0.402843 0.049950 0.404913 0.167422
C23   C     C_R   0.145087 0.713275 0.486370 0.804991
C24   C     C_R   0.489723 0.154903 0.368941 -0.242629
C25   C     C_R   0.612055 0.189798 0.402925 -0.203266
C26   C     C_R   0.349620 0.869167 0.505451 -0.250424
C27   C     C_R   0.192019 0.909016 0.401295 -0.184271
C28   C     C_R   0.773172 0.163748 0.518927 -0.097701
C29   C     C_R   0.355598 0.341678 0.654183 -0.310315
C30   C     C_R   0.762491 0.647685 0.377110 0.541358
C31   C     C_R   0.679597 0.699164 0.361738 -0.008660
C32   C     C_R   0.579926 0.652493 0.415415 0.059867
C33   C     C_R   0.558818 0.547624 0.476853 -0.098898
C34   C     C_R   0.000552 0.500460 0.328778 0.817089
C35   C     C_R   0.655084 0.510109 0.496933 0.159518
C36   C     C_R   0.451652 0.482766 0.525239 -0.001020
C37   C     C_R   0.454008 0.399262 0.601624 0.180249
C38   C     C_R   0.553122 0.371572 0.624015 -0.288699
C39   C     C_R   0.648886 0.422668 0.570940 -0.136458
C40   C     C_R   0.339146 0.492235 0.499121 -0.002578
C41   C     C_R   0.253117 0.364558 0.629764 0.068089
C42   C     C_R   0.904888 0.510518 0.168179 -0.244601
C43   C     C_R   0.001031 0.500935 0.231865 -0.072251
C44   C     C_R   0.097287 0.491862 0.202699 -0.251054
C45   C     C_R   0.097762 0.491825 0.110289 0.110515
C46   C     C_R   0.000673 0.501028 0.046474 0.063147
Cu1   Cu    Cu3+1 0.098270 0.475420 0.521130 0.930464
Cu2   Cu    Cu3+1 0.901730 0.524580 0.478870 0.964583
H1    H     H_    0.830261 0.517420 0.190522 0.156302
H2    H     H_    0.463104 0.210227 0.313814 0.141025
H3    H     H_    0.250295 0.073207 0.318205 0.134910
H4    H     H_    0.371057 0.809780 0.558673 0.145056
H5    H     H_    0.907649 0.118091 0.612848 0.152212
H6    H     H_    0.553654 0.850054 0.596236 0.124780
H7    H     H_    0.765883 0.918925 0.653601 0.144007
H8    H     H_    0.675884 0.269411 0.369233 0.168324
H9    H     H_    0.177969 0.322300 0.671087 0.122036
H10   H     H_    0.555023 0.306698 0.681641 0.149235
H11   H     H_    0.358061 0.279499 0.713815 0.137503
H12   H     H_    0.172013 0.485095 0.251729 0.151864
H13   H     H_    0.322705 0.539743 0.435051 0.162932
H14   H     H_    0.717899 0.392116 0.592054 0.204608
H15   H     H_    0.268601 0.475620 0.129020 0.138342
H16   H     H_    0.267789 0.474830 0.966442 0.139681
H17   H     H_    0.170196 0.483419 0.809469 0.154573
H18   H     H_    0.828829 0.516472 0.748210 0.159538
H19   H     H_    0.732428 0.526297 0.870861 0.143652
H20   H     H_    0.733121 0.526854 0.033474 0.137991
H21   H     H_    0.098123 0.882220 0.370345 0.175320
N1    N     N_R   0.246280 0.438190 0.553160 -0.183696
N2    N     N_R   0.754320 0.561190 0.447410 -0.229673
O1    O     O_R   0.972510 0.318130 0.526570 -0.578246
O2    O     O_R   0.806530 0.359650 0.490890 -0.606764
O3    O     O_R   0.082980 0.479210 0.647590 -0.590794
O4    O     O_R   0.917000 0.520730 0.611900 -0.604206
O5    O     O_R   0.193470 0.640350 0.509110 -0.596682
O6    O     O_R   0.027490 0.681870 0.473430 -0.526611
O7    O     O_R   0.083000 0.479270 0.388100 -0.598639
O8    O     O_R   0.917020 0.520790 0.352410 -0.541441
O9    O     O_3   0.861440 0.691593 0.328418 -0.706028
H22   H     H_    0.834983 0.711736 0.263375 0.291370
C47   C     C_3   0.519717 0.729387 0.423266 -0.354618
C48   C     C_3   0.422842 0.735385 0.342674 -0.857057
H23   H     H_    0.452471 0.823347 0.304107 0.242173
H24   H     H_    0.404389 0.674468 0.295032 0.244284
H25   H     H_    0.335917 0.715670 0.368195 0.256749
H26   H     H_    0.480291 0.704691 0.488882 0.191405
H27   H     H_    0.591493 0.817326 0.429026 0.218069
C49   C     C_3   0.706993 0.810340 0.294712 -0.397775
C50   C     C_3   0.817194 0.911021 0.332502 -0.802921
H28   H     H_    0.802237 0.921962 0.399495 0.251281
H29   H     H_    0.901696 0.897807 0.341407 0.265816
H30   H     H_    0.830557 0.990914 0.283984 0.235156
H31   H     H_    0.721840 0.800910 0.227308 0.176897
H32   H     H_    0.629474 0.833901 0.277469 0.230384

loop_
_geom_bond_atom_site_label_1
_geom_bond_atom_site_label_2
_ccdc_geom_bond_type
C16   C28   A    
C21   C26   A    
C12   O3    A    
C19   C20   A    
C25   H8    S    
C23   O5    A    
C30   N2    A    
C7    C8    A    
C45   C46   A    
C2    C46   A    
C40   N1    A    
Cu2   O8    S    
C36   C37   A    
C19   C21   A    
C44   H12   S    
Cu1   O5    S    
C5    C6    A    
C20   C25   A    
C47   H26   S    
C33   C36   A    
C18   C19   A    
C49   H31   S    
C16   H5    S    
C38   H10   S    
C15   C27   A    
C48   H23   S    
C8    C9    A    
C31   C49   S    
C1    C28   S    
C14   C27   A    
C17   H7    S    
C27   H21   S    
C30   O9    S    
C15   C23   S    
C35   N2    A    
C21   C22   A    
Cu2   O4    S    
C13   H18   S    
C24   H2    S    
C38   C39   A    
C1    O1    A    
Cu1   Cu2   S    
C29   H11   S    
C36   C40   A    
C24   C25   A    
C16   C17   A    
C15   C26   A    
C20   C28   A    
C3    C45   A    
C40   H13   S    
Cu2   O6    S    
C49   H32   S    
C35   C39   A    
C43   C44   A    
Cu1   N1    S    
C37   C38   A    
C26   H4    S    
C34   O8    A    
C50   H29   S    
C14   H3    S    
C7    C13   A    
C17   C18   A    
C23   O6    A    
C48   H24   S    
C22   C24   A    
C42   C43   A    
Cu2   N2    S    
C3    C4    A    
C44   C45   A    
C50   H30   S    
C10   H17   S    
C39   H14   S    
C6    C46   A    
C29   C41   A    
Cu2   O2    S    
C31   C32   A    
C34   C43   S    
Cu1   O3    S    
O9    H22   S    
C11   C12   S    
C6    C7    A    
C3    H15   S    
C32   C47   S    
C4    H16   S    
C1    O2    A    
C32   C33   A    
C14   C22   A    
C9    H20   S    
C41   H9    S    
C5    C10   A    
C34   O7    A    
C11   C13   A    
C50   H28   S    
C30   C31   A    
C2    C42   A    
C47   H27   S    
C33   C35   A    
Cu1   O1    S    
C10   C11   A    
C18   H6    S    
C42   H1    S    
C4    C5    A    
C48   H25   S    
C8    H19   S    
C47   C48   S    
C12   O4    A    
C29   C37   A    
Cu1   O7    S    
C49   C50   S    
C2    C9    A    
C41   N1    A    
