data_mof_unit_66855.cif
_audit_creation_date              2013-03-05T15:57:20-0500
_audit_creation_method            fapswitch 2.2
_symmetry_space_group_name_H-M    P1
_symmetry_Int_Tables_number       1
_space_group_crystal_system       triclinic
_cell_length_a                    17.204981
_cell_length_b                    18.969898
_cell_length_c                    8.394754
_cell_angle_alpha                 90.000883
_cell_angle_beta                  101.970843
_cell_angle_gamma                 89.843965
_cell_volume                      2680.25922674

loop_
_atom_site_label
_atom_site_type_symbol
_atom_site_description
_atom_site_fract_x
_atom_site_fract_y
_atom_site_fract_z
_atom_type_partial_charge
P1    P     P_3+3 0.834140 0.419320 0.003900 0.508546
P2    P     P_3+3 0.834140 0.580680 0.503900 0.513779
P3    P     P_3+3 0.334140 0.919320 0.003900 0.508353
P4    P     P_3+3 0.334140 0.080680 0.503900 0.513854
O1    O     O_2   0.841960 0.394640 0.833410 -0.299730
O2    O     O_2   0.841960 0.605360 0.333410 -0.300882
O3    O     O_2   0.341960 0.894640 0.833410 -0.299907
O4    O     O_2   0.341960 0.105360 0.333410 -0.300882
O5    O     O_3   0.907950 0.463080 0.102990 -0.421016
O6    O     O_3   0.907950 0.536920 0.602990 -0.423653
O7    O     O_3   0.407950 0.963080 0.102990 -0.421087
O8    O     O_3   0.407950 0.036920 0.602990 -0.423823
O9    O     O_3   0.972780 0.329600 0.629720 -0.369838
O10   O     O_3   0.972780 0.670400 0.129720 -0.373337
O11   O     O_3   0.472780 0.829600 0.629720 -0.370033
O12   O     O_3   0.472780 0.170400 0.129720 -0.373133
O13   O     O_2   0.842315 0.276332 0.695401 -0.305839
O14   O     O_2   0.841360 0.722477 0.195638 -0.308656
O15   O     O_2   0.342277 0.776306 0.695328 -0.306178
O16   O     O_2   0.341311 0.222407 0.195531 -0.308171
O17   O     O_3   0.748593 0.469663 0.934749 -0.535959
O18   O     O_3   0.747419 0.531818 0.438091 -0.527818
O19   O     O_3   0.248540 0.969611 0.934853 -0.535768
O20   O     O_3   0.247342 0.031892 0.438318 -0.527276
O21   O     O_3   0.943681 0.184380 0.642333 -0.584335
O22   O     O_3   0.941335 0.815119 0.144379 -0.581893
O23   O     O_3   0.443669 0.684388 0.642318 -0.584258
O24   O     O_3   0.441322 0.315068 0.144688 -0.581885
C1    C     C_3   0.043340 0.105045 0.598066 -0.446587
C2    C     C_3   0.038811 0.895616 0.099269 -0.476516
C3    C     C_3   0.543083 0.604975 0.597280 -0.447441
C4    C     C_3   0.538888 0.395577 0.100210 -0.476253
H1    H     H_    0.607464 0.601120 0.596005 0.210102
H2    H     H_    0.603277 0.400224 0.100245 0.194229
H3    H     H_    0.107746 0.101262 0.596914 0.210337
H4    H     H_    0.103237 0.900312 0.099657 0.194949
H5    H     H_    0.032164 0.075709 0.705450 0.213040
H6    H     H_    0.026375 0.925226 0.205307 0.210885
H7    H     H_    0.531887 0.575540 0.704512 0.213379
H8    H     H_    0.526678 0.425030 0.206638 0.210488
P5    P     P_3+3 0.165830 0.418670 0.685610 0.466809
P6    P     P_3+3 0.165830 0.581330 0.185610 0.466866
P7    P     P_3+3 0.665830 0.918670 0.685610 0.466886
P8    P     P_3+3 0.665830 0.081330 0.185610 0.466664
P9    P     P_3+3 0.099681 0.264901 0.111035 0.617861
P10   P     P_3+3 0.098648 0.735509 0.611417 0.612058
P11   P     P_3+3 0.599643 0.764858 0.110958 0.617990
P12   P     P_3+3 0.598713 0.235461 0.611487 0.612228
O25   O     O_2   0.157990 0.394030 0.856030 -0.360193
O26   O     O_2   0.157990 0.605970 0.356030 -0.360142
O27   O     O_2   0.657990 0.894030 0.856030 -0.360245
O28   O     O_2   0.657990 0.105970 0.356030 -0.360415
O29   O     O_3   0.027110 0.329490 0.059550 -0.404839
O30   O     O_3   0.027110 0.670510 0.559550 -0.402849
O31   O     O_3   0.527110 0.829490 0.059550 -0.405122
O32   O     O_3   0.527110 0.170510 0.559550 -0.402828
O33   O     O_2   0.158797 0.273619 0.996774 -0.271258
O34   O     O_2   0.157710 0.727507 0.496629 -0.269744
O35   O     O_2   0.658708 0.773538 0.996577 -0.270912
O36   O     O_2   0.657845 0.227389 0.496873 -0.270485
O37   O     O_3   0.251263 0.470083 0.733317 -0.636720
O38   O     O_3   0.251442 0.529781 0.233384 -0.636120
O39   O     O_3   0.751255 0.970092 0.733021 -0.636745
O40   O     O_3   0.751461 0.029808 0.233604 -0.636051
O41   O     O_3   0.054721 0.183309 0.057395 -0.522196
O42   O     O_3   0.051993 0.816684 0.558539 -0.538376
O43   O     O_3   0.554601 0.683283 0.057374 -0.521765
O44   O     O_3   0.552170 0.316671 0.558493 -0.537525
C5    C     C_3   0.973488 0.188645 0.059895 1.223377
C6    C     C_3   0.970964 0.810737 0.561555 1.218749
C7    C     C_3   0.473338 0.688782 0.059492 1.223446
C8    C     C_3   0.471165 0.310856 0.561883 1.218910
H9    H     H_    0.943738 0.229254 0.972608 0.068996
H10   H     H_    0.941753 0.769976 0.474527 0.071600
H11   H     H_    0.443784 0.729464 0.972191 0.068968
H12   H     H_    0.441792 0.270128 0.474945 0.071301
C9    C     C_3   0.933205 0.119297 0.007732 -1.000426
C10   C     C_3   0.929649 0.879902 0.509128 -1.003816
C11   C     C_3   0.432837 0.619560 0.006979 -1.000880
C12   C     C_3   0.429968 0.380085 0.509639 -1.003184
H13   H     H_    0.367441 0.626440 0.987268 0.240104
H14   H     H_    0.364726 0.373132 0.490509 0.241035
H15   H     H_    0.867803 0.125805 0.989464 0.240338
H16   H     H_    0.864412 0.872750 0.489213 0.241036
H17   H     H_    0.950550 0.102525 0.894153 0.228119
H18   H     H_    0.947440 0.897202 0.396620 0.229483
H19   H     H_    0.450693 0.602478 0.894120 0.228309
H20   H     H_    0.447468 0.397200 0.396722 0.229231
C13   C     C_3   0.234190 0.458505 0.248607 0.150390
C14   C     C_3   0.233767 0.541475 0.747794 0.150566
C15   C     C_3   0.734231 0.958503 0.248424 0.150456
C16   C     C_3   0.733733 0.041441 0.748144 0.150317
H21   H     H_    0.245299 0.445013 0.379968 0.072734
H22   H     H_    0.244350 0.555092 0.879050 0.072210
H23   H     H_    0.745419 0.944864 0.379711 0.072982
H24   H     H_    0.744261 0.054827 0.879539 0.072300
H25   H     H_    0.172936 0.442124 0.191429 0.135882
H26   H     H_    0.172607 0.557993 0.689452 0.137433
H27   H     H_    0.672955 0.942147 0.191344 0.136019
H28   H     H_    0.672584 0.057994 0.689798 0.137073
C17   C     C_3   0.290833 0.417817 0.168021 0.329742
C18   C     C_3   0.290787 0.581925 0.668139 0.327832
C19   C     C_3   0.790808 0.917940 0.167415 0.329415
C20   C     C_3   0.790780 0.082102 0.668964 0.328399
H29   H     H_    0.352277 0.435673 0.214058 0.090853
H30   H     H_    0.352256 0.564303 0.716576 0.090561
H31   H     H_    0.852290 0.935654 0.213658 0.090908
H32   H     H_    0.852199 0.064234 0.716862 0.090422
H33   H     H_    0.278389 0.428513 0.036255 0.115485
H34   H     H_    0.279282 0.570789 0.536457 0.115993
H35   H     H_    0.778394 0.928897 0.035761 0.115503
H36   H     H_    0.779126 0.071445 0.537080 0.115973
Ba1   Ba    Ba6+2 0.000000 0.447380 0.844850 1.603732
Ba2   Ba    Ba6+2 0.000000 0.552620 0.344850 1.604221
Ba3   Ba    Ba6+2 0.500000 0.947380 0.844850 1.603654
Ba4   Ba    Ba6+2 0.500000 0.052620 0.344850 1.604130
C21   C     C_3   0.739796 0.525560 0.036779 0.430716
C22   C     C_3   0.741947 0.473685 0.535824 0.450901
C23   C     C_3   0.239839 0.025588 0.036747 0.431758
C24   C     C_3   0.242068 0.973623 0.535766 0.451928
H37   H     H_    0.765736 0.512906 0.165075 0.166272
H38   H     H_    0.769047 0.484741 0.664109 0.175118
H39   H     H_    0.265810 0.012998 0.165069 0.166315
H40   H     H_    0.269216 0.984582 0.664075 0.175171
C25   C     C_3   0.650519 0.540586 0.016083 0.398698
C26   C     C_3   0.653564 0.456006 0.519221 0.386525
C27   C     C_3   0.150576 0.040706 0.016171 0.397789
C28   C     C_3   0.153745 0.955755 0.519358 0.387286
H41   H     H_    0.616641 0.499394 0.940100 0.137660
H42   H     H_    0.617109 0.487873 0.421453 0.133700
H43   H     H_    0.116577 0.999718 0.939532 0.138019
H44   H     H_    0.117166 0.987196 0.420791 0.133319
H45   H     H_    0.632316 0.590858 0.951444 0.131643
H46   H     H_    0.640274 0.400451 0.483477 0.153807
H47   H     H_    0.132497 0.091181 0.952221 0.132114
H48   H     H_    0.140717 0.900005 0.484828 0.154810
O45   O     O_3   0.092100 0.536880 0.086720 -0.404374
O46   O     O_3   0.092100 0.463120 0.586720 -0.404534
O47   O     O_3   0.592100 0.036880 0.086720 -0.404479
O48   O     O_3   0.592100 0.963120 0.586720 -0.404373
P13   P     P_3+3 0.898939 0.734232 0.079732 0.501830
P14   P     P_3+3 0.899922 0.265207 0.578983 0.502724
P15   P     P_3+3 0.398936 0.234220 0.079754 0.501934
P16   P     P_3+3 0.399911 0.765208 0.578944 0.502602
C29   C     C_3   0.020652 0.181945 0.610441 1.113708
C30   C     C_3   0.018307 0.818466 0.113112 1.137364
C31   C     C_3   0.520579 0.681892 0.610134 1.114332
C32   C     C_3   0.518309 0.318426 0.113524 1.137625
H49   H     H_    0.025774 0.209273 0.496074 0.020594
H50   H     H_    0.024431 0.790966 0.999446 0.017496
H51   H     H_    0.525671 0.709306 0.495841 0.020331
H52   H     H_    0.524425 0.291071 0.999691 0.017594
H53   H     H_    0.450538 0.577958 0.099384 0.256098
H54   H     H_    0.447557 0.421933 0.601008 0.254367
H55   H     H_    0.951700 0.077632 0.099655 0.256439
H56   H     H_    0.946806 0.921710 0.600786 0.254196
C33   C     C_R   0.140050 0.675031 0.921181 -0.569874
C34   C     C_R   0.140459 0.325500 0.420748 -0.573168
C35   C     C_R   0.640045 0.175036 0.921273 -0.569439
C36   C     C_R   0.640461 0.825507 0.420669 -0.573514
C37   C     C_R   0.862810 0.320694 0.260719 -0.390934
C38   C     C_R   0.862014 0.678208 0.762523 -0.401477
C39   C     C_R   0.362835 0.820663 0.260639 -0.390351
C40   C     C_R   0.362104 0.178258 0.762469 -0.401700
C41   C     C_R   0.790349 0.214896 0.300883 -0.060937
C42   C     C_R   0.790139 0.784925 0.801080 -0.055492
C43   C     C_R   0.290363 0.714874 0.300779 -0.060420
C44   C     C_R   0.290186 0.284944 0.801084 -0.055995
C45   C     C_R   0.846992 0.266330 0.362070 0.254848
C46   C     C_R   0.846247 0.732957 0.863095 0.258607
C47   C     C_R   0.347002 0.766309 0.361999 0.255122
C48   C     C_R   0.346321 0.232995 0.863062 0.258140
C49   C     C_R   0.815212 0.332344 0.106143 0.274326
C50   C     C_R   0.815303 0.667382 0.606895 0.281107
C51   C     C_R   0.315233 0.832326 0.106075 0.274616
C52   C     C_R   0.315362 0.167408 0.606874 0.281304
C53   C     C_R   0.754028 0.280718 0.044619 -0.265137
C54   C     C_R   0.754343 0.719373 0.544891 -0.273005
C55   C     C_R   0.254041 0.780707 0.044533 -0.265123
C56   C     C_R   0.254381 0.219387 0.544901 -0.273020
C57   C     C_R   0.243269 0.719748 0.142281 -0.110802
C58   C     C_R   0.243390 0.280289 0.642441 -0.111760
C59   C     C_R   0.743259 0.219760 0.142376 -0.110367
C60   C     C_R   0.743351 0.780275 0.642424 -0.111804
C61   C     C_R   0.184187 0.666703 0.079313 0.321585
C62   C     C_R   0.184364 0.333524 0.579122 0.325127
C63   C     C_R   0.684184 0.166711 0.079392 0.321815
C64   C     C_R   0.684345 0.833524 0.579077 0.325070
C65   C     C_R   0.151481 0.732457 0.825537 0.169284
C66   C     C_R   0.152146 0.268055 0.325304 0.164820
C67   C     C_R   0.651478 0.232455 0.825633 0.169686
C68   C     C_R   0.652147 0.768053 0.325227 0.164593
C69   C     C_R   0.204281 0.786284 0.888344 0.709107
C70   C     C_R   0.204855 0.214071 0.388582 0.719917
C71   C     C_R   0.704271 0.286286 0.888434 0.709818
C72   C     C_R   0.704842 0.714066 0.388551 0.719449
H57   H     H_    0.283359 0.671611 0.379163 0.175724
H58   H     H_    0.283363 0.328418 0.879056 0.173518
H59   H     H_    0.783331 0.171657 0.379335 0.174931
H60   H     H_    0.783347 0.828423 0.879010 0.173993
H61   H     H_    0.097672 0.634944 0.869258 0.182279
H62   H     H_    0.098070 0.365762 0.368599 0.182540
H63   H     H_    0.597672 0.134946 0.869341 0.182065
H64   H     H_    0.598084 0.865775 0.368508 0.182684
H65   H     H_    0.909237 0.358008 0.308647 0.152988
H66   H     H_    0.907788 0.640213 0.811462 0.153755
H67   H     H_    0.409282 0.857961 0.308550 0.152940
H68   H     H_    0.407887 0.140269 0.811394 0.153833
F1    F     F_    0.073478 0.212608 0.737036 -0.701108
F2    F     F_    0.071680 0.788864 0.240620 -0.703014
F3    F     F_    0.573545 0.712381 0.736767 -0.701391
F4    F     F_    0.571638 0.288647 0.240846 -0.702765
F5    F     F_    0.283574 0.347139 0.196836 -0.685349
F6    F     F_    0.282672 0.652753 0.695027 -0.684764
F7    F     F_    0.783401 0.847211 0.195453 -0.685168
F8    F     F_    0.782960 0.152847 0.697295 -0.685120
C73   C     C_3   0.778797 0.589124 0.979253 -0.850355
H69   H     H_    0.758642 0.593471 0.845260 0.176347
H70   H     H_    0.759758 0.637483 0.033627 0.287282
H71   H     H_    0.844274 0.583550 0.011451 0.258012
C74   C     C_3   0.782383 0.412602 0.471057 -0.920009
H72   H     H_    0.759680 0.409115 0.337644 0.181154
H73   H     H_    0.847611 0.419975 0.498371 0.266999
H74   H     H_    0.767291 0.363010 0.525847 0.280696
C75   C     C_3   0.278896 0.089069 0.978966 -0.852056
H75   H     H_    0.258744 0.093331 0.844956 0.176743
H76   H     H_    0.259897 0.137486 0.033177 0.286893
H77   H     H_    0.344369 0.083466 0.011186 0.258258
C76   C     C_3   0.282581 0.912712 0.470549 -0.922812
H78   H     H_    0.259774 0.909314 0.337151 0.181748
H79   H     H_    0.347798 0.920184 0.497686 0.267321
H80   H     H_    0.267671 0.863034 0.525223 0.280145
F9    F     F_    0.628033 0.542043 0.164283 -0.683098
F10   F     F_    0.629218 0.468287 0.663250 -0.699000
F11   F     F_    0.128077 0.041796 0.164431 -0.683562
F12   F     F_    0.129317 0.968542 0.663146 -0.699446
C77   C     C_3   0.494629 0.572215 0.442739 -0.877551
H81   H     H_    0.432017 0.591003 0.415986 0.272693
H82   H     H_    0.523777 0.585786 0.341267 0.318496
H83   H     H_    0.493545 0.514332 0.454850 0.264852
C78   C     C_3   0.489754 0.426958 0.944272 -0.896140
H84   H     H_    0.488690 0.484918 0.952486 0.263221
H85   H     H_    0.518604 0.411901 0.843222 0.313007
H86   H     H_    0.427173 0.408445 0.919540 0.277819
C79   C     C_3   0.995011 0.072053 0.443671 -0.876172
H87   H     H_    0.932372 0.090782 0.416592 0.272422
H88   H     H_    0.024215 0.085494 0.342191 0.318153
H89   H     H_    0.993983 0.014187 0.456263 0.265309
C80   C     C_3   0.989860 0.926730 0.942826 -0.895737
H90   H     H_    0.988555 0.984701 0.950575 0.262746
H91   H     H_    0.019000 0.911630 0.842194 0.313436
H92   H     H_    0.927339 0.908048 0.917743 0.278031
F13   F     F_    0.705254 0.343507 0.793551 -0.642394
F14   F     F_    0.705693 0.656807 0.294113 -0.629667
F15   F     F_    0.205265 0.843506 0.793456 -0.642851
F16   F     F_    0.205708 0.156821 0.294097 -0.629752
F17   F     F_    0.963463 0.203927 0.214619 -0.803676
F18   F     F_    0.961519 0.795223 0.716490 -0.803956
F19   F     F_    0.463202 0.704062 0.214135 -0.803738
F20   F     F_    0.461836 0.295385 0.716921 -0.803927

loop_
_geom_bond_atom_site_label_1
_geom_bond_atom_site_label_2
_geom_bond_distance
_ccdc_geom_bond_type
C28   F12   1.379261 S    
O25   Ba1   2.881133 S    
C79   H88   1.105193 S    
P1    O17   1.747357 S    
O15   P16   1.543654 D    
P10   O34   1.545800 D    
C19   F7    1.373043 S    
C4    C78   1.523436 S    
C6    C10   1.511833 S    
P3    O19   1.747386 S    
O21   P14   1.740172 S    
P5    O37   1.742339 S    
C8    H12   1.110890 S    
C39   C51   1.400525 A    
C11   H19   1.103261 S    
P7    O39   1.742178 S    
C43   C57   1.409901 A    
P8    O40   1.741856 S    
C73   H71   1.107394 S    
C52   C56   1.453141 A    
P16   C47   1.859584 S    
P9    O33   1.545148 D    
C80   H90   1.102074 S    
C74   H72   1.109028 S    
C44   H58   1.074093 S    
P1    O1    1.537922 D    
O5    Ba2   2.862916 S    
C68   C72   1.395847 A    
P8    Ba4   3.437212 S    
P11   O31   1.736399 S    
C5    H9    1.111140 S    
C14   H26   1.108937 S    
C33   C61   1.394630 A    
P15   C48   1.856356 S    
P10   O42   1.748751 S    
C74   H74   1.102217 S    
P3    O3    1.537922 D    
C41   H59   1.074554 S    
C1    C29   1.518208 S    
C19   H31   1.101875 S    
P4    O20   1.748206 S    
O41   C5    1.405492 S    
P8    O47   1.605704 S    
C26   H42   1.103110 S    
C17   H33   1.100949 S    
Ba3   Ba4   4.647989 S    
O38   C13   1.396621 S    
C72   F14   1.346573 S    
C16   H24   1.109654 S    
C75   H77   1.107405 S    
C2    H6    1.109974 S    
C19   H35   1.100978 S    
C78   H84   1.101995 S    
C58   C62   1.450593 A    
Ba2   O45   2.952533 S    
P11   O43   1.749115 S    
P11   C68   1.838862 S    
O22   C30   1.404064 S    
C18   F6    1.373961 S    
C21   H37   1.103080 S    
C14   C18   1.508171 S    
P12   C67   1.838985 S    
O17   C21   1.390592 S    
O29   Ba1   2.848343 S    
P7    Ba3   3.434741 S    
C30   H50   1.111359 S    
C5    C9    1.510560 S    
P6    Ba2   3.437212 S    
O2    Ba2   2.877569 S    
C17   F5    1.373036 S    
O39   C16   1.397344 S    
C6    H10   1.110852 S    
C3    H1    1.112159 S    
C14   H22   1.109501 S    
P4    O8    1.596802 S    
O22   P13   1.738643 S    
C39   C47   1.399672 A    
C77   H82   1.105117 S    
P6    O38   1.741781 S    
P4    O4    1.538159 D    
O8    Ba3   2.857830 S    
C3    C31   1.518162 S    
P8    O28   1.537230 D    
Ba2   O46   2.857778 S    
C3    C77   1.522622 S    
O10   P13   1.739775 S    
P9    O29   1.736327 S    
C74   H73   1.107114 S    
C79   H87   1.111604 S    
C38   H66   1.082216 S    
C22   C74   1.508235 S    
C17   H29   1.101865 S    
P4    Ba4   3.432410 S    
O16   P15   1.542321 D    
C37   H65   1.081999 S    
P2    O2    1.538159 D    
P12   O36   1.545790 D    
P1    Ba1   3.434826 S    
C27   H47   1.109469 S    
C31   F3    1.376969 S    
C34   C62   1.394775 A    
P5    O25   1.537466 D    
C30   F2    1.376145 S    
C8    C12   1.511754 S    
C56   C58   1.450512 A    
C2    C30   1.516465 S    
C29   F1    1.376946 S    
O28   Ba4   2.886326 S    
C41   C45   1.401092 A    
O20   C24   1.389484 S    
O24   C32   1.403995 S    
C41   C59   1.409920 A    
C55   C57   1.452304 A    
C35   C67   1.391547 A    
O12   P15   1.739643 S    
C42   C60   1.409011 A    
C33   C65   1.391673 A    
C20   F8    1.374043 S    
C32   F4    1.376136 S    
C12   H14   1.108696 S    
C40   H68   1.082214 S    
C15   C19   1.507520 S    
C20   H36   1.102245 S    
C57   C61   1.451868 A    
O1    Ba1   2.882713 S    
C43   C47   1.401123 A    
C67   C71   1.397191 A    
C73   H69   1.109215 S    
O10   Ba2   2.848929 S    
O4    Ba4   2.877569 S    
C54   C72   1.412352 A    
C10   H16   1.108664 S    
O27   Ba3   2.881133 S    
C7    C11   1.510553 S    
C60   C64   1.450601 A    
C9    H55   1.103725 S    
C13   H25   1.108852 S    
O13   P14   1.543582 D    
O26   Ba2   2.886326 S    
C4    H2    1.111495 S    
C31   H51   1.110781 S    
P3    Ba3   3.434826 S    
C25   F9    1.377621 S    
P2    O18   1.748172 S    
C76   H78   1.109068 S    
C25   H41   1.097926 S    
C11   H53   1.103633 S    
C37   C49   1.400546 A    
O9    Ba1   2.850885 S    
C16   C20   1.508270 S    
C35   H63   1.082156 S    
C38   C46   1.399454 A    
C76   H79   1.107165 S    
C49   C53   1.453986 A    
O44   C8    1.404505 S    
P1    C49   1.919341 S    
P10   O30   1.735154 S    
O23   P16   1.740096 S    
O32   Ba4   2.850292 S    
P1    O5    1.600380 S    
P7    O48   1.602085 S    
O24   P15   1.738465 S    
C43   H57   1.074478 S    
O9    P14   1.741180 S    
P12   O44   1.748688 S    
C21   C73   1.508743 S    
O7    Ba4   2.862916 S    
C36   C68   1.391345 A    
P5    O46   1.602085 S    
O6    Ba1   2.857830 S    
P6    O26   1.537230 D    
P14   C45   1.859452 S    
C38   C50   1.400086 A    
O11   Ba3   2.850885 S    
P6    C61   1.907504 S    
P3    C51   1.919272 S    
C28   H48   1.107721 S    
Ba3   O47   2.862864 S    
C8    F20   1.375772 S    
C80   H91   1.105421 S    
C44   C58   1.408981 A    
C71   F13   1.348596 S    
P9    O41   1.748938 S    
C34   H62   1.082313 S    
Ba1   O45   2.862864 S    
C40   C48   1.399498 A    
C33   H61   1.082154 S    
C36   C64   1.394869 A    
P10   C65   1.839156 S    
P2    O6    1.596802 S    
C69   F15   1.348639 S    
C20   H32   1.102264 S    
C56   C70   1.412394 A    
O37   C14   1.397296 S    
C16   H28   1.108960 S    
C5    F17   1.376044 S    
Ba1   Ba2   4.647989 S    
C55   C69   1.413209 A    
C44   C48   1.400351 A    
C25   H45   1.108986 S    
P12   O32   1.735309 S    
C23   C75   1.508839 S    
O18   C22   1.389511 S    
C77   H83   1.103300 S    
C28   H44   1.103828 S    
C80   H92   1.111353 S    
C53   C71   1.413146 A    
C13   C17   1.507474 S    
C1    C79   1.522725 S    
O3    Ba3   2.882713 S    
C50   C54   1.453122 A    
C32   H52   1.111274 S    
C9    H15   1.110220 S    
P5    Ba1   3.434741 S    
Ba4   O48   2.857778 S    
C24   C76   1.508178 S    
C36   H64   1.082308 S    
C51   C55   1.454008 A    
C35   C63   1.394552 A    
C24   C28   1.535894 S    
C12   H54   1.102316 S    
C4    C32   1.516258 S    
C23   H39   1.103125 S    
C76   H80   1.102152 S    
C22   C26   1.535933 S    
C1    H3    1.112284 S    
C40   C52   1.400123 A    
C11   H13   1.110097 S    
C2    C80   1.523465 S    
C2    H4    1.111586 S    
O12   Ba4   2.848929 S    
C78   H86   1.111339 S    
C15   H27   1.108837 S    
C3    H7    1.109838 S    
Ba4   O47   2.952533 S    
C27   H43   1.098632 S    
C34   C66   1.391229 A    
C37   C45   1.399675 A    
C12   H20   1.101597 S    
C53   C59   1.452307 A    
P2    C50   1.915991 S    
C7    H11   1.111091 S    
P2    Ba2   3.432410 S    
P7    O27   1.537466 D    
O42   C6    1.404425 S    
O31   Ba3   2.848343 S    
P7    C64   1.904082 S    
C9    H17   1.103129 S    
C18   H34   1.102383 S    
C22   H38   1.101529 S    
O30   Ba2   2.850292 S    
C39   H67   1.081995 S    
P13   C46   1.856342 S    
C75   H76   1.103448 S    
C42   C46   1.400398 A    
C70   F16   1.346670 S    
P5    C62   1.903963 S    
C18   H30   1.102370 S    
O43   C7    1.405513 S    
C4    H8    1.109837 S    
C13   H21   1.109226 S    
C73   H70   1.103444 S    
C26   F10   1.378827 S    
C42   H60   1.074102 S    
P3    O7    1.600380 S    
C66   C70   1.395856 A    
P8    C63   1.907290 S    
P11   O35   1.545147 D    
O11   P16   1.741326 S    
C65   C69   1.397203 A    
P9    C66   1.838633 S    
C6    F18   1.375729 S    
P6    O45   1.605704 S    
Ba3   O48   2.953412 S    
C26   H46   1.107145 S    
C15   H23   1.109228 S    
O23   C31   1.405029 S    
C10   H18   1.101783 S    
P4    C52   1.916074 S    
C79   H89   1.103341 S    
C1    H5    1.109865 S    
C10   H56   1.102365 S    
C29   H49   1.110690 S    
Ba1   O46   2.953412 S    
O19   C23   1.390638 S    
O21   C29   1.405092 S    
C27   F11   1.378096 S    
O40   C15   1.396621 S    
C78   H85   1.105180 S    
C77   H81   1.111512 S    
C21   C25   1.535475 S    
C7    F19   1.375989 S    
O14   P13   1.542375 D    
C54   C60   1.450486 A    
C59   C63   1.451875 A    
C24   H40   1.101542 S    
C75   H75   1.109228 S    
C23   C27   1.535645 S    
