data_mof_unit_45940.cif
_audit_creation_date              2012-12-10T19:25:04-0500
_audit_creation_method            fapswitch 2.2
_symmetry_space_group_name_H-M    P1
_symmetry_Int_Tables_number       1
_space_group_crystal_system       triclinic
_cell_length_a                    15.742755
_cell_length_b                    10.484854
_cell_length_c                    9.790167
_cell_angle_alpha                 89.497486
_cell_angle_beta                  89.896729
_cell_angle_gamma                 90.129996
_cell_volume                      1615.9007461

loop_
_atom_site_label
_atom_site_type_symbol
_atom_type_description
_atom_site_fract_x
_atom_site_fract_y
_atom_site_fract_z
_atom_type_partial_charge
C1    C     C_R   0.500001 0.257808 0.500617 0.870538
C2    C     C_3   0.525194 0.606451 0.952091 0.323658
C3    C     C_3   0.550203 0.411965 0.951621 -0.124262
C4    C     C_3   0.449797 0.588035 0.048379 -0.124262
C5    C     C_3   0.423985 0.478994 0.951621 -0.169791
C6    C     C_3   0.576015 0.521006 0.048379 -0.169790
C7    C     C_R   0.338284 0.499970 0.500090 0.893979
C8    C     C_R   0.661716 0.500030 0.499910 0.893980
C9    C     C_3   0.971675 0.412320 0.590443 -0.070671
C10   C     C_3   0.028326 0.587685 0.409553 -0.070638
C11   C     C_3   0.027863 0.385185 0.465207 0.179462
C12   C     C_R   0.499999 0.742192 0.499383 0.870536
C13   C     C_3   0.972137 0.614818 0.534789 0.179461
C14   C     C_1   0.249632 0.500079 0.500395 -0.165597
C15   C     C_1   0.750368 0.499922 0.499605 -0.165603
C16   C     C_3   0.027520 0.528546 0.626259 -0.055505
C17   C     C_3   0.972480 0.471457 0.373736 -0.055457
C18   C     C_3   0.083787 0.500602 0.500703 -0.011385
C19   C     C_3   0.916213 0.499402 0.499294 -0.011373
C20   C     C_1   0.174531 0.500248 0.500640 -0.020932
C21   C     C_1   0.825469 0.499754 0.499359 -0.020957
C22   C     C_3   0.500459 0.039162 0.631220 -0.179598
C23   C     C_3   0.570350 0.956617 0.564139 -0.233145
C24   C     C_3   0.499541 0.960838 0.368780 -0.179599
C25   C     C_3   0.001986 0.163621 0.397385 -0.743359
C26   C     C_3   0.998028 0.836409 0.602499 -0.743365
C27   C     C_1   0.939091 0.317885 0.689177 0.191796
C28   C     C_1   0.060913 0.682114 0.310816 0.191830
C29   C     C_1   0.940940 0.442616 0.236280 0.205469
C30   C     C_1   0.059056 0.557400 0.763715 0.205516
C31   C     C_1   0.355603 0.907135 0.634228 0.159200
C32   C     C_1   0.644397 0.092865 0.365772 0.159194
C33   C     C_3   0.440785 0.168361 0.016073 -0.824524
C34   C     C_3   0.429649 0.043383 0.435860 -0.233143
C35   C     C_3   0.559214 0.831639 0.983927 -0.824526
C36   C     C_3   0.499920 0.877098 0.498188 -0.027525
C37   C     C_3   0.500080 0.122902 0.501812 -0.027525
C38   C     C_3   0.431133 0.957751 0.564106 0.045856
C39   C     C_3   0.568867 0.042249 0.435894 0.045854
C40   C     C_3   0.474806 0.393549 0.047909 0.323658
H1    H     H_    0.627581 0.916922 0.615076 0.145940
H2    H     H_    0.036022 0.078187 0.359754 0.241695
H3    H     H_    0.957635 0.195779 0.316361 0.259119
H4    H     H_    0.965433 0.136140 0.490099 0.234137
H5    H     H_    0.890435 0.768057 0.504812 0.228408
H6    H     H_    0.964015 0.921771 0.640367 0.241773
H7    H     H_    0.034416 0.864015 0.509660 0.234087
H8    H     H_    0.042529 0.804218 0.683296 0.259094
H9    H     H_    0.390517 0.286479 0.165344 0.235940
H10   H     H_    0.416691 0.083017 0.071959 0.242840
H11   H     H_    0.505161 0.146084 0.976656 0.242465
H12   H     H_    0.372419 0.083077 0.384924 0.145946
H13   H     H_    0.397362 0.189964 0.929564 0.241847
H14   H     H_    0.609483 0.713521 0.834656 0.235937
H15   H     H_    0.583309 0.916983 0.928041 0.242839
H16   H     H_    0.602638 0.810036 0.070436 0.241847
H17   H     H_    0.494839 0.853916 0.023344 0.242466
H18   H     H_    0.500239 0.074423 0.737669 0.153469
H19   H     H_    0.499761 0.925577 0.262331 0.153469
H20   H     H_    0.591625 0.338024 0.906058 0.142375
H21   H     H_    0.408375 0.661976 0.093942 0.142375
H22   H     H_    0.360707 0.459129 0.906582 0.153768
H23   H     H_    0.639293 0.540871 0.093418 0.153770
H24   H     H_    0.109515 0.231913 0.495298 0.228410
N1    N     N_3   0.499940 0.500030 0.863290 -0.110647
N2    N     N_1   0.703887 0.132981 0.310534 -0.198866
N3    N     N_2   0.444933 0.275149 0.108013 -0.271263
N4    N     N_2   0.555067 0.724851 0.891987 -0.271263
N5    N     N_3   0.500060 0.499970 0.136710 -0.110647
N6    N     N_2   0.062999 0.262397 0.428687 -0.298312
N7    N     N_2   0.937008 0.737603 0.571337 -0.298310
N8    N     N_1   0.913403 0.243526 0.766985 -0.195747
N9    N     N_1   0.086604 0.756469 0.233006 -0.195746
N10   N     N_1   0.916100 0.420001 0.127978 -0.182938
N11   N     N_1   0.083892 0.580026 0.872016 -0.182914
N12   N     N_1   0.296113 0.867019 0.689466 -0.198880
O1    O     O_R   0.500000 0.313960 0.616610 -0.628883
O2    O     O_R   0.500000 0.686040 0.383390 -0.628883
O3    O     O_R   0.500040 0.313950 0.383350 -0.602526
O4    O     O_R   0.499960 0.686050 0.616650 -0.602527
O5    O     O_R   0.376760 0.499990 0.616610 -0.609005
O6    O     O_R   0.623240 0.500010 0.383390 -0.609002
O7    O     O_R   0.376790 0.499980 0.383350 -0.622686
O8    O     O_R   0.623210 0.500020 0.616650 -0.622688
Zn1   Zn    Zn3+2 0.499980 0.500010 0.655740 0.955130
Zn2   Zn    Zn3+2 0.500020 0.499990 0.344260 0.955132

loop_
_geom_bond_atom_site_label_1
_geom_bond_atom_site_label_2
_ccdc_geom_bond_type
C6    N5    S    
C7    O7    A    
C11   C18   S    
H5    N7    S    
C34   C37   S    
C1    O1    A    
C2    N1    S    
C25   H3    S    
C11   N6    S    
C2    C6    S    
C9    C27   S    
C24   C36   S    
C8    O6    A    
C19   C21   S    
C9    C16   S    
C2    N4    S    
N5    Zn2   S    
H14   N4    S    
C10   C17   S    
C16   C30   S    
C22   C38   S    
C24   C39   S    
C17   C29   S    
C32   C39   S    
C9    C19   S    
C7    C14   S    
C40   N3    S    
C12   O2    A    
H24   N6    S    
C12   C36   S    
C26   H8    S    
C3    H20   S    
O2    Zn2   S    
O1    Zn1   S    
C8    O8    A    
C26   N7    S    
C3    N1    S    
C28   N9    T    
C25   H4    S    
C4    N5    S    
C33   H13   S    
C40   N5    S    
C13   C19   S    
C35   H15   S    
C14   C20   T    
O8    Zn1   S    
C5    N1    S    
C29   N10   T    
C13   N7    S    
C33   H10   S    
O6    Zn2   S    
C22   C37   S    
C4    H21   S    
C24   C34   S    
C6    H23   S    
C2    C4    S    
O4    Zn1   S    
C9    C11   S    
C26   H7    S    
C7    O5    A    
C3    C40   S    
C8    C15   S    
C1    O3    A    
C5    C40   S    
C33   N3    S    
C32   N2    T    
C10   C28   S    
C11   C17   S    
H9    N3    S    
C35   H16   S    
C34   C38   S    
C3    C6    S    
C4    C5    S    
C10   C13   S    
C25   H2    S    
C22   H18   S    
N1    Zn1   S    
C1    C37   S    
C33   H11   S    
C34   H12   S    
C23   H1    S    
C31   C38   S    
C35   H17   S    
C36   C38   S    
C37   C39   S    
C30   N11   T    
C31   N12   T    
C35   N4    S    
C10   C18   S    
C24   H19   S    
C23   C39   S    
C12   O4    A    
C17   C19   S    
C5    H22   S    
C18   C20   S    
C26   H6    S    
C15   C21   T    
O7    Zn2   S    
C16   C18   S    
C23   C36   S    
C13   C16   S    
C22   C23   S    
C25   N6    S    
O3    Zn2   S    
O5    Zn1   S    
C27   N8    T    
