data_mof_unit_18950.cif
_audit_creation_date              2012-12-11T15:59:44-0500
_audit_creation_method            fapswitch 2.2
_symmetry_space_group_name_H-M    P1
_symmetry_Int_Tables_number       1
_space_group_crystal_system       triclinic
_cell_length_a                    10.741117
_cell_length_b                    10.709265
_cell_length_c                    17.090441
_cell_angle_alpha                 99.805251
_cell_angle_beta                  99.677875
_cell_angle_gamma                 60.802234
_cell_volume                      1682.76749252

loop_
_atom_site_label
_atom_site_type_symbol
_atom_type_description
_atom_site_fract_x
_atom_site_fract_y
_atom_site_fract_z
_atom_type_partial_charge
C1    C     C_R   0.353833 0.779456 0.402679 0.546573
C2    C     C_R   0.852631 0.317480 0.331777 0.022678
C3    C     C_R   0.297786 0.902247 0.176264 0.006224
C4    C     C_R   0.369670 0.346108 0.357491 0.549698
C5    C     C_R   0.437786 0.838283 0.215629 0.025284
C6    C     C_R   0.452842 0.836407 0.298932 0.024463
C7    C     C_R   0.196463 0.919934 0.295562 -0.151279
C8    C     C_R   0.178723 0.945950 0.217442 -0.159536
C9    C     C_R   0.562965 0.771943 0.175208 -0.090851
C10   C     C_R   0.697368 0.727239 0.217551 -0.146882
C11   C     C_R   0.709642 0.749225 0.300385 -0.118994
C12   C     C_R   0.809284 0.238311 0.192362 -0.046233
C13   C     C_R   0.588526 0.805124 0.340973 -0.052861
C14   C     C_R   0.333072 0.858257 0.335760 -0.004155
C15   C     C_R   0.300116 0.277549 0.799840 -0.069086
C16   C     C_R   0.780524 0.372458 0.404916 0.575202
C17   C     C_R   0.426540 0.177889 0.763139 0.017961
C18   C     C_R   0.478284 0.228055 0.712891 -0.017858
C19   C     C_R   0.249119 0.449039 0.708352 0.353332
C20   C     C_R   0.211612 0.411672 0.771065 -0.107611
C21   C     C_R   0.507469 0.031823 0.778491 -0.078032
C22   C     C_R   0.646157 0.946710 0.756549 -0.103873
C23   C     C_R   0.823377 0.220168 0.273850 0.020011
C24   C     C_R   0.707059 0.006033 0.719341 -0.096737
C25   C     C_R   0.624189 0.145482 0.697869 -0.078109
C26   C     C_R   0.381088 0.356097 0.677168 -0.003082
C27   C     C_1   0.845576 0.329334 0.705597 -0.051955
C28   C     C_R   0.358064 0.769242 0.627465 0.548123
C29   C     C_1   0.892153 0.294100 0.772059 -0.051628
C30   C     C_1   0.339109 0.809286 0.709512 -0.025906
C31   C     C_1   0.313099 0.836875 0.777533 -0.034041
C32   C     C_R   0.897434 0.308378 0.089940 0.541790
C33   C     C_R   0.318933 0.300032 0.120152 0.564173
C34   C     C_R   0.911380 0.394936 0.309512 -0.158362
C35   C     C_R   0.265249 0.943792 0.096138 0.555056
C36   C     C_R   0.942542 0.273614 0.854342 0.540675
C37   C     C_R   0.279523 0.252965 0.877177 0.530522
C38   C     C_R   0.279136 0.884234 0.857324 0.546368
C39   C     C_R   0.407489 0.376171 0.600038 0.554478
C40   C     C_R   0.777463 0.378630 0.629162 0.541966
C41   C     C_1   0.343100 0.335847 0.274186 -0.039265
C42   C     C_1   0.331214 0.326495 0.203440 -0.037519
C43   C     C_R   0.862231 0.323309 0.170611 0.008954
C44   C     C_R   0.920753 0.393612 0.229990 -0.148686
C45   C     C_R   0.750680 0.164462 0.135008 -0.115032
C46   C     C_R   0.726464 0.059464 0.156762 -0.162051
C47   C     C_R   0.759015 0.028012 0.235378 -0.085285
C48   C     C_R   0.808239 0.105429 0.293670 0.381084
Cr1   Cr    Cr6+3 0.608100 0.610860 0.522250 1.031133
Cr2   Cr    Cr6+3 0.288890 0.599990 0.488420 1.091323
Cr3   Cr    Cr6+3 0.603040 0.289190 0.489390 1.080467
Cr4   Cr    Cr6+3 0.053960 0.052250 0.967380 1.026045
Cr5   Cr    Cr6+3 0.059890 0.373160 0.992710 1.015821
Cr6   Cr    Cr6+3 0.373370 0.061690 0.991710 0.989560
F1    F     F_    0.157325 0.577108 0.679480 -0.615128
F2    F     F_    0.855572 0.056415 0.366785 -0.643135
H1    H     H_    0.943635 0.462203 0.353406 0.138893
H2    H     H_    0.725433 0.185430 0.073053 0.154734
H3    H     H_    0.973577 0.449333 0.215127 0.140300
H4    H     H_    0.687360 0.998714 0.112130 0.146780
H5    H     H_    0.747827 0.942261 0.251609 0.148126
H6    H     H_    0.104257 0.940414 0.323366 0.198508
H7    H     H_    0.560431 0.748948 0.111196 0.151981
H8    H     H_    0.071197 0.995150 0.187738 0.149184
H9    H     H_    0.791509 0.681831 0.185732 0.123347
H10   H     H_    0.813222 0.723351 0.333196 0.128696
H11   H     H_    0.602580 0.826178 0.405057 0.151323
H12   H     H_    0.465491 0.983065 0.808631 0.148495
H13   H     H_    0.113913 0.488455 0.797576 0.164786
H14   H     H_    0.707628 0.836452 0.770757 0.132448
H15   H     H_    0.817161 0.943181 0.705365 0.152689
H16   H     H_    0.675027 0.187301 0.669130 0.154284
O1    O     O_R   0.749810 0.499790 0.438040 -0.524723
O2    O     O_R   0.411730 0.181020 0.091530 -0.517653
O3    O     O_R   0.365010 0.944360 0.063320 -0.514162
O4    O     O_R   0.477660 0.726260 0.439290 -0.517189
O5    O     O_R   0.159380 0.906670 0.876210 -0.486462
O6    O     O_R   0.930820 0.177420 0.886730 -0.481959
O7    O     O_R   0.910360 0.395420 0.895720 -0.506672
O8    O     O_R   0.186010 0.361730 0.919870 -0.501277
O9    O     O_R   0.400000 0.173010 0.914630 -0.504457
O10   O     O_R   0.354140 0.936940 0.899340 -0.538200
O11   O     O_3   0.162410 0.162370 0.983930 -0.299490
O12   O     O_R   0.298970 0.468800 0.557390 -0.423951
O13   O     O_R   0.260150 0.743000 0.412270 -0.496087
O14   O     O_R   0.297740 0.466550 0.394720 -0.501905
O15   O     O_R   0.488080 0.253500 0.386430 -0.486191
O16   O     O_R   0.722670 0.303800 0.421940 -0.425977
O17   O     O_R   0.751130 0.502220 0.613520 -0.489461
O18   O     O_R   0.478890 0.728510 0.601960 -0.507081
O19   O     O_R   0.261470 0.745430 0.587750 -0.466609
O20   O     O_R   0.489400 0.255930 0.561910 -0.530015
O21   O     O_R   0.723890 0.306050 0.584610 -0.528063
O22   O     O_3   0.500010 0.500010 0.500020 -0.295402
O23   O     O_R   0.171100 0.914680 0.053100 -0.505994
O24   O     O_R   0.941680 0.184840 0.050710 -0.513813
O25   O     O_R   0.922080 0.403420 0.072610 -0.522542
O26   O     O_R   0.196880 0.369150 0.083850 -0.495028

loop_
_geom_bond_atom_site_label_1
_geom_bond_atom_site_label_2
_ccdc_geom_bond_type
C27   C29   T    
C41   C42   T    
C19   C20   A    
C18   C26   A    
Cr1   O18   S    
Cr2   O12   S    
C7    C8    A    
C4    O15   A    
C45   C46   A    
C29   C36   S    
C35   O3    A    
C33   C42   S    
Cr5   O7    S    
C39   O12   A    
C12   C43   A    
C30   C31   T    
C26   C39   S    
C4    O14   A    
C4    C41   S    
C44   H3    S    
C32   O25   A    
Cr4   O23   S    
C48   F2    S    
C33   O26   A    
C19   C26   A    
C15   C37   S    
Cr2   O13   S    
Cr6   O2    S    
C7    C14   A    
C34   H1    S    
Cr1   O22   S    
C2    C16   S    
C9    C10   A    
C40   O21   A    
C11   H10   S    
C2    C34   A    
C21   C22   A    
C38   O10   A    
C37   O9    A    
C18   C25   A    
Cr4   O6    S    
Cr6   O11   S    
C1    O13   A    
C15   C20   A    
C37   O8    A    
C45   H2    S    
C16   O1    A    
Cr5   O8    S    
C34   C44   A    
C24   C25   A    
C3    C8    A    
Cr3   O15   S    
Cr2   O22   S    
Cr5   O25   S    
C17   C21   A    
Cr4   O11   S    
C43   C44   A    
C7    H6    S    
C5    C9    A    
Cr3   O20   S    
C6    C14   A    
C33   O2    A    
C47   C48   A    
C12   C23   A    
C3    C35   S    
C27   C40   S    
C17   C18   A    
Cr1   O4    S    
C25   H16   S    
Cr3   O21   S    
C32   O24   A    
C8    H8    S    
C21   H12   S    
C40   O17   A    
Cr1   O1    S    
C20   H13   S    
Cr4   O5    S    
C39   O20   A    
Cr6   O10   S    
C13   H11   S    
C10   H9    S    
C19   F1    S    
C15   C17   A    
C46   C47   A    
C23   C48   A    
C46   H4    S    
C9    H7    S    
C1    O4    A    
Cr1   O17   S    
C12   C45   A    
C3    C5    A    
C36   O7    A    
Cr3   O16   S    
C47   H5    S    
C38   O5    A    
C35   O23   A    
Cr5   O26   S    
C31   C38   S    
Cr5   O11   S    
C28   C30   S    
C36   O6    A    
C6    C13   A    
C11   C13   A    
C5    C6    A    
C32   C43   S    
Cr4   O24   S    
C28   O19   A    
C22   C24   A    
C10   C11   A    
Cr2   O14   S    
Cr3   O22   S    
Cr6   O3    S    
Cr2   O19   S    
C2    C23   A    
C16   O16   A    
C28   O18   A    
C1    C14   S    
C22   H14   S    
Cr6   O9    S    
C24   H15   S    
