data_mof_unit_59290.cif
_audit_creation_date              2013-03-05T15:58:34-0500
_audit_creation_method            fapswitch 2.2
_symmetry_space_group_name_H-M    P1
_symmetry_Int_Tables_number       1
_space_group_crystal_system       triclinic
_cell_length_a                    15.093572
_cell_length_b                    13.697422
_cell_length_c                    10.634199
_cell_angle_alpha                 90.222332
_cell_angle_beta                  89.858632
_cell_angle_gamma                 90.010297
_cell_volume                      2198.52319516

loop_
_atom_site_label
_atom_site_type_symbol
_atom_site_description
_atom_site_fract_x
_atom_site_fract_y
_atom_site_fract_z
_atom_type_partial_charge
O1    O     O_R   0.370260 0.582280 0.500030 -0.590399
O2    O     O_R   0.629740 0.417720 0.499970 -0.590400
O3    O     O_R   0.629740 0.582280 0.499970 -0.585483
O4    O     O_R   0.370260 0.417720 0.500030 -0.585488
C1    C     C_R   0.328491 0.499968 0.500043 0.808835
C2    C     C_R   0.671509 0.500031 0.499961 0.808836
O5    O     O_R   0.499980 0.582260 0.316850 -0.585738
O6    O     O_R   0.500020 0.417740 0.683150 -0.585738
O7    O     O_R   0.500020 0.582260 0.683150 -0.585081
O8    O     O_R   0.499980 0.417740 0.316850 -0.585085
C3    C     C_R   0.500019 0.499768 0.259066 0.792023
C4    C     C_R   0.499981 0.500232 0.740934 0.792027
Cu1   Cu    Cu3+1 0.500000 0.597420 0.500000 0.950896
Cu2   Cu    Cu3+1 0.500000 0.402580 0.500000 0.950890
C5    C     C_3   0.426912 0.545476 0.042544 -0.162191
C6    C     C_3   0.573088 0.454524 0.957456 -0.162183
C7    C     C_3   0.499402 0.592942 0.960023 -0.130271
C8    C     C_3   0.500598 0.407058 0.039977 -0.130278
C9    C     C_3   0.427493 0.453364 0.957979 -0.165724
C10   C     C_3   0.572507 0.546636 0.042021 -0.165718
C11   C     C_3   0.499984 0.500740 0.877737 0.011829
C12   C     C_3   0.500016 0.499260 0.122263 0.011827
C13   C     C_R   0.814621 0.411845 0.504277 -0.202886
C14   C     C_R   0.185378 0.588152 0.495769 -0.202889
C15   C     C_R   0.768327 0.500227 0.500878 -0.096444
C16   C     C_R   0.231674 0.499771 0.499147 -0.096432
C17   C     C_R   0.814514 0.588937 0.498322 -0.181497
C18   C     C_R   0.185486 0.411059 0.501719 -0.181540
C19   C     C_R   0.907221 0.590627 0.501295 -0.005579
C20   C     C_R   0.092779 0.409370 0.498782 -0.005603
C21   C     C_R   0.953524 0.500547 0.501311 0.023755
C22   C     C_R   0.046476 0.499449 0.498756 0.023767
C23   C     C_R   0.906815 0.411352 0.503575 0.062129
C24   C     C_R   0.093184 0.588644 0.496492 0.062130
C25   C     C_R   0.954913 0.679667 0.500929 0.325618
C26   C     C_R   0.045087 0.320329 0.499202 0.325665
C27   C     C_R   0.047449 0.677420 0.496641 -0.255543
C28   C     C_R   0.952552 0.322576 0.503469 -0.255524
C29   C     C_R   0.441945 0.793539 0.575612 0.015428
C30   C     C_R   0.558055 0.206461 0.424388 0.015421
C31   C     C_R   0.558120 0.793110 0.424486 0.037980
C32   C     C_R   0.441879 0.206890 0.575514 0.037979
N1    N     N_R   0.500000 0.743810 0.500000 -0.185980
N2    N     N_R   0.500000 0.256190 0.500000 -0.185984
C33   C     C_R   0.559561 0.896166 0.422766 -0.006954
C34   C     C_R   0.440438 0.103833 0.577234 -0.006967
C35   C     C_R   0.440493 0.896608 0.577317 -0.008473
C36   C     C_R   0.559507 0.103391 0.422683 -0.008464
C37   C     C_R   0.500012 0.948181 0.500018 0.090230
C38   C     C_R   0.499987 0.051819 0.499981 0.090227
C39   C     C_R   0.618842 0.948231 0.345943 -0.158883
C40   C     C_R   0.381157 0.051769 0.654057 -0.158849
C41   C     C_R   0.381199 0.949117 0.654118 -0.180925
C42   C     C_R   0.618801 0.050883 0.345881 -0.180930
H1    H     H_    0.368212 0.415283 0.920367 0.137636
H2    H     H_    0.631788 0.584717 0.079632 0.137632
H3    H     H_    0.367139 0.582593 0.080551 0.141413
H4    H     H_    0.632861 0.417407 0.919448 0.141415
H5    H     H_    0.498883 0.669100 0.924659 0.146679
H6    H     H_    0.501117 0.330900 0.075341 0.146677
H7    H     H_    0.778955 0.343112 0.506123 0.158334
H8    H     H_    0.221043 0.656886 0.493923 0.158329
H9    H     H_    0.777547 0.656314 0.492048 0.200621
H10   H     H_    0.222455 0.343682 0.507973 0.200625
N3    N     N_R   0.911146 0.772726 0.507827 0.116697
O9    O     O_R   0.854020 0.790033 0.597021 -0.354595
O10   O     O_R   0.940357 0.845440 0.441108 -0.323475
N4    N     N_R   0.088858 0.227269 0.492426 0.116677
O11   O     O_R   0.145930 0.209863 0.403195 -0.354576
O12   O     O_R   0.059711 0.154636 0.559357 -0.323494
H11   H     H_    0.083949 0.745623 0.496627 0.189703
H12   H     H_    0.916054 0.254371 0.503516 0.189676
H13   H     H_    0.396716 0.752805 0.634663 0.126275
H14   H     H_    0.603284 0.247195 0.365336 0.126277
H15   H     H_    0.603398 0.752047 0.365497 0.127241
H16   H     H_    0.396602 0.247953 0.634502 0.127253
H17   H     H_    0.665233 0.909586 0.285889 0.154640
H18   H     H_    0.334766 0.090413 0.714110 0.154669
H19   H     H_    0.334843 0.910818 0.714228 0.148155
H20   H     H_    0.665157 0.089182 0.285772 0.148147

loop_
_geom_bond_atom_site_label_1
_geom_bond_atom_site_label_2
_geom_bond_distance
_ccdc_geom_bond_type
O5    Cu1   1.957891 S    
C6    C11   1.531644 S    
C17   C19   1.399892 A    
C24   C27   1.398393 A    
C5    H3    1.110206 S    
C10   H2    1.110238 S    
O3    C2    1.291097 A    
C35   C37   1.407977 A    
C36   C42   1.406179 A    
O1    C1    1.291656 A    
C29   C35   1.412009 A    
C25   C27   1.397662 A    
C14   C16   1.398529 A    
C2    C15   1.461379 S    
C33   C39   1.406152 A    
C34   C40   1.406152 A    
C7    C10   1.545798 S    
C30   C36   1.412009 A    
C8    C9    1.545798 S    
C32   C34   1.411964 A    
O7    Cu1   1.959493 S    
C5    C12   1.531646 S    
N4    O11   1.301381 A    
C13   C23   1.391559 A    
O6    Cu2   1.957890 S    
C21   C23   1.410701 A    
O3    Cu1   1.969226 S    
C6    C10   1.546547 S    
C35   C41   1.406179 A    
C36   C38   1.407978 A    
Cu1   Cu2   2.668804 S    
C31   N1    1.367823 A    
O2    C2    1.291649 A    
C32   N2    1.367824 A    
C40   H18   1.083342 S    
O5    C3    1.284105 A    
C42   H20   1.083328 S    
C28   H12   1.084469 S    
O8    Cu2   1.959494 S    
C29   N1    1.367779 A    
N3    O10   1.301363 A    
C4    C11   1.454781 S    
C14   C24   1.391555 A    
C22   C24   1.410699 A    
C5    C9    1.546546 S    
C39   H17   1.083341 S    
C31   H15   1.082675 S    
C21   C22   1.403265 A    
C33   C37   1.407978 A    
O6    C4    1.284105 A    
C6    H4    1.110207 S    
C17   H9    1.080905 S    
C7    H5    1.110301 S    
C18   H10   1.080903 S    
C8    H6    1.110301 S    
C10   C12   1.531614 S    
N3    O9    1.301388 A    
C27   H11   1.084462 S    
O1    Cu1   1.969152 S    
Cu1   N1    2.005166 S    
C40   C41   1.406071 A    
Cu2   N2    2.005166 S    
C13   H7    1.084634 S    
C9    H1    1.110238 S    
C5    C7    1.545754 S    
C34   C38   1.407978 A    
C14   H8    1.084641 S    
C41   H19   1.083328 S    
C8    C12   1.533677 S    
C16   C18   1.401107 A    
O4    C1    1.291091 A    
C26   N4    1.437305 S    
C15   C17   1.401099 A    
C19   C25   1.416121 A    
C3    C12   1.454781 S    
C32   H16   1.082675 S    
C23   C28   1.398404 A    
C20   C26   1.416122 A    
C39   C42   1.406071 A    
C18   C20   1.399891 A    
C19   C21   1.418145 A    
C31   C33   1.411964 A    
C20   C22   1.418148 A    
C26   C28   1.397657 A    
C30   H14   1.082660 S    
C29   H13   1.082660 S    
O4    Cu2   1.969226 S    
O2    Cu2   1.969152 S    
O7    C4    1.282720 A    
C7    C11   1.533676 S    
O8    C3    1.282720 A    
C1    C16   1.461375 S    
C30   N2    1.367779 A    
C13   C15   1.398535 A    
C6    C8    1.545753 S    
C37   C38   1.419579 A    
N4    O12   1.301422 A    
C25   N3    1.437321 S    
C9    C11   1.531614 S    
