data_mof_unit_24038.cif
_audit_creation_date              2012-12-10T18:20:33-0500
_audit_creation_method            fapswitch 2.2
_symmetry_space_group_name_H-M    P1
_symmetry_Int_Tables_number       1
_space_group_crystal_system       triclinic
_cell_length_a                    14.010955
_cell_length_b                    13.633694
_cell_length_c                    15.011583
_cell_angle_alpha                 89.996713
_cell_angle_beta                  87.53842
_cell_angle_gamma                 82.604111
_cell_volume                      2841.00467585

loop_
_atom_site_label
_atom_site_type_symbol
_atom_type_description
_atom_site_fract_x
_atom_site_fract_y
_atom_site_fract_z
_atom_type_partial_charge
C1    C     C_R   0.502422 0.498753 0.326737 1.079806
C2    C     C_R   0.498035 0.496535 0.673287 1.080651
C3    C     C_R   0.511223 0.493757 0.952602 -0.025376
C4    C     C_R   0.517400 0.493700 0.046048 -0.011640
C5    C     C_R   0.503174 0.404503 0.907092 -0.024030
C6    C     C_R   0.517678 0.584068 0.091794 -0.005542
C7    C     C_R   0.535204 0.666747 0.951158 -0.141229
C8    C     C_R   0.518022 0.315939 0.046758 -0.150161
C9    C     C_R   0.536161 0.667610 0.043175 -0.146990
C10   C     C_R   0.513328 0.315757 0.955142 -0.140218
C11   C     C_R   0.796777 0.482456 0.577042 -0.007114
C12   C     C_R   0.203394 0.517579 0.422878 -0.015490
C13   C     C_R   0.799089 0.516967 0.422743 -0.012520
C14   C     C_R   0.200803 0.482993 0.577134 0.000693
C15   C     C_R   0.900219 0.517497 0.419903 -0.034877
C16   C     C_R   0.099765 0.483035 0.579843 -0.042644
C17   C     C_R   0.949530 0.500212 0.499806 0.060240
C18   C     C_R   0.050602 0.499663 0.499746 0.059909
C19   C     C_R   0.897376 0.483347 0.579818 -0.037388
C20   C     C_R   0.102917 0.515963 0.419665 -0.039366
C21   C     C_R   0.952673 0.533370 0.339366 -0.040036
C22   C     C_R   0.047421 0.467176 0.660316 -0.038043
C23   C     C_R   0.517440 0.314168 0.500331 1.006054
C24   C     C_R   0.482619 0.685782 0.499285 1.032972
C25   C     C_R   0.054159 0.531213 0.338887 -0.038412
C26   C     C_R   0.946304 0.467591 0.660349 -0.043524
C27   C     C_1   0.469035 0.789212 0.495521 0.006984
C28   C     C_1   0.531240 0.210576 0.499690 0.026686
C29   C     C_2   0.459111 0.980470 0.488503 0.288018
C30   C     C_2   0.542038 0.018994 0.496971 0.283670
C31   C     C_1   0.539657 0.122893 0.498575 0.123374
C32   C     C_1   0.460885 0.876742 0.491870 0.111796
C33   C     C_R   0.487238 0.406311 0.815127 0.317623
C34   C     C_R   0.500637 0.587331 0.184447 0.261244
C35   C     C_R   0.491673 0.496381 0.769274 -0.319005
C36   C     C_R   0.509509 0.496938 0.230964 -0.338263
C37   C     C_R   0.495737 0.586282 0.814332 0.317474
C38   C     C_R   0.531759 0.405149 0.186212 0.253474
C39   C     C_R   0.512497 0.583477 0.905641 -0.024216
C40   C     C_R   0.522240 0.403907 0.093532 -0.009913
H1    H     H_    0.554497 0.731224 0.916559 0.219782
H2    H     H_    0.514315 0.246283 0.079745 0.230775
H3    H     H_    0.554824 0.733003 0.075292 0.212478
H4    H     H_    0.520327 0.244238 0.923531 0.234534
H5    H     H_    0.755094 0.467105 0.636246 0.164974
H6    H     H_    0.245187 0.533571 0.364043 0.161097
H7    H     H_    0.758469 0.529289 0.363389 0.158044
H8    H     H_    0.241098 0.470212 0.636578 0.194022
N1    N     N_R   0.750030 0.500040 0.500070 -0.110000
N2    N     N_R   0.249970 0.499960 0.499930 -0.110683
O1    O     O_R   0.580280 0.500020 0.367860 -0.614675
O2    O     O_R   0.419720 0.499980 0.632140 -0.554955
O3    O     O_R   0.419730 0.500030 0.367840 -0.622114
O4    O     O_R   0.580270 0.499970 0.632160 -0.648114
O5    O     O_R   0.591830 0.359650 0.500030 -0.591061
O6    O     O_R   0.408170 0.640350 0.499970 -0.586928
O7    O     O_R   0.431280 0.359660 0.500010 -0.588148
O8    O     O_R   0.568720 0.640340 0.499990 -0.581036
Zn1   Zn    Zn3+2 0.607200 0.499990 0.500020 1.046256
Zn2   Zn    Zn3+2 0.392800 0.500010 0.499980 1.057394
S1    S     S_3+6 0.655106 0.946235 0.508572 0.053042
O9    O     O_2   0.652086 0.886862 0.592781 -0.255881
O10   O     O_2   0.676112 0.877131 0.430118 -0.278940
O11   O     O_3   0.742253 0.019934 0.513350 -0.520091
H9    H     H_    0.802472 0.974224 0.519795 0.386386
S2    S     S_3+6 0.346168 0.052779 0.475290 0.041391
O12   O     O_2   0.319184 0.114251 0.557795 -0.323931
O13   O     O_2   0.352820 0.119796 0.396366 -0.252638
O14   O     O_3   0.261450 0.978445 0.459149 -0.518578
H10   H     H_    0.201027 0.023863 0.452796 0.388278
S3    S     S_3+6 0.456316 0.298958 0.758502 -0.005125
O15   O     O_2   0.547012 0.241802 0.718790 -0.311341
O16   O     O_2   0.407018 0.233103 0.820731 -0.314588
O17   O     O_3   0.379638 0.329621 0.677357 -0.570534
H11   H     H_    0.359838 0.266342 0.657404 0.406281
S4    S     S_3+6 0.463612 0.702212 0.241810 0.015563
O18   O     O_2   0.548222 0.731942 0.288548 -0.281875
O19   O     O_2   0.426729 0.783672 0.179823 -0.268671
O20   O     O_3   0.374339 0.689999 0.317665 -0.542961
H12   H     H_    0.320358 0.673281 0.282511 0.356252
S5    S     S_3+6 0.466764 0.701442 0.757641 0.008932
O21   O     O_2   0.429989 0.784293 0.821248 -0.282015
O22   O     O_2   0.555207 0.726561 0.707082 -0.282763
O23   O     O_3   0.379434 0.691583 0.686110 -0.574586
H13   H     H_    0.357691 0.760212 0.667387 0.380819
S6    S     S_3+6 0.574990 0.295103 0.245769 0.017004
O24   O     O_2   0.490495 0.255369 0.291199 -0.262324
O25   O     O_2   0.628351 0.216200 0.185894 -0.286281
O26   O     O_3   0.652173 0.319477 0.322833 -0.528777
H14   H     H_    0.706032 0.344508 0.288666 0.351346
C41   C     C_R   0.901402 0.548937 0.255220 0.083783
C42   C     C_R   0.901115 0.470063 0.195280 -0.136352
C43   C     C_R   0.844287 0.481563 0.120790 -0.121774
C44   C     C_R   0.787617 0.571702 0.105910 -0.127547
C45   C     C_R   0.788745 0.650973 0.164654 -0.082333
C46   C     C_R   0.845650 0.639859 0.239114 -0.147697
H15   H     H_    0.942969 0.399249 0.207500 0.145532
H16   H     H_    0.843212 0.420121 0.075421 0.147498
H17   H     H_    0.742282 0.580068 0.049334 0.129640
H18   H     H_    0.744517 0.720548 0.153132 0.167887
H19   H     H_    0.844417 0.700939 0.285463 0.169737
C47   C     C_R   0.098369 0.452276 0.744738 0.085357
C48   C     C_R   0.129183 0.356302 0.774429 -0.137016
C49   C     C_R   0.184284 0.342303 0.849942 -0.035436
C50   C     C_R   0.209916 0.423844 0.895367 -0.089319
C51   C     C_R   0.179065 0.519634 0.866260 -0.110548
C52   C     C_R   0.123159 0.533975 0.791281 -0.134340
H20   H     H_    0.111941 0.292604 0.738261 0.148040
H21   H     H_    0.208265 0.268192 0.872507 0.172539
H22   H     H_    0.254203 0.412686 0.952658 0.132946
H23   H     H_    0.199250 0.582762 0.901148 0.147659
H24   H     H_    0.100974 0.608382 0.768276 0.150522
C53   C     C_R   0.109701 0.544417 0.254032 0.091347
C54   C     C_R   0.106200 0.638132 0.214673 -0.134892
C55   C     C_R   0.166597 0.652494 0.140422 -0.107003
C56   C     C_R   0.231101 0.573701 0.105485 -0.127959
C57   C     C_R   0.233922 0.479905 0.143547 -0.137845
C58   C     C_R   0.172911 0.464960 0.217084 -0.152270
H25   H     H_    0.058597 0.700330 0.242835 0.148785
H26   H     H_    0.164599 0.725115 0.110915 0.164934
H27   H     H_    0.279243 0.585387 0.049251 0.146925
H28   H     H_    0.284284 0.419066 0.116848 0.150006
H29   H     H_    0.177071 0.392411 0.247170 0.160336
C59   C     C_R   0.890828 0.455298 0.745061 0.090940
C60   C     C_R   0.836544 0.537915 0.786309 -0.130071
C61   C     C_R   0.775493 0.525681 0.860365 -0.126550
C62   C     C_R   0.768999 0.431155 0.894238 -0.138882
C63   C     C_R   0.823909 0.348728 0.854204 -0.098828
C64   C     C_R   0.884415 0.360556 0.779473 -0.135429
H30   H     H_    0.839609 0.611270 0.759528 0.157288
H31   H     H_    0.732493 0.589498 0.890676 0.140649
H32   H     H_    0.721299 0.421693 0.951326 0.143517
H33   H     H_    0.818524 0.275561 0.880315 0.155276
H34   H     H_    0.924498 0.296007 0.747312 0.141236

loop_
_geom_bond_atom_site_label_1
_geom_bond_atom_site_label_2
_ccdc_geom_bond_type
C2    C35   S    
S2    O13   D    
C50   H22   S    
C61   C62   A    
O5    Zn1   S    
C52   H24   S    
C45   C46   A    
S4    O20   S    
C63   C64   A    
C6    C9    A    
C54   C55   A    
C11   C19   A    
C43   C44   A    
C38   S6    S    
C61   H31   S    
C35   C37   A    
S4    O19   D    
C29   C32   S    
O14   H10   S    
C30   C31   S    
S6    O25   D    
S2    O14   S    
C51   C52   A    
C55   C56   A    
C56   C57   A    
C23   O7    A    
S1    O10   D    
C19   C26   A    
C1    O3    A    
C62   H32   S    
O2    Zn2   S    
C33   C35   A    
C41   C46   A    
C60   H30   S    
C4    C40   A    
C20   C25   A    
C5    C33   A    
C24   C27   S    
C48   H20   S    
C18   C20   A    
C54   H25   S    
O4    Zn1   S    
S2    O12   D    
C3    C39   A    
C46   H19   S    
C37   S5    S    
S1    O9    D    
C26   C59   S    
C49   C50   A    
S5    O22   D    
O3    Zn2   S    
C42   H15   S    
S5    O21   D    
C7    C9    A    
C51   H23   S    
C9    H3    S    
O17   H11   S    
C10   H4    S    
O23   H13   S    
C4    C6    A    
C56   H27   S    
C41   C42   A    
C13   H7    S    
S6    O24   D    
O7    Zn2   S    
C14   H8    S    
O8    Zn1   S    
O6    Zn2   S    
C12   H6    S    
S1    O11   S    
C57   H28   S    
C29   C30   D    
C11   N1    A    
C25   C53   S    
C15   C21   A    
C29   S2    S    
C12   C20   A    
C17   C18   A    
C47   C52   A    
C16   C18   A    
C23   C28   S    
S4    O18   D    
C1    O1    A    
C2    O2    A    
C13   N1    A    
C8    C10   A    
C44   C45   A    
C13   C15   A    
C2    O4    A    
C60   C61   A    
C14   C16   A    
O20   H12   S    
C11   H5    S    
O1    Zn1   S    
C62   C63   A    
S5    O23   S    
S3    O16   D    
C53   C54   A    
C21   C41   S    
C15   C17   A    
C21   C25   A    
C16   C22   A    
C27   C32   T    
C45   H18   S    
C28   C31   T    
C8    H2    S    
C3    C5    A    
S6    O26   S    
N1    Zn1   S    
S3    O17   S    
C12   N2    A    
C23   O5    A    
C24   O6    A    
C50   C51   A    
C22   C47   S    
N2    Zn2   S    
O11   H9    S    
C36   C38   A    
C5    C10   A    
C37   C39   A    
C57   C58   A    
C38   C40   A    
C14   N2    A    
C44   H17   S    
C42   C43   A    
C17   C19   A    
C59   C64   A    
C34   C36   A    
C58   H29   S    
C7    H1    S    
C47   C48   A    
C64   H34   S    
C33   S3    S    
C53   C58   A    
C6    C34   A    
S3    O15   D    
C24   O8    A    
C55   H26   S    
C22   C26   A    
C30   S1    S    
C48   C49   A    
C7    C39   A    
C49   H21   S    
C8    C40   A    
O26   H14   S    
C63   H33   S    
C43   H16   S    
C3    C4    A    
C1    C36   S    
C34   S4    S    
C59   C60   A    
