data_mof_unit_29823.cif
_audit_creation_date              2012-12-11T15:46:47-0500
_audit_creation_method            fapswitch 2.2
_symmetry_space_group_name_H-M    P1
_symmetry_Int_Tables_number       1
_space_group_crystal_system       triclinic
_cell_length_a                    11.568182
_cell_length_b                    11.580254
_cell_length_c                    19.476972
_cell_angle_alpha                 89.933104
_cell_angle_beta                  89.923574
_cell_angle_gamma                 59.858344
_cell_volume                      2256.38455991

loop_
_atom_site_label
_atom_site_type_symbol
_atom_type_description
_atom_site_fract_x
_atom_site_fract_y
_atom_site_fract_z
_atom_type_partial_charge
C1    C     C_R   0.640712 0.116963 0.599142 0.548198
C2    C     C_1   0.641811 0.702685 0.667750 0.005102
C3    C     C_1   0.126987 0.199564 0.859488 0.004095
C4    C     C_1   0.171364 0.169875 0.727707 -0.031151
C5    C     C_1   0.150347 0.182614 0.799054 -0.031140
C6    C     C_1   0.195007 0.160182 0.667233 0.003603
C7    C     C_1   0.677731 0.192118 0.860900 0.002216
C8    C     C_1   0.658887 0.166956 0.728932 -0.030915
C9    C     C_1   0.665177 0.181414 0.800346 -0.031089
C10   C     C_1   0.653741 0.148945 0.668482 0.003900
C11   C     C_R   0.667960 0.658793 0.196513 -0.016579
C12   C     C_R   0.612907 0.745132 0.598340 0.544494
C13   C     C_R   0.566553 0.653212 0.231699 0.006938
C14   C     C_R   0.559853 0.656717 0.301247 -0.005114
C15   C     C_R   0.777985 0.635150 0.307586 0.117257
C16   C     C_R   0.776412 0.650799 0.235257 0.007598
C17   C     C_3   0.419206 0.734870 0.222004 -0.277955
C18   C     C_3   0.409735 0.741075 0.299335 -0.259012
C19   C     C_R   0.658768 0.661569 0.340285 0.006863
C20   C     C_R   0.158548 0.180958 0.187698 0.007375
C21   C     C_R   0.213431 0.249027 0.219002 -0.006857
C22   C     C_R   0.232917 0.240817 0.288682 0.034152
C23   C     C_R   0.240823 0.145081 0.598001 0.546606
C24   C     C_R   0.149983 0.087989 0.299094 -0.178143
C25   C     C_R   0.129387 0.097587 0.228189 -0.160332
C26   C     C_3   0.341894 0.244650 0.204322 -0.282360
C27   C     C_3   0.361868 0.239347 0.281224 -0.241461
C28   C     C_R   0.203212 0.159933 0.329841 0.017347
C29   C     C_R   0.726459 0.227298 0.209038 0.008106
C30   C     C_R   0.824655 0.116142 0.244226 0.023364
C31   C     C_R   0.806063 0.090440 0.311493 0.027926
C32   C     C_R   0.600316 0.298778 0.316844 -0.164118
C33   C     C_R   0.618990 0.325576 0.247976 -0.157381
C34   C     C_R   0.647978 0.116549 0.404374 0.531475
C35   C     C_3   0.886124 0.972491 0.224893 -0.273336
C36   C     C_3   0.868443 0.945301 0.298539 -0.286243
C37   C     C_R   0.686673 0.172304 0.345993 0.007552
C38   C     C_R   0.081774 0.231522 0.928757 0.547838
C39   C     C_R   0.683531 0.605254 0.929792 0.545661
C40   C     C_R   0.708049 0.206971 0.930282 0.554402
C41   C     C_R   0.088039 0.231851 0.123345 0.537190
C42   C     C_R   0.683157 0.612445 0.125827 0.534697
C43   C     C_R   0.742201 0.237310 0.134357 0.559277
C44   C     C_R   0.618997 0.733932 0.404431 0.546373
C45   C     C_R   0.248334 0.139234 0.400202 0.539064
C46   C     C_1   0.669975 0.647568 0.860353 0.005067
C47   C     C_1   0.655217 0.683005 0.728357 -0.031765
C48   C     C_1   0.663386 0.667188 0.799731 -0.031673
Cr1   Cr    Cr6+3 0.404720 0.198220 0.499960 1.017785
Cr2   Cr    Cr6+3 0.698290 0.897110 0.500380 1.005885
Cr3   Cr    Cr6+3 0.396970 0.904720 0.499610 1.017759
Cr4   Cr    Cr6+3 0.926290 0.152010 0.028150 1.015108
Cr5   Cr    Cr6+3 0.921440 0.451830 0.027490 1.009787
Cr6   Cr    Cr6+3 0.626370 0.446880 0.028730 1.020880
H1    H     H_    0.415513 0.151533 0.177570 0.140514
H2    H     H_    0.449358 0.144530 0.299186 0.144717
H3    H     H_    0.352121 0.332671 0.302301 0.136744
H4    H     H_    0.512499 0.371260 0.344515 0.119933
H5    H     H_    0.544614 0.417529 0.224114 0.136285
H6    H     H_    0.992564 0.923252 0.209507 0.125228
H7    H     H_    0.821588 0.955357 0.188954 0.150675
H8    H     H_    0.793738 0.912518 0.304528 0.146336
H9    H     H_    0.964466 0.886717 0.326574 0.126745
H10   H     H_    0.376777 0.676551 0.198781 0.140278
H11   H     H_    0.387726 0.833104 0.197505 0.140316
H12   H     H_    0.371507 0.844008 0.318636 0.175225
H13   H     H_    0.359948 0.688111 0.320814 0.127226
H14   H     H_    0.127267 0.023097 0.329152 0.123800
H15   H     H_    0.086444 0.043739 0.205078 0.139666
H16   H     H_    0.326518 0.338870 0.180836 0.139062
O1    O     O_R   0.267750 0.231960 0.575440 -0.505977
O2    O     O_R   0.685950 0.784660 0.430010 -0.505286
O3    O     O_R   0.502510 0.767000 0.423980 -0.526484
O4    O     O_R   0.288320 0.026340 0.429250 -0.511822
O5    O     O_3   0.499990 0.000020 0.499980 -0.250841
O6    O     O_R   0.821590 0.119350 0.952850 -0.501792
O7    O     O_R   0.037230 0.162540 0.957390 -0.493878
O8    O     O_R   0.056530 0.344750 0.951370 -0.503375
O9    O     O_R   0.798000 0.560370 0.957490 -0.492743
O10   O     O_R   0.596230 0.579400 0.952760 -0.504765
O11   O     O_R   0.639160 0.321170 0.958690 -0.488647
O12   O     O_R   0.527290 0.186640 0.570530 -0.493391
O13   O     O_R   0.821370 0.124220 0.104400 -0.521679
O14   O     O_R   0.037020 0.167050 0.097880 -0.522051
O15   O     O_R   0.056310 0.349620 0.102920 -0.527229
O16   O     O_R   0.797790 0.564880 0.097980 -0.504628
O17   O     O_R   0.596000 0.584270 0.104310 -0.521508
O18   O     O_R   0.638950 0.325690 0.099180 -0.503283
O19   O     O_3   0.824700 0.350240 0.028120 -0.269338
O20   O     O_R   0.728110 0.003450 0.576380 -0.505178
O21   O     O_R   0.682980 0.789190 0.570500 -0.497003
O22   O     O_R   0.499300 0.771880 0.575540 -0.504040
O23   O     O_R   0.285350 0.030870 0.569740 -0.491500
O24   O     O_R   0.270960 0.227070 0.423890 -0.516505
O25   O     O_R   0.530270 0.182120 0.430040 -0.508510
O26   O     O_R   0.731320 0.998570 0.424830 -0.525267
N1    N     N_2   0.902316 0.558339 0.342566 -0.519120
H17   H     H_    0.911407 0.475812 0.367798 0.251356
C49   C     C_3   0.957322 0.626568 0.380768 -0.269283
H18   H     H_    0.063164 0.586599 0.365709 0.128238
H19   H     H_    0.954054 0.609156 0.436669 0.147377
H20   H     H_    0.901624 0.734850 0.371458 0.169848
C50   C     C_3   0.881569 0.673983 0.202367 -0.252166
C51   C     C_3   0.018803 0.550968 0.202119 -0.359344
H21   H     H_    0.081788 0.554319 0.244117 0.132010
H22   H     H_    0.005945 0.464087 0.210395 0.211786
H23   H     H_    0.070365 0.543134 0.152776 0.150202
H24   H     H_    0.852600 0.717232 0.150079 0.145950
H25   H     H_    0.889854 0.748086 0.232647 0.132802

loop_
_geom_bond_atom_site_label_1
_geom_bond_atom_site_label_2
_ccdc_geom_bond_type
C21   C26   S    
C1    O20   A    
C34   C37   S    
C43   O13   A    
C14   C18   S    
C12   O21   A    
C35   C36   S    
Cr3   O4    S    
C32   H4    S    
C2    C12   S    
C26   H1    S    
C51   H22   S    
C20   C41   S    
C15   C19   A    
C26   C27   S    
C30   C35   S    
C43   O18   A    
Cr5   O9    S    
Cr3   O5    S    
C17   H10   S    
Cr6   O17   S    
C20   C25   A    
C15   C16   A    
C29   C33   A    
C11   C42   S    
Cr4   O14   S    
Cr2   O2    S    
Cr3   O3    S    
Cr2   O20   S    
C49   H18   S    
C3    C38   S    
C8    C9    S    
C7    C40   S    
Cr1   O5    S    
Cr5   O16   S    
C42   O16   A    
Cr1   O24   S    
C36   H9    S    
C33   H5    S    
C22   C28   A    
C21   C22   A    
C29   C43   S    
Cr4   O19   S    
C15   N1    S    
C36   H8    S    
C45   O24   A    
C14   C19   A    
C51   H21   S    
N1    C49   S    
N1    H17   S    
Cr6   O10   S    
C46   C48   T    
C28   C45   S    
C23   O1    A    
C24   C25   A    
Cr6   O19   S    
C4    C6    T    
C27   H3    S    
C27   H2    S    
C38   O8    A    
Cr4   O6    S    
C18   H13   S    
C41   O14   A    
Cr1   O25   S    
C23   O23   A    
C31   C37   A    
C35   H6    S    
C39   O9    A    
Cr1   O12   S    
Cr4   O13   S    
C29   C30   A    
Cr3   O22   S    
C11   C16   A    
C16   C50   S    
C47   C48   S    
C17   C18   S    
C35   H7    S    
C32   C37   A    
C34   O25   A    
C50   H24   S    
Cr3   O23   S    
C39   C46   S    
C49   H19   S    
C22   C27   S    
Cr5   O19   S    
C26   H16   S    
C25   H15   S    
Cr4   O7    S    
C19   C44   S    
C7    C9    T    
C40   O11   A    
C12   O22   A    
C1    C10   S    
C24   C28   A    
C34   O26   A    
C4    C5    S    
C3    C5    T    
C38   O7    A    
C2    C47   T    
C18   H12   S    
C41   O15   A    
C17   H11   S    
C13   C17   S    
C50   H25   S    
C32   C33   A    
Cr5   O8    S    
C1    O12   A    
Cr2   O5    S    
C39   O10   A    
Cr6   O18   S    
C11   C13   A    
Cr2   O26   S    
C30   C31   A    
C6    C23   S    
C44   O2    A    
C51   H23   S    
C44   O3    A    
C24   H14   S    
C40   O6    A    
Cr2   O21   S    
C49   H20   S    
C20   C21   A    
C8    C10   T    
Cr1   O1    S    
C50   C51   S    
C31   C36   S    
C45   O4    A    
Cr5   O15   S    
C42   O17   A    
C13   C14   A    
Cr6   O11   S    
