data_mof_unit_56140.cif
_audit_creation_date              2012-12-11T14:25:47-0500
_audit_creation_method            fapswitch 2.2
_symmetry_space_group_name_H-M    P1
_symmetry_Int_Tables_number       1
_space_group_crystal_system       triclinic
_cell_length_a                    6.954912
_cell_length_b                    14.791993
_cell_length_c                    16.212255
_cell_angle_alpha                 90.550648
_cell_angle_beta                  90.64674
_cell_angle_gamma                 90.28299
_cell_volume                      1667.66379117

loop_
_atom_site_label
_atom_site_type_symbol
_atom_type_description
_atom_site_fract_x
_atom_site_fract_y
_atom_site_fract_z
_atom_type_partial_charge
O1    O     O_R   0.494490 0.416160 0.413410 -0.531809
O2    O     O_R   0.823830 0.407240 0.585990 -0.535119
O3    O     O_R   0.994160 0.583840 0.586590 -0.549882
C1    C     C_R   0.655174 0.385159 0.613420 0.765444
O4    O     O_R   0.824200 0.405280 0.414020 -0.528945
O5    O     O_R   0.994530 0.581860 0.413390 -0.538570
C2    C     C_R   0.652365 0.381954 0.386689 0.755543
O6    O     O_R   0.494110 0.418140 0.586610 -0.548739
O7    O     O_3   0.660810 0.557940 0.500000 -0.376579
V1    V     V_3+5 0.935650 0.489250 0.500000 1.522529
O8    O     O_R   0.324250 0.592760 0.414010 -0.510796
C3    C     C_R   0.154459 0.615242 0.386533 0.761438
O9    O     O_R   0.323880 0.594720 0.585980 -0.559628
C4    C     C_R   0.155615 0.614608 0.616155 0.656568
V2    V     V_3+5 0.435660 0.510750 0.500000 1.527490
O10   O     O_3   0.160630 0.442060 0.500000 -0.368669
C5    C     C_3   0.951290 0.673913 0.734077 -0.392356
H1    H     H_    0.826635 0.667142 0.690819 0.123419
H2    H     H_    0.952043 0.609623 0.768808 0.193983
C6    C     C_3   0.922486 0.754385 0.795457 -0.125095
H3    H     H_    0.886193 0.725721 0.856683 0.132970
H4    H     H_    0.014499 0.786134 0.608327 0.173628
C7    C     C_3   0.145696 0.780868 0.647699 -0.347719
C8    C     C_3   0.313864 0.678642 0.748085 -0.094706
C9    C     C_3   0.142943 0.684513 0.685502 0.030299
H5    H     H_    0.443380 0.705110 0.716853 0.078857
C10   C     C_3   0.113904 0.812024 0.803940 -0.071840
C11   C     C_3   0.154730 0.858364 0.716529 -0.089704
C12   C     C_3   0.273383 0.740571 0.823718 -0.378343
H6    H     H_    0.226052 0.699600 0.877150 0.175603
H7    H     H_    0.408299 0.772281 0.844997 0.185882
H8    H     H_    0.267000 0.785602 0.603907 0.185620
C13   C     C_2   0.004424 0.691788 0.265122 -0.147391
C14   C     C_2   0.139645 0.691699 0.327700 -0.207363
C15   C     C_2   0.979823 0.768811 0.206968 -0.117251
C16   C     C_2   0.130010 0.807045 0.169089 -0.228283
H9    H     H_    0.835193 0.788725 0.189358 0.142741
H10   H     H_    0.274421 0.783455 0.183018 0.129946
C17   C     C_2   0.769902 0.224949 0.791888 -0.068176
C18   C     C_2   0.617580 0.171369 0.810081 -0.320825
H11   H     H_    0.499211 0.165757 0.765900 0.165208
C19   C     C_2   0.780851 0.265614 0.708555 -0.095413
C20   C     C_2   0.644424 0.325521 0.685729 -0.325732
H12   H     H_    0.523654 0.336945 0.726534 0.156381
C21   C     C_2   0.749669 0.177359 0.239892 0.005904
C22   C     C_2   0.628435 0.180333 0.173186 -0.223767
H13   H     H_    0.544835 0.240554 0.161353 0.126710
C23   C     C_2   0.770451 0.256074 0.298200 -0.260027
C24   C     C_2   0.623385 0.307838 0.324823 -0.124058
H14   H     H_    0.912169 0.267736 0.325092 0.147744
O11   O     O_R   0.770850 0.076180 0.907410 -0.505164
O12   O     O_R   0.440600 0.088970 0.079950 -0.547359
O13   O     O_R   0.270430 0.912340 0.080550 -0.550878
C25   C     C_R   0.611149 0.109159 0.109275 0.798118
O14   O     O_R   0.441120 0.087010 0.907980 -0.552379
O15   O     O_R   0.270950 0.910370 0.907350 -0.553349
C26   C     C_R   0.609985 0.109871 0.881196 0.815543
O16   O     O_R   0.770320 0.078150 0.080620 -0.522619
O17   O     O_3   0.604200 0.936340 0.994000 -0.373080
V3    V     V_3+5 0.329300 0.004970 0.993950 1.529286
O18   O     O_R   0.941240 0.899420 0.907920 -0.503016
C27   C     C_R   0.108075 0.879542 0.877038 0.701826
O19   O     O_R   0.940720 0.901380 0.079890 -0.537200
C28   C     C_R   0.110787 0.878655 0.106797 0.758635
V4    V     V_3+5 0.829310 0.983370 0.993880 1.601939
O20   O     O_3   0.104280 0.052120 0.993920 -0.360253
C29   C     C_2   0.346881 0.907203 0.716171 0.401371
H15   H     H_    0.391115 0.947284 0.769289 0.104235
O21   O     O_2   0.443653 0.911968 0.653920 -0.509686
C30   C     C_2   0.880452 0.611153 0.247361 0.843763
O22   O     O_2   0.953035 0.536312 0.242295 -0.522527
O23   O     O_R   0.682117 0.619251 0.234543 -0.634861
H16   H     H_    0.632657 0.682437 0.245440 0.269006
C31   C     C_2   0.257512 0.773335 0.349311 0.765308
O24   O     O_2   0.188166 0.848942 0.344134 -0.517566
O25   O     O_R   0.445552 0.763319 0.379165 -0.660737
H17   H     H_    0.510089 0.823367 0.392595 0.319862
C32   C     C_2   0.926146 0.248640 0.851951 0.471635
H18   H     H_    0.061584 0.275254 0.829892 0.077680
O26   O     O_2   0.901997 0.244416 0.926295 -0.526978
C33   C     C_2   0.936874 0.235423 0.652435 0.806114
O27   O     O_2   0.090526 0.209970 0.681062 -0.576174
O28   O     O_R   0.904693 0.231306 0.567132 -0.645911
H19   H     H_    0.020765 0.208749 0.535897 0.308847
C34   C     C_2   0.868746 0.097126 0.260252 0.441573
H20   H     H_    0.994124 0.105351 0.300136 0.098335
O29   O     O_2   0.823861 0.021075 0.237028 -0.522016
C35   C     C_2   0.420354 0.287174 0.300711 0.767727
O30   O     O_2   0.354844 0.210976 0.309252 -0.561900
O31   O     O_R   0.304392 0.356067 0.269429 -0.636444
H21   H     H_    0.171398 0.333912 0.252757 0.303415
C36   C     C_2   0.752067 0.809002 0.767363 0.308148
H22   H     H_    0.704343 0.805906 0.703545 0.122865
O32   O     O_2   0.672945 0.861266 0.814135 -0.536038
C37   C     C_2   0.013918 0.934835 0.697186 0.779615
O33   O     O_2   0.924450 0.936613 0.631769 -0.519244
O34   O     O_R   0.993404 0.006311 0.753391 -0.663657
H23   H     H_    0.896157 0.052332 0.733881 0.312490
C38   C     C_2   0.364034 0.583382 0.773806 0.354848
H24   H     H_    0.498477 0.553886 0.753721 0.030849
O35   O     O_2   0.255694 0.538460 0.815900 -0.531113

loop_
_geom_bond_atom_site_label_1
_geom_bond_atom_site_label_2
_ccdc_geom_bond_type
O19   V4    S    
C10   C12   S    
C8    C38   S    
C21   C34   S    
C15   C16   D    
C1    O6    A    
C33   O27   D    
C21   C22   D    
C6    C36   S    
C31   O25   S    
C11   C37   S    
C15   H9    S    
C8    H5    S    
O5    C3    A    
O13   C28   A    
C32   O26   D    
V2    O10   S    
C5    C6    S    
O11   V4    S    
C8    C12   S    
O12   V3    S    
C13   C15   S    
O8    V2    S    
C38   H24   S    
C30   O22   D    
O11   C26   A    
O7    V1    S    
O14   V3    S    
C23   H14   S    
V3    O20   S    
O17   V3    S    
O9    C4    A    
C24   C35   S    
C19   C33   S    
C33   O28   S    
O13   V3    S    
O12   C25   A    
O34   H23   S    
C17   C19   S    
C34   O29   D    
C31   O24   D    
C29   H15   S    
C17   C32   S    
C11   C29   S    
O25   H17   S    
C2    C24   S    
C17   C18   D    
O4    C2    A    
C32   H18   S    
C34   H20   S    
O15   V3    S    
C29   O21   D    
O2    C1    A    
C20   H12   S    
C12   H6    S    
C10   C27   S    
O16   V4    S    
O28   H19   S    
C22   C25   S    
C36   O32   D    
C5    H1    S    
C7    C11   S    
C8    C9    S    
O3    C4    A    
C13   C30   S    
C14   C31   S    
O1    V2    S    
C23   C24   D    
C38   O35   D    
C35   O31   S    
O6    V2    S    
O9    V2    S    
O15   C27   A    
C19   C20   D    
C3    C14   S    
O2    V1    S    
C25   O16   A    
C21   C23   S    
C22   H13   S    
C18   H11   S    
C18   C26   S    
C6    H3    S    
O1    C2    A    
O23   H16   S    
O5    V1    S    
O8    C3    A    
C37   O34   S    
C6    C10   S    
C5    C9    S    
C7    H8    S    
O14   C26   A    
O7    V2    S    
O4    V1    S    
C12   H7    S    
O3    V1    S    
V1    O10   S    
O17   V4    S    
O31   H21   S    
C16   H10   S    
C36   H22   S    
C5    H2    S    
C1    C20   S    
C13   C14   D    
C7    C9    S    
C4    C9    S    
O18   C27   A    
O19   C28   A    
O18   V4    S    
C35   O30   D    
V4    O20   S    
C10   C11   S    
H4    C7    S    
C30   O23   S    
C16   C28   S    
C37   O33   D    
