data_mof_unit_7933.cif
_audit_creation_date              2012-12-10T17:21:38-0500
_audit_creation_method            fapswitch 2.2
_symmetry_space_group_name_H-M    P1
_symmetry_Int_Tables_number       1
_space_group_crystal_system       triclinic
_cell_length_a                    10.73048
_cell_length_b                    10.895567
_cell_length_c                    9.593599
_cell_angle_alpha                 91.086159
_cell_angle_beta                  90.178263
_cell_angle_gamma                 93.163621
_cell_volume                      1119.71210339

loop_
_atom_site_label
_atom_site_type_symbol
_atom_type_description
_atom_site_fract_x
_atom_site_fract_y
_atom_site_fract_z
_atom_type_partial_charge
C1    C     C_R   0.485337 0.262950 0.499014 0.825238
C2    C     C_3   0.878188 0.500120 0.501185 0.166763
C3    C     C_3   0.934624 0.616690 0.429367 -0.404358
C4    C     C_3   0.921301 0.384610 0.421920 -0.361397
C5    C     C_R   0.386695 0.124947 0.741493 -0.125569
C6    C     C_R   0.397729 0.076211 0.873201 -0.151289
C7    C     C_R   0.455545 0.966678 0.887397 -0.160577
C8    C     C_R   0.486771 0.898503 0.769390 -0.152655
C9    C     C_R   0.470241 0.943340 0.632992 0.035499
C10   C     C_R   0.438076 0.066644 0.623968 0.100714
C11   C     C_R   0.460962 0.129072 0.498660 -0.201145
C12   C     C_R   0.259955 0.499715 0.500072 0.739603
C13   C     C_R   0.469647 0.061501 0.374733 -0.316295
C14   C     C_R   0.468213 0.933868 0.377110 0.438231
C15   C     C_R   0.483125 0.873520 0.505706 -0.234201
C16   C     C_R   0.672462 0.658444 0.147868 -0.093622
C17   C     C_R   0.759659 0.732655 0.077513 -0.207657
C18   C     C_R   0.761522 0.730415 0.933898 -0.226981
C19   C     C_R   0.675697 0.654479 0.859944 -0.196966
C20   C     C_R   0.586886 0.575435 0.927155 0.201820
C21   C     C_R   0.585946 0.576538 0.076709 0.221278
C22   C     C_R   0.416455 0.429194 0.072217 -0.091474
C23   C     C_R   0.496868 0.738555 0.501907 0.803761
C24   C     C_R   0.415359 0.430719 0.924490 -0.053613
C25   C     C_R   0.740079 0.500217 0.500355 0.742382
C26   C     C_3   0.071779 0.497930 0.652720 -0.372088
C27   C     C_3   0.929182 0.498924 0.652914 -0.368416
C28   C     C_3   0.078464 0.616840 0.429847 -0.373557
C29   C     C_3   0.065183 0.384745 0.421113 -0.397294
C30   C     C_3   0.121930 0.499812 0.500822 0.173552
Cu1   Cu    Cu3+1 0.499990 0.499990 0.640660 0.915886
Cu2   Cu    Cu3+1 0.500010 0.500010 0.359340 0.926484
H1    H     H_    0.111162 0.579497 0.713061 0.173797
H2    H     H_    0.886186 0.382818 0.312541 0.175060
H3    H     H_    0.112710 0.620659 0.320617 0.169956
H4    H     H_    0.900921 0.619451 0.319786 0.169420
H5    H     H_    0.474632 0.106918 0.275223 0.176462
H6    H     H_    0.338177 0.208418 0.731275 0.122816
H7    H     H_    0.365047 0.125075 0.964126 0.117181
H8    H     H_    0.474265 0.933041 0.989925 0.190167
H9    H     H_    0.527733 0.814661 0.791001 0.176709
H10   H     H_    0.347820 0.371250 0.125971 0.126092
H11   H     H_    0.100861 0.414242 0.706273 0.158007
H12   H     H_    0.676128 0.670790 0.257765 0.190374
H13   H     H_    0.824875 0.793934 0.135129 0.139947
H14   H     H_    0.827580 0.790547 0.879036 0.146663
H15   H     H_    0.677964 0.667311 0.750517 0.194974
H16   H     H_    0.344069 0.376190 0.868605 0.115996
H17   H     H_    0.889943 0.416406 0.707801 0.176245
H18   H     H_    0.900905 0.581680 0.711989 0.169182
H19   H     H_    0.118026 0.700521 0.486046 0.145270
H20   H     H_    0.904277 0.700783 0.484344 0.140686
H21   H     H_    0.098677 0.383858 0.311396 0.166103
H22   H     H_    0.095725 0.299710 0.470507 0.142746
H23   H     H_    0.882168 0.299872 0.472472 0.151555
N1    N     N_R   0.501200 0.501210 0.147910 -0.203240
N2    N     N_R   0.501250 0.501290 0.852040 -0.195189
O1    O     O_R   0.499990 0.319640 0.618810 -0.572768
O2    O     O_R   0.500000 0.319660 0.381240 -0.577703
O3    O     O_R   0.317680 0.499970 0.618790 -0.594524
O4    O     O_R   0.317700 0.499990 0.381210 -0.601115
O5    O     O_R   0.500000 0.680340 0.618760 -0.618586
O6    O     O_R   0.500010 0.680360 0.381190 -0.538260
O7    O     O_R   0.682300 0.500010 0.618790 -0.597848
O8    O     O_R   0.682320 0.500030 0.381210 -0.604599
O9    O     O_3   0.452940 0.868597 0.252555 -0.571186
C31   C     C_3   0.324011 0.858724 0.218907 0.065415
H24   H     H_    0.297789 0.943163 0.165176 0.132801
H25   H     H_    0.263346 0.845630 0.312553 0.120065
C32   C     C_3   0.296419 0.748033 0.122101 -0.778699
H26   H     H_    0.358402 0.751006 0.029884 0.242638
H27   H     H_    0.310628 0.662221 0.178615 0.271237
H28   H     H_    0.197878 0.746498 0.086155 0.184096

loop_
_geom_bond_atom_site_label_1
_geom_bond_atom_site_label_2
_ccdc_geom_bond_type
Cu1   O3    S    
C26   H11   S    
C21   N1    A    
C2    C4    S    
C3    H20   S    
C22   C24   A    
C16   C21   A    
C26   C30   S    
C29   C30   S    
C9    C10   A    
C16   H12   S    
C26   H1    S    
C13   H5    S    
C19   C20   A    
C1    C11   S    
C27   H18   S    
C7    H8    S    
C31   C32   S    
Cu1   N2    S    
C32   H28   S    
C15   C23   S    
C17   C18   A    
C14   O9    S    
C5    C10   A    
C4    H23   S    
C22   H10   S    
C1    O1    A    
C20   C21   A    
Cu2   N1    S    
C12   O4    A    
C11   C13   A    
Cu1   O5    S    
C26   C27   S    
C6    C7    A    
C29   H21   S    
C3    H4    S    
C18   H14   S    
Cu1   O1    S    
C28   C30   S    
C3    C28   S    
C24   N2    A    
C17   H13   S    
Cu2   O4    S    
C5    H6    S    
C2    C25   S    
C2    C3    S    
C1    O2    A    
C2    C27   S    
C9    C15   A    
C5    C6    A    
C28   H19   S    
C4    H2    S    
C23   O6    A    
C16   C17   A    
C29   H22   S    
C31   H24   S    
C24   H16   S    
C7    C8    A    
C32   H26   S    
C25   O8    A    
C8    H9    S    
Cu2   O6    S    
Cu1   Cu2   S    
C18   C19   A    
C10   C11   A    
C19   H15   S    
O9    C31   S    
C6    H7    S    
C8    C9    A    
C22   N1    A    
C14   C15   A    
Cu2   O2    S    
C12   C30   S    
C20   N2    A    
C13   C14   A    
Cu1   O7    S    
C32   H27   S    
C23   O5    A    
C4    C29   S    
C27   H17   S    
C28   H3    S    
Cu2   O8    S    
C31   H25   S    
C25   O7    A    
C12   O3    A    
