data_mof_unit_53809.cif
_audit_creation_date              2013-03-05T16:06:20-0500
_audit_creation_method            fapswitch 2.2
_symmetry_space_group_name_H-M    P1
_symmetry_Int_Tables_number       1
_space_group_crystal_system       triclinic
_cell_length_a                    10.954726
_cell_length_b                    9.726714
_cell_length_c                    27.745593
_cell_angle_alpha                 90.14027
_cell_angle_beta                  92.982812
_cell_angle_gamma                 90.229396
_cell_volume                      2952.35022074

loop_
_atom_site_label
_atom_site_type_symbol
_atom_site_description
_atom_site_fract_x
_atom_site_fract_y
_atom_site_fract_z
_atom_type_partial_charge
O1    O     O_R   0.319640 0.618740 0.500000 -0.542834
O2    O     O_R   0.680360 0.381260 0.500000 -0.561413
O3    O     O_R   0.680360 0.618740 0.500000 -0.546771
O4    O     O_R   0.319640 0.381260 0.500000 -0.592563
C1    C     C_R   0.262562 0.500393 0.499218 0.830775
C2    C     C_R   0.737580 0.500535 0.502011 0.820350
O5    O     O_R   0.500020 0.618770 0.430260 -0.557022
O6    O     O_R   0.499980 0.381230 0.569740 -0.543350
O7    O     O_R   0.499980 0.618770 0.569740 -0.554299
O8    O     O_R   0.500020 0.381230 0.430260 -0.545167
C3    C     C_R   0.500797 0.500128 0.407975 0.809224
C4    C     C_R   0.499301 0.500309 0.591962 0.815076
Cu1   Cu    Cu3+1 0.500000 0.640660 0.500000 0.966790
Cu2   Cu    Cu3+1 0.500000 0.359340 0.500000 0.963949
C5    C     C_R   0.401458 0.536939 0.174620 0.547757
C6    C     C_R   0.607671 0.539240 0.825185 0.548397
O9    O     O_2   0.306205 0.593359 0.196353 -0.547861
O10   O     O_2   0.702100 0.597912 0.803440 -0.547135
N1    N     N_R   0.501632 0.491161 0.201599 -0.448228
N2    N     N_R   0.507553 0.491812 0.798251 -0.448203
C7    C     C_R   0.601556 0.440574 0.179555 0.635231
C8    C     C_R   0.408796 0.437986 0.820362 0.635590
C9    C     C_R   0.601330 0.555624 0.281206 0.283724
C10   C     C_R   0.404023 0.554147 0.719354 0.286193
C11   C     C_R   0.604039 0.549074 0.331919 0.112356
C12   C     C_R   0.398580 0.545964 0.668656 0.104244
C13   C     C_R   0.393145 0.463304 0.327488 0.174150
C14   C     C_R   0.610615 0.465306 0.671334 0.183775
C15   C     C_R   0.400929 0.447108 0.277524 -0.180579
C16   C     C_R   0.606294 0.451593 0.721562 -0.185118
C17   C     C_R   0.502129 0.496537 0.253791 0.190513
C18   C     C_R   0.505574 0.498643 0.746056 0.190413
C19   C     C_R   0.504117 0.490809 0.101305 -0.104312
C20   C     C_R   0.506233 0.490259 0.898563 -0.104305
C21   C     C_R   0.397534 0.527195 0.124233 -0.040582
C22   C     C_R   0.612277 0.528892 0.875574 -0.040466
C23   C     C_R   0.290726 0.558392 0.096504 -0.186241
C24   C     C_R   0.719060 0.561777 0.903268 -0.186214
C25   C     C_R   0.610219 0.452309 0.129106 -0.093425
C26   C     C_R   0.400367 0.449444 0.870815 -0.093102
C27   C     C_R   0.500023 0.501348 0.355123 -0.191669
C28   C     C_R   0.502258 0.501830 0.644721 -0.194185
H1    H     H_    0.325694 0.401628 0.256299 0.193033
H2    H     H_    0.682923 0.408818 0.742417 0.194505
H3    H     H_    0.209412 0.591325 0.113876 0.199456
H4    H     H_    0.800026 0.596143 0.885863 0.198266
C29   C     C_R   0.394589 0.481095 0.972317 0.003131
C30   C     C_R   0.616132 0.483428 0.027568 0.003356
C31   C     C_R   0.617468 0.509242 0.977268 0.035878
C32   C     C_R   0.393073 0.507475 0.022583 0.035826
C33   C     C_R   0.506175 0.493315 0.949426 0.019718
C34   C     C_R   0.504398 0.493736 0.050445 0.019937
C35   C     C_R   0.289859 0.439119 0.944609 -0.197474
C36   C     C_R   0.721116 0.443824 0.055336 -0.197904
C37   C     C_R   0.291843 0.421061 0.894756 0.292257
C38   C     C_R   0.719119 0.426165 0.105193 0.292306
O11   O     O_2   0.320852 0.371955 0.793485 -0.482576
O12   O     O_2   0.690404 0.377382 0.206475 -0.481610
C39   C     C_R   0.286580 0.548083 0.046124 0.226892
C40   C     C_R   0.723632 0.551347 0.953652 0.227709
H5    H     H_    0.206226 0.413770 0.961629 0.203025
H6    H     H_    0.805009 0.419874 0.038370 0.203162
C41   C     C_R   0.058717 0.387395 0.484241 0.181984
C42   C     C_R   0.939097 0.626061 0.512791 0.164570
C43   C     C_R   0.936587 0.379735 0.496097 0.182336
C44   C     C_R   0.067541 0.621771 0.515878 0.160292
C45   C     C_R   0.872400 0.502324 0.503941 -0.217171
C46   C     C_R   0.128179 0.503435 0.499226 -0.207131
C47   C     C_R   0.469692 0.072024 0.458881 0.238942
C48   C     C_R   0.539542 0.925569 0.540233 0.240295
C49   C     C_R   0.534284 0.073280 0.540834 0.247554
C50   C     C_R   0.462582 0.924730 0.459539 0.228863
N3    N     N_R   0.500000 0.852070 0.500000 -0.224587
N4    N     N_R   0.500000 0.147930 0.500000 -0.213982
N5    N     N_2   0.278583 0.446853 0.349786 -0.443356
H7    H     H_    0.276060 0.484125 0.384524 0.247251
C51   C     C_3   0.166923 0.476248 0.321411 -0.647443
H8    H     H_    0.088306 0.476413 0.345142 0.217819
H9    H     H_    0.148755 0.395432 0.293653 0.244368
H10   H     H_    0.172786 0.579019 0.304248 0.253814
N6    N     N_2   0.722224 0.446198 0.647193 -0.440059
H11   H     H_    0.727294 0.495505 0.614500 0.244232
C52   C     C_3   0.837964 0.443596 0.674899 -0.671205
H12   H     H_    0.913798 0.435880 0.649982 0.211805
H13   H     H_    0.843112 0.351872 0.698615 0.239549
H14   H     H_    0.850400 0.539381 0.696529 0.258525
N7    N     N_2   0.454833 0.138926 0.413952 -0.374045
H15   H     H_    0.518590 0.116694 0.389089 0.242680
C53   C     C_3   0.331337 0.161149 0.395509 -0.620129
H16   H     H_    0.270184 0.074148 0.403613 0.200696
H17   H     H_    0.329429 0.176085 0.355824 0.225377
H18   H     H_    0.297953 0.255020 0.412447 0.286702
N8    N     N_2   0.596474 0.853847 0.580015 -0.365202
H19   H     H_    0.689762 0.841867 0.579579 0.248562
C54   C     C_3   0.545337 0.862277 0.627132 -0.652594
H20   H     H_    0.591548 0.943359 0.649510 0.214150
H21   H     H_    0.563316 0.765386 0.646848 0.236707
H22   H     H_    0.445000 0.879508 0.623851 0.217102
N9    N     N_2   0.558340 0.142411 0.585196 -0.371049
H23   H     H_    0.497501 0.123303 0.611485 0.241715
C55   C     C_3   0.684628 0.160069 0.601483 -0.600378
H24   H     H_    0.690161 0.186278 0.640445 0.229969
H25   H     H_    0.724839 0.244713 0.580992 0.281170
H26   H     H_    0.737638 0.064908 0.597170 0.192456
N10   N     N_2   0.405482 0.852878 0.419507 -0.364510
H27   H     H_    0.311538 0.848322 0.418571 0.229634
C56   C     C_3   0.459050 0.858762 0.372795 -0.642258
H28   H     H_    0.416932 0.941009 0.350121 0.214007
H29   H     H_    0.437875 0.762575 0.352830 0.235202
H30   H     H_    0.559849 0.872259 0.376758 0.211682
N11   N     N_2   0.289672 0.586436 0.642224 -0.442514
H31   H     H_    0.303344 0.646276 0.612409 0.281413
C57   C     C_3   0.204057 0.475110 0.632185 -0.701667
H32   H     H_    0.242821 0.399769 0.607040 0.229017
H33   H     H_    0.117973 0.516624 0.615265 0.218209
H34   H     H_    0.181965 0.422180 0.666111 0.252467
N12   N     N_2   0.709074 0.598717 0.359069 -0.438952
H35   H     H_    0.690336 0.661303 0.387654 0.265749
C58   C     C_3   0.798109 0.494136 0.371921 -0.726146
H36   H     H_    0.758630 0.417441 0.396378 0.226563
H37   H     H_    0.879328 0.542513 0.390762 0.223892
H38   H     H_    0.828130 0.441265 0.339057 0.251385
N13   N     N_2   0.308880 0.620331 0.743726 -0.383456
H39   H     H_    0.223042 0.613548 0.726816 0.294386
C59   C     C_3   0.338533 0.758412 0.759986 -0.650455
H40   H     H_    0.263369 0.798506 0.781394 0.243377
H41   H     H_    0.349792 0.826929 0.728448 0.220821
H42   H     H_    0.424042 0.759222 0.783398 0.238923
N14   N     N_2   0.696338 0.624871 0.257581 -0.382368
H43   H     H_    0.781595 0.620427 0.275041 0.293977
C60   C     C_3   0.665011 0.762260 0.241587 -0.650093
H44   H     H_    0.741242 0.806000 0.221589 0.242662
H45   H     H_    0.649106 0.829270 0.273150 0.219989
H46   H     H_    0.581731 0.760454 0.216979 0.239009
Br1   Br    Br    0.137933 0.369556 0.862924 -0.455319
Br2   Br    Br    0.873357 0.377875 0.137056 -0.456268
N15   N     N_2   0.178905 0.592734 0.019759 -0.449974
H47   H     H_    0.099534 0.580198 0.037761 0.269035
C61   C     C_3   0.188328 0.728284 0.998858 -0.655195
H48   H     H_    0.104101 0.750623 0.976318 0.233164
H49   H     H_    0.267286 0.734356 0.975403 0.245837
H50   H     H_    0.199064 0.807116 0.027850 0.230246
N16   N     N_2   0.831413 0.597236 0.979954 -0.450647
H51   H     H_    0.910641 0.585283 0.961853 0.268221
C62   C     C_3   0.822110 0.732854 0.000968 -0.655656
H52   H     H_    0.906485 0.756120 0.023445 0.233770
H53   H     H_    0.743298 0.738362 0.024504 0.246045
H54   H     H_    0.811189 0.811364 0.972045 0.230528
N17   N     N_2   0.110619 0.278821 0.457508 -0.421807
H55   H     H_    0.159674 0.206067 0.477175 0.264951
C63   C     C_3   0.041726 0.227920 0.414845 -0.738746
H56   H     H_    0.015622 0.118690 0.420040 0.216546
H57   H     H_    0.097579 0.234832 0.382891 0.253470
H58   H     H_    0.958389 0.289215 0.406286 0.231636
N18   N     N_2   0.877707 0.752381 0.521245 -0.403326
H59   H     H_    0.912632 0.809851 0.550016 0.235861
C64   C     C_3   0.849446 0.834163 0.478476 -0.628681
H60   H     H_    0.932580 0.883917 0.465539 0.205562
H61   H     H_    0.782780 0.915200 0.486987 0.209245
H62   H     H_    0.808623 0.769801 0.448789 0.235682
N19   N     N_2   0.882328 0.248714 0.503748 -0.385579
H63   H     H_    0.862200 0.191632 0.473066 0.265970
C65   C     C_3   0.940373 0.170861 0.543019 -0.723444
H64   H     H_    0.893700 0.070460 0.546284 0.218866
H65   H     H_    0.936388 0.228694 0.577461 0.234561
H66   H     H_    0.037460 0.150803 0.536807 0.220302
N20   N     N_2   0.135023 0.731672 0.538845 -0.404701
H67   H     H_    0.109775 0.755963 0.573113 0.237495
C66   C     C_3   0.160215 0.850216 0.509511 -0.628753
H68   H     H_    0.097301 0.934712 0.517615 0.194154
H69   H     H_    0.150748 0.825355 0.470397 0.216603
H70   H     H_    0.254620 0.886646 0.518516 0.226889

loop_
_geom_bond_atom_site_label_1
_geom_bond_atom_site_label_2
_geom_bond_distance
_ccdc_geom_bond_type
C44   C46   1.419511 A    
N7    H15   1.030098 S    
C41   C43   1.396005 A    
C55   H24   1.108587 S    
C13   C15   1.401851 A    
C66   H69   1.110765 S    
C66   H68   1.104893 S    
N10   H27   1.028872 S    
C54   H20   1.107010 S    
C60   H46   1.110747 S    
N1    C17   1.448649 S    
C8    O11   1.347091 S    
N19   H63   1.028960 S    
C54   H22   1.111609 S    
N13   H39   1.030602 S    
N20   C66   1.446894 S    
C51   H8    1.110974 S    
C19   C34   1.411658 A    
C30   C36   1.406195 A    
N10   C56   1.451421 S    
C42   N18   1.427772 S    
C20   C33   1.411508 A    
N8    H19   1.029725 S    
C31   C40   1.423529 A    
C44   N20   1.427087 S    
O1    C1    1.307381 A    
C32   C39   1.423135 A    
Cu2   N4    2.056326 S    
N1    C7    1.373658 A    
C10   C12   1.406839 A    
N14   H43   1.030626 S    
N12   C58   1.444545 S    
C40   N16   1.424899 S    
C61   H50   1.111402 S    
C51   H10   1.111374 S    
N18   C64   1.450900 S    
C39   N15   1.425103 S    
N16   H51   1.031939 S    
C9    N14   1.426224 S    
N16   C62   1.447042 S    
C63   H58   1.108059 S    
C14   C28   1.412053 A    
O7    Cu1   1.947186 S    
C41   N17   1.426037 S    
C4    C28   1.462556 S    
N19   C65   1.449416 S    
C35   H5    1.080248 S    
C64   H60   1.106249 S    
C52   H12   1.110720 S    
C43   C45   1.408878 A    
C59   H42   1.111790 S    
C32   C34   1.416481 A    
C63   H56   1.110833 S    
C48   C49   1.438217 A    
C53   H17   1.110117 S    
C47   N7    1.409822 S    
C6    N2    1.372279 A    
C29   C35   1.406019 A    
C57   H34   1.111189 S    
O3    C2    1.311635 A    
C51   H9    1.109281 S    
C64   H61   1.109977 S    
Cu1   Cu2   2.736319 S    
C15   H1    1.080306 S    
C56   H29   1.103772 S    
C16   H2    1.079822 S    
O2    C2    1.316135 A    
C1    C46   1.472562 S    
C13   N5    1.436338 S    
C5    C21   1.399412 A    
N6    C52   1.448462 S    
C62   H52   1.110010 S    
C29   C32   1.418414 A    
C35   C37   1.395180 A    
C36   C38   1.395636 A    
C62   H53   1.110657 S    
C42   C45   1.419702 A    
C65   H66   1.104310 S    
O8    Cu2   1.947186 S    
C11   C27   1.414906 A    
N20   H67   1.031080 S    
O4    C1    1.318595 A    
C29   C33   1.411299 A    
C36   H6    1.080121 S    
C31   C33   1.416693 A    
C49   N9    1.413271 S    
C10   N13   1.426406 S    
N6    H11   1.031069 S    
C11   N12   1.424132 S    
C42   C44   1.406008 A    
C47   C50   1.434706 A    
C5    N1    1.372188 A    
N5    H7    1.030670 S    
C10   C18   1.413826 A    
N15   C61   1.447119 S    
C13   C27   1.413288 A    
O5    C3    1.308141 A    
N9    H23   1.030054 S    
C7    C25   1.412744 A    
C30   C34   1.411625 A    
O6    C4    1.311028 A    
C26   C37   1.418201 A    
C8    C26   1.411842 A    
C48   N8    1.424627 S    
C48   N3    1.374094 A    
C52   H14   1.111079 S    
C47   N4    1.382547 A    
N11   C57   1.446703 S    
C25   C38   1.418459 A    
C19   C25   1.413431 A    
C53   H18   1.098516 S    
N5    C51   1.449642 S    
C23   C39   1.399542 A    
C58   H37   1.110567 S    
C24   C40   1.400186 A    
C6    O10   1.349693 S    
C30   C31   1.419443 A    
N9    C55   1.442335 S    
Cu1   N3    2.056325 S    
C38   Br2   1.926131 S    
C55   H26   1.104209 S    
N7    C53   1.438621 S    
C59   H40   1.111407 S    
C56   H30   1.111209 S    
C20   C26   1.413220 A    
O1    Cu1   1.986416 S    
C56   H28   1.106287 S    
C23   H3    1.083806 S    
C60   H44   1.110306 S    
C62   H54   1.111401 S    
C12   C28   1.412885 A    
C57   H32   1.111263 S    
N2    C18   1.448903 S    
C58   H38   1.111001 S    
C5    O9    1.349841 S    
C41   C46   1.408446 A    
C2    C45   1.475128 S    
O6    Cu2   1.946150 S    
N11   H31   1.029601 S    
C21   C23   1.401170 A    
C14   N6    1.436828 S    
N2    C8    1.373679 A    
C50   N3    1.373355 A    
C60   H45   1.111797 S    
O3    Cu1   1.988113 S    
C49   N4    1.383403 A    
C61   H48   1.109909 S    
C54   H21   1.104080 S    
C64   H62   1.107824 S    
N15   H47   1.031996 S    
N17   C63   1.455006 S    
C7    O12   1.346985 S    
C15   C17   1.402519 A    
N12   H35   1.028255 S    
C6    C22   1.400221 A    
C22   C24   1.401201 A    
C16   C18   1.403310 A    
C61   H49   1.110644 S    
N8    C54   1.451073 S    
C37   Br1   1.926096 S    
C14   C16   1.403515 A    
C19   C21   1.404521 A    
C3    C27   1.466054 S    
C20   C22   1.404414 A    
C63   H57   1.105140 S    
O4    Cu2   1.988113 S    
C52   H13   1.109758 S    
O2    Cu2   1.986416 S    
O7    C4    1.308330 A    
C24   H4    1.083796 S    
C65   H64   1.106601 S    
N13   C59   1.446090 S    
O8    C3    1.312946 A    
O5    Cu1   1.946150 S    
C9    C11   1.407423 A    
C50   N10   1.426097 S    
C55   H25   1.104795 S    
C58   H36   1.111061 S    
C43   N19   1.425088 S    
N18   H59   1.029767 S    
C59   H41   1.112885 S    
C65   H65   1.110617 S    
C66   H70   1.107813 S    
C57   H33   1.109349 S    
C53   H16   1.107934 S    
N17   H55   1.030403 S    
C12   N11   1.424889 S    
C9    C17   1.413028 A    
N14   C60   1.446116 S    
