data_mof_unit_11124.cif
_audit_creation_date              2012-12-10T17:18:56-0500
_audit_creation_method            fapswitch 2.2
_symmetry_space_group_name_H-M    P1
_symmetry_Int_Tables_number       1
_space_group_crystal_system       triclinic
_cell_length_a                    9.609154
_cell_length_b                    10.853889
_cell_length_c                    13.528954
_cell_angle_alpha                 93.00129
_cell_angle_beta                  71.963427
_cell_angle_gamma                 87.882303
_cell_volume                      1337.74409636

loop_
_atom_site_label
_atom_site_type_symbol
_atom_type_description
_atom_site_fract_x
_atom_site_fract_y
_atom_site_fract_z
_atom_type_partial_charge
C1    C     C_R   0.496539 0.738370 0.499990 0.805757
C2    C     C_R   0.466558 0.559152 0.965420 0.072283
C3    C     C_R   0.472489 0.493104 0.870567 0.015734
C4    C     C_R   0.555775 0.515682 0.025314 0.040296
C5    C     C_R   0.671370 0.425519 0.976463 0.155191
C6    C     C_R   0.680973 0.366378 0.880352 -0.208309
C7    C     C_R   0.577164 0.393786 0.831836 -0.178115
C8    C     C_R   0.528789 0.549759 0.133576 -0.075750
C9    C     C_R   0.749741 0.427761 0.129738 -0.227763
C10   C     C_R   0.377200 0.530677 0.814158 -0.138534
C11   C     C_R   0.212772 0.903097 0.564976 -0.170030
C12   C     C_R   0.421071 0.502589 0.700193 0.804754
C13   C     C_R   0.087891 0.975120 0.622329 -0.122118
C14   C     C_R   0.100911 0.094673 0.658500 -0.150011
C15   C     C_R   0.237228 0.145590 0.629566 -0.151546
C16   C     C_R   0.363299 0.076116 0.564896 0.098001
C17   C     C_R   0.354758 0.948449 0.543687 0.078164
C18   C     C_R   0.488418 0.874054 0.501265 -0.114620
C19   C     C_R   0.622052 0.931189 0.467550 -0.212738
C20   C     C_R   0.625627 0.058434 0.472882 -0.220686
C21   C     C_R   0.496863 0.131375 0.519137 -0.105118
C22   C     C_R   0.921735 0.334838 0.361028 -0.143669
C23   C     C_R   0.499119 0.263652 0.507012 0.762168
C24   C     C_R   0.025902 0.252698 0.292755 -0.230970
C25   C     C_R   0.169662 0.251513 0.292378 -0.217634
C26   C     C_R   0.210331 0.332652 0.360077 -0.101813
C27   C     C_R   0.107750 0.418082 0.431278 0.161040
C28   C     C_R   0.958063 0.418539 0.431484 0.168253
C29   C     C_R   0.892204 0.575620 0.566354 -0.034792
C30   C     C_R   0.038264 0.575784 0.567602 0.440198
C31   C     C_R   0.578476 0.503020 0.300337 0.785304
C32   C     C_R   0.772156 0.389319 0.026448 -0.183705
C33   C     C_R   0.623574 0.499567 0.185743 -0.085684
C34   C     C_R   0.265631 0.623506 0.859377 0.410825
C35   C     C_R   0.271131 0.695777 0.946500 -0.253347
C36   C     C_R   0.377557 0.669621 0.993011 -0.227929
Cu1   Cu    Cu3+1 0.359340 0.500010 0.500010 0.947130
Cu2   Cu    Cu3+1 0.640660 0.499990 0.499990 0.920739
H1    H     H_    0.823665 0.390788 0.168549 0.150827
H2    H     H_    0.192759 0.816780 0.531743 0.190582
H3    H     H_    0.980705 0.937871 0.638550 0.155335
H4    H     H_    0.004677 0.149554 0.705771 0.131871
H5    H     H_    0.242984 0.239378 0.658668 0.156230
H6    H     H_    0.729146 0.099880 0.438965 0.160995
H7    H     H_    0.809484 0.637526 0.620777 0.167909
H8    H     H_    0.814078 0.329083 0.355863 0.195497
H9    H     H_    0.994590 0.189501 0.239745 0.144764
H10   H     H_    0.250781 0.187404 0.238918 0.147012
H11   H     H_    0.323714 0.324283 0.352407 0.194135
H12   H     H_    0.764570 0.293402 0.845201 0.133195
H13   H     H_    0.863867 0.324625 0.987466 0.136712
H14   H     H_    0.389539 0.738709 0.049320 0.169835
H15   H     H_    0.197094 0.776515 0.975574 0.141125
H16   H     H_    0.581434 0.337385 0.762466 0.154165
H17   H     H_    0.724614 0.877181 0.433571 0.157890
N1    N     N_R   0.852480 0.498790 0.499000 -0.243031
N2    N     N_R   0.148360 0.498710 0.498970 -0.253915
O1    O     O_R   0.381190 0.680360 0.500010 -0.610579
O2    O     O_R   0.618760 0.680340 0.500000 -0.580814
O3    O     O_R   0.323240 0.499990 0.650990 -0.549297
O4    O     O_R   0.560820 0.499960 0.650980 -0.583618
O5    O     O_R   0.381240 0.319660 0.500000 -0.604666
O6    O     O_R   0.618810 0.319640 0.499990 -0.597381
O7    O     O_R   0.439180 0.500040 0.349020 -0.582350
O8    O     O_R   0.676760 0.500010 0.349010 -0.602659
O9    O     O_3   0.062715 0.654660 0.642030 -0.735614
H18   H     H_    0.168126 0.653369 0.630551 0.401515
C37   C     C_R   0.394889 0.625004 0.196800 0.118244
C38   C     C_R   0.254654 0.580848 0.210988 -0.092843
C39   C     C_R   0.129643 0.652597 0.269715 -0.141017
C40   C     C_R   0.143579 0.768079 0.315358 -0.128622
C41   C     C_R   0.282565 0.812226 0.302163 -0.133269
C42   C     C_R   0.407970 0.740634 0.244093 -0.147280
H19   H     H_    0.242564 0.491609 0.175798 0.133358
H20   H     H_    0.021927 0.618649 0.279840 0.141466
H21   H     H_    0.046689 0.823426 0.360879 0.122717
H22   H     H_    0.293201 0.902063 0.336867 0.135614
H23   H     H_    0.515064 0.775719 0.234673 0.111813
O10   O     O_3   0.161232 0.650185 0.812050 -0.707739
H24   H     H_    0.092381 0.717898 0.853572 0.330933

loop_
_geom_bond_atom_site_label_1
_geom_bond_atom_site_label_2
_ccdc_geom_bond_type
C16   C21   A    
C35   H15   S    
C35   C36   A    
C4    C8    A    
C13   H3    S    
Cu1   O5    S    
C28   N1    A    
C26   C27   A    
C29   C30   A    
Cu1   Cu2   S    
C18   C19   A    
C3    C7    A    
C1    O2    A    
C5    C6    A    
C19   H17   S    
C15   C16   A    
C30   N2    A    
C9    H1    S    
C34   C35   A    
C9    C32   A    
C23   O5    A    
C19   C20   A    
C37   C38   A    
C42   H23   S    
C31   C33   S    
C39   C40   A    
Cu1   O1    S    
C36   H14   S    
C14   H4    S    
C5    C32   A    
C23   O6    A    
O9    H18   S    
C22   C28   A    
C13   C14   A    
C9    C33   A    
C38   C39   A    
C20   H6    S    
C24   C25   A    
C27   N2    A    
C26   H11   S    
C16   C17   A    
C25   C26   A    
Cu2   O2    S    
C29   H7    S    
C2    C4    A    
C32   H13   S    
C41   H22   S    
C34   O10   S    
Cu2   O8    S    
C17   C18   A    
C1    C18   S    
C38   H19   S    
C10   C34   A    
C6    H12   S    
C25   H10   S    
C30   O9    S    
C10   C12   S    
C22   H8    S    
C8    C37   S    
C21   C23   S    
C22   C24   A    
C39   H20   S    
Cu1   O7    S    
Cu2   O6    S    
C2    C36   A    
C31   O8    A    
C11   C17   A    
C24   H9    S    
C31   O7    A    
C41   C42   A    
C6    C7    A    
C29   N1    A    
Cu2   O4    S    
C2    C3    A    
C37   C42   A    
C15   H5    S    
C40   C41   A    
C3    C10   A    
C1    O1    A    
C12   O4    A    
C11   C13   A    
C40   H21   S    
C8    C33   A    
C11   H2    S    
Cu1   O3    S    
O10   H24   S    
C12   O3    A    
C4    C5    A    
Cu2   N1    S    
C20   C21   A    
C27   C28   A    
C14   C15   A    
C7    H16   S    
Cu1   N2    S    
