data_mof_unit_56336.cif
_audit_creation_date              2012-12-10T17:11:02-0500
_audit_creation_method            fapswitch 2.2
_symmetry_space_group_name_H-M    P1
_symmetry_Int_Tables_number       1
_space_group_crystal_system       triclinic
_cell_length_a                    11.744753
_cell_length_b                    13.011604
_cell_length_c                    13.352912
_cell_angle_alpha                 93.321775
_cell_angle_beta                  74.773197
_cell_angle_gamma                 100.741807
_cell_volume                      1934.34119813

loop_
_atom_site_label
_atom_site_type_symbol
_atom_type_description
_atom_site_fract_x
_atom_site_fract_y
_atom_site_fract_z
_atom_type_partial_charge
C1    C     C_R   0.521501 0.700801 0.501961 0.802698
C2    C     C_R   0.445605 0.489056 0.977784 0.085627
C3    C     C_R   0.466932 0.526135 0.875617 0.077383
C4    C     C_R   0.533786 0.521853 0.034381 0.086347
C5    C     C_R   0.636234 0.597918 0.991665 0.168313
C6    C     C_R   0.648590 0.642064 0.895945 -0.254697
C7    C     C_R   0.564103 0.608291 0.839861 -0.205695
C8    C     C_R   0.522671 0.482553 0.132979 -0.237677
C9    C     C_R   0.705860 0.596295 0.147393 -0.210911
C10   C     C_R   0.390190 0.481479 0.811682 -0.157098
C11   C     C_R   0.461056 0.183238 0.497540 -0.106616
C12   C     C_R   0.434124 0.494366 0.697073 0.777302
C13   C     C_R   0.533871 0.814456 0.503770 -0.051472
C14   C     C_R   0.649481 0.987925 0.512865 -0.205189
C15   C     C_R   0.640825 0.879567 0.511835 -0.202796
C16   C     C_R   0.436161 0.858337 0.497364 -0.255412
C17   C     C_R   0.444389 0.966043 0.498013 0.134093
C18   C     C_R   0.551466 0.031503 0.505513 0.175759
C19   C     C_R   0.558930 0.139179 0.505438 -0.294280
C20   C     C_R   0.351738 0.116492 0.489360 0.083286
C21   C     C_R   0.346266 0.007995 0.490614 -0.213308
C22   C     C_R   0.931823 0.571284 0.617810 -0.350131
C23   C     C_R   0.477481 0.298530 0.498389 0.780260
C24   C     C_R   0.815774 0.565989 0.604360 0.063459
C25   C     C_R   0.870617 0.476660 0.443113 0.230782
C26   C     C_R   0.982400 0.468125 0.461947 0.060008
C27   C     C_R   0.016184 0.522268 0.546197 0.043868
C28   C     C_R   0.135507 0.528806 0.553612 0.015656
C29   C     C_R   0.180647 0.420246 0.405035 0.092871
C30   C     C_R   0.064562 0.411742 0.394718 -0.354590
C31   C     C_R   0.564979 0.506032 0.303624 0.797632
C32   C     C_R   0.722903 0.632231 0.047224 -0.191921
C33   C     C_R   0.603678 0.523535 0.191521 -0.050922
C34   C     C_R   0.279904 0.413569 0.856598 0.083604
C35   C     C_R   0.253947 0.388549 0.962001 -0.146490
C36   C     C_R   0.335787 0.422806 0.020327 -0.231037
Cu1   Cu    Cu3+1 0.386470 0.492430 0.492410 0.917825
Cu2   Cu    Cu3+1 0.613530 0.507570 0.507590 0.927539
H1    H     H_    0.768313 0.630160 0.192276 0.139291
H2    H     H_    0.732322 0.037452 0.519279 0.131688
H3    H     H_    0.265960 0.954198 0.485363 0.128213
H4    H     H_    0.717357 0.846975 0.517265 0.154580
H5    H     H_    0.353033 0.808701 0.491383 0.155230
H6    H     H_    0.164803 0.573206 0.616203 0.112661
H7    H     H_    0.243201 0.378806 0.351470 0.112337
H8    H     H_    0.954927 0.612861 0.684410 0.141898
H9    H     H_    0.041144 0.361756 0.333026 0.146324
H10   H     H_    0.752456 0.603020 0.661387 0.137203
H11   H     H_    0.723555 0.703613 0.864456 0.136323
H12   H     H_    0.800978 0.690675 0.015080 0.131326
H13   H     H_    0.448924 0.422643 0.168754 0.128902
H14   H     H_    0.308077 0.398010 0.099976 0.128712
H15   H     H_    0.171196 0.339211 0.000790 0.129022
H16   H     H_    0.574565 0.648839 0.768697 0.148407
H17   H     H_    0.642120 0.188722 0.511340 0.163425
N1    N     N_R   0.215880 0.481050 0.481000 -0.174983
N2    N     N_R   0.784100 0.518950 0.519000 -0.186370
O1    O     O_R   0.419710 0.645650 0.494620 -0.578874
O2    O     O_R   0.611450 0.658430 0.507430 -0.591710
O3    O     O_R   0.357340 0.490460 0.641450 -0.594865
O4    O     O_R   0.549080 0.503250 0.654260 -0.572385
O5    O     O_R   0.388550 0.341570 0.492570 -0.603215
O6    O     O_R   0.580290 0.354350 0.505380 -0.579326
O7    O     O_R   0.450920 0.496750 0.345740 -0.579229
O8    O     O_R   0.642660 0.509540 0.358550 -0.592369
C37   C     C_3   0.243236 0.160050 0.478189 -0.360020
C38   C     C_3   0.131952 0.080117 0.468898 -0.398145
C39   C     C_3   0.032791 0.134739 0.455149 -0.856875
H18   H     H_    0.006380 0.188154 0.521766 0.261127
H19   H     H_    0.063601 0.180125 0.382111 0.249397
H20   H     H_    0.953176 0.075286 0.450596 0.238495
H21   H     H_    0.155859 0.028280 0.400328 0.224234
H22   H     H_    0.096686 0.032103 0.540314 0.220464
H23   H     H_    0.214129 0.209782 0.547281 0.215813
H24   H     H_    0.272127 0.208372 0.406996 0.206078
C40   C     C_3   0.866596 0.463231 0.329717 -0.345845
C41   C     C_3   0.806591 0.353213 0.302711 -0.313071
C42   C     C_3   0.832614 0.335582 0.185408 -0.894317
H25   H     H_    0.800409 0.395207 0.148891 0.269448
H26   H     H_    0.930421 0.340064 0.151048 0.245421
H27   H     H_    0.785689 0.256834 0.168451 0.246965
H28   H     H_    0.839854 0.292568 0.336938 0.198168
H29   H     H_    0.708522 0.341209 0.334158 0.249687
H30   H     H_    0.836543 0.529128 0.302913 0.200235
H31   H     H_    0.959023 0.478422 0.278317 0.161593
C43   C     C_3   0.192768 0.367035 0.791569 -0.366740
C44   C     C_3   0.078218 0.293037 0.847416 -0.394895
C45   C     C_3   0.000537 0.252032 0.773114 -0.836295
H32   H     H_    0.975690 0.317999 0.739163 0.258282
H33   H     H_    0.049365 0.205258 0.709623 0.250314
H34   H     H_    0.917148 0.201102 0.815903 0.245082
H35   H     H_    0.102249 0.225036 0.878795 0.222344
H36   H     H_    0.024707 0.335530 0.912160 0.224381
H37   H     H_    0.163723 0.432722 0.761043 0.213098
H38   H     H_    0.241295 0.322638 0.725460 0.209293

loop_
_geom_bond_atom_site_label_1
_geom_bond_atom_site_label_2
_ccdc_geom_bond_type
C44   C45   S    
C35   H15   S    
C14   C18   A    
C35   C36   A    
C4    C8    A    
C40   H30   S    
Cu1   O5    S    
C28   N1    A    
C41   C42   S    
C11   C19   A    
C26   C27   A    
Cu1   Cu2   S    
C20   C37   S    
C38   H21   S    
C3    C7    A    
C1    O2    A    
C5    C6    A    
C42   H26   S    
C41   H29   S    
C2    C36   A    
C37   H23   S    
C9    H1    S    
C34   C35   A    
C34   C43   S    
C43   H37   S    
C9    C32   A    
C39   H18   S    
Cu1   N1    S    
C23   O5    A    
C24   N2    A    
Cu2   O8    S    
C38   H22   S    
Cu1   O1    S    
C36   H14   S    
Cu2   O4    S    
C23   O6    A    
C37   C38   S    
C44   H35   S    
C9    C33   A    
C25   N2    A    
C11   C20   A    
C38   C39   S    
C24   H10   S    
C30   H9    S    
C40   C41   S    
C42   H25   S    
C18   C19   A    
C25   C26   A    
C28   H6    S    
C17   C21   A    
C29   H7    S    
C2    C4    A    
C29   C30   A    
Cu2   N2    S    
C8    H13   S    
C45   H34   S    
C31   C33   S    
C17   C18   A    
C10   C34   A    
C20   C21   A    
C16   H5    S    
C32   H12   S    
C10   C12   S    
C21   H3    S    
C22   H8    S    
C45   H33   S    
C26   C30   A    
C22   C27   A    
C13   C15   A    
C22   C24   A    
C1    C13   S    
Cu1   O7    S    
Cu2   O6    S    
C19   H17   S    
C31   O8    A    
C43   C44   S    
C31   O7    A    
C15   H4    S    
C4    C5    A    
C6    C7    A    
C29   N1    A    
C25   C40   S    
C5    C32   A    
C2    C3    A    
C3    C10   A    
C1    O1    A    
C12   O4    A    
C42   H27   S    
C16   C17   A    
C41   H28   S    
C39   H20   S    
C37   H24   S    
C44   H36   S    
C11   C23   S    
C8    C33   A    
C6    H11   S    
Cu1   O3    S    
C43   H38   S    
C14   H2    S    
Cu2   O2    S    
C12   O3    A    
C45   H32   S    
C39   H19   S    
C13   C16   A    
C27   C28   A    
C14   C15   A    
C7    H16   S    
C40   H31   S    
