data_mof_unit_26811.cif
_audit_creation_date              2012-12-11T15:52:27-0500
_audit_creation_method            fapswitch 2.2
_symmetry_space_group_name_H-M    P1
_symmetry_Int_Tables_number       1
_space_group_crystal_system       triclinic
_cell_length_a                    6.935057
_cell_length_b                    14.659567
_cell_length_c                    15.968498
_cell_angle_alpha                 90.254335
_cell_angle_beta                  90.011504
_cell_angle_gamma                 90.31008
_cell_volume                      1623.39646558

loop_
_atom_site_label
_atom_site_type_symbol
_atom_type_description
_atom_site_fract_x
_atom_site_fract_y
_atom_site_fract_z
_atom_type_partial_charge
O1    O     O_R   0.494400 0.415640 0.412830 -0.540854
O2    O     O_R   0.823920 0.405510 0.586560 -0.497985
O3    O     O_R   0.994250 0.584360 0.587170 -0.530793
C1    C     C_R   0.654779 0.382838 0.614794 0.771638
O4    O     O_R   0.824110 0.404610 0.413450 -0.529919
O5    O     O_R   0.994440 0.583460 0.412820 -0.543941
C2    C     C_R   0.654783 0.379941 0.386424 0.721741
O6    O     O_R   0.494210 0.416540 0.587180 -0.547573
O7    O     O_3   0.660810 0.558680 0.500000 -0.383007
V1    V     V_3+5 0.935650 0.489110 0.500000 1.547679
O8    O     O_R   0.324150 0.594490 0.413440 -0.551630
C3    C     C_R   0.155418 0.616540 0.384387 0.706115
O9    O     O_R   0.323970 0.595390 0.586550 -0.556209
C4    C     C_R   0.155777 0.614664 0.617552 0.785871
V2    V     V_3+5 0.435660 0.510890 0.500000 1.460729
O10   O     O_3   0.160630 0.441320 0.500000 -0.346768
C5    C     C_3   0.981033 0.655639 0.752440 -0.064422
H1    H     H_    0.841338 0.650452 0.718723 0.128427
C6    C     C_3   0.966222 0.727547 0.824737 0.241743
H2    H     H_    0.994712 0.692990 0.885029 0.175513
C7    C     C_3   0.106184 0.779972 0.653961 0.130228
C8    C     C_3   0.336870 0.688358 0.739464 -0.409544
C9    C     C_3   0.144388 0.682605 0.689392 -0.106131
H3    H     H_    0.456304 0.709593 0.697162 0.130809
H4    H     H_    0.376693 0.620033 0.763406 0.228278
C10   C     C_3   0.119643 0.805520 0.813715 -0.113135
C11   C     C_3   0.093163 0.852165 0.726390 0.140626
C12   C     C_3   0.321526 0.758485 0.812577 -0.056304
H5    H     H_    0.430976 0.812688 0.802370 0.158758
H6    H     H_    0.233005 0.799012 0.614857 0.113742
H7    H     H_    0.214233 0.901916 0.718466 0.085836
C13   C     C_R   0.954619 0.792112 0.232054 0.395497
C14   C     C_R   0.969341 0.728134 0.297574 -0.217638
H8    H     H_    0.843345 0.713157 0.335293 0.122954
C15   C     C_R   0.144427 0.684556 0.315466 -0.072099
C16   C     C_R   0.306275 0.705493 0.266182 -0.158031
H9    H     H_    0.443116 0.672604 0.277795 0.127505
C17   C     C_R   0.292845 0.767861 0.200177 -0.197396
H10   H     H_    0.419732 0.780927 0.162547 0.179698
C18   C     C_R   0.118169 0.812163 0.182085 -0.064182
C19   C     C_R   0.796571 0.249366 0.691238 0.359169
C20   C     C_R   0.792574 0.185975 0.757824 0.071035
C21   C     C_R   0.628504 0.181046 0.811613 -0.122971
C22   C     C_R   0.478132 0.243433 0.799311 -0.138331
H11   H     H_    0.354559 0.243741 0.840706 0.169976
C23   C     C_R   0.486649 0.308236 0.735550 -0.165117
H12   H     H_    0.368926 0.355984 0.729175 0.177936
C24   C     C_R   0.645814 0.312567 0.681538 -0.105574
C25   C     C_R   0.776585 0.234096 0.317338 0.140340
C26   C     C_R   0.766719 0.169428 0.250970 0.138671
C27   C     C_R   0.623323 0.177285 0.187637 -0.118126
C28   C     C_R   0.488676 0.248105 0.194159 -0.151708
H13   H     H_    0.376365 0.255212 0.147519 0.140934
C29   C     C_R   0.499376 0.312204 0.259148 -0.149293
H14   H     H_    0.395120 0.366958 0.260623 0.135036
C30   C     C_R   0.644552 0.307657 0.320327 -0.119011
O11   O     O_R   0.771300 0.080930 0.910090 -0.524652
O12   O     O_R   0.441270 0.092800 0.083770 -0.544294
O13   O     O_R   0.271080 0.913920 0.084380 -0.545107
C31   C     C_R   0.610598 0.112319 0.115194 0.726774
O14   O     O_R   0.441580 0.091910 0.910670 -0.542230
O15   O     O_R   0.271390 0.913020 0.910040 -0.547816
C32   C     C_R   0.612108 0.113296 0.880994 0.740588
O16   O     O_R   0.770990 0.081830 0.084440 -0.532105
O17   O     O_3   0.604750 0.938760 0.997250 -0.352044
V3    V     V_3+5 0.329850 0.008280 0.997210 1.525824
O18   O     O_R   0.941680 0.901940 0.910610 -0.494469
C33   C     C_R   0.110346 0.877371 0.883455 0.795282
O19   O     O_R   0.941370 0.902830 0.083720 -0.508140
C34   C     C_R   0.109815 0.880104 0.112460 0.754684
V4    V     V_3+5 0.829860 0.986420 0.997150 1.618707
O20   O     O_3   0.104830 0.056030 0.997180 -0.369798
O21   O     O_3   0.783016 0.836663 0.217359 -0.633641
H15   H     H_    0.688134 0.819198 0.260933 0.286624
O22   O     O_3   0.947543 0.251252 0.634940 -0.615242
H16   H     H_    0.988498 0.187886 0.623553 0.325510
I1    I     I_    0.048632 0.106819 0.775389 -0.399285
I2    I     I_    0.012014 0.519244 0.801965 -0.407983
I3    I     I_    0.981220 0.214726 0.416928 -0.299609
I4    I     I_    0.961918 0.056640 0.252085 -0.315653
O23   O     O_3   0.778722 0.762066 0.831460 -0.609247
H17   H     H_    0.733969 0.778300 0.774750 0.314705
O24   O     O_3   0.945812 0.781879 0.599684 -0.631015
H18   H     H_    0.828011 0.769006 0.632638 0.304438
O25   O     O_3   0.919604 0.901110 0.723164 -0.630628
H19   H     H_    0.924514 0.938932 0.671766 0.334491
I5    I     I_    0.397149 0.695225 0.930901 -0.353460

loop_
_geom_bond_atom_site_label_1
_geom_bond_atom_site_label_2
_ccdc_geom_bond_type
C19   C20   A    
C15   C16   A    
C1    O6    A    
O23   H17   S    
C21   C32   S    
O25   H19   S    
C22   H11   S    
C10   C11   S    
C5    C9    S    
C18   C34   S    
C16   H9    S    
O13   V3    S    
O5    C3    A    
C17   H10   S    
O12   C31   A    
V2    O10   S    
O19   V4    S    
O21   H15   S    
O16   V4    S    
O14   C32   A    
C6    C10   S    
C5    C6    S    
C23   H12   S    
O8    V2    S    
O14   V3    S    
O12   V3    S    
V3    O20   S    
C7    O24   S    
C28   C29   A    
C8    H4    S    
O1    V2    S    
O7    V1    S    
C7    C11   S    
C8    C12   S    
O9    C4    A    
C2    C30   S    
C22   C23   A    
O11   C32   A    
C29   C30   A    
C7    C9    S    
C23   C24   A    
O15   V3    S    
C11   H7    S    
O18   C33   A    
C11   O25   S    
C13   O21   S    
O4    C2    A    
C26   C27   A    
O17   V4    S    
C27   C28   A    
C4    C9    S    
O2    C1    A    
O22   H16   S    
C19   O22   S    
O24   H18   S    
C12   I5    S    
C5    H1    S    
O11   V4    S    
C3    C15   S    
O3    C4    A    
O17   V3    S    
O6    V2    S    
O9    V2    S    
C21   C22   A    
C8    H3    S    
C20   C21   A    
O2    V1    S    
C28   H13   S    
C1    C24   S    
C29   H14   S    
C12   H5    S    
O1    C2    A    
C26   I4    S    
O5    V1    S    
O8    C3    A    
C25   C30   A    
C7    H6    S    
C10   C12   S    
O15   C33   A    
C31   O16   A    
C10   C33   S    
C13   C14   A    
C6    H2    S    
C16   C17   A    
O7    V2    S    
O4    V1    S    
O3    V1    S    
V1    O10   S    
C17   C18   A    
C5    I2    S    
C14   C15   A    
C19   C24   A    
C14   H8    S    
O18   V4    S    
C13   C18   A    
O19   C34   A    
O13   C34   A    
C25   I3    S    
V4    O20   S    
C20   I1    S    
C25   C26   A    
C8    C9    S    
C27   C31   S    
C6    O23   S    
