data_mof_unit_10863.cif
_audit_creation_date              2012-12-10T17:25:23-0500
_audit_creation_method            fapswitch 2.2
_symmetry_space_group_name_H-M    P1
_symmetry_Int_Tables_number       1
_space_group_crystal_system       triclinic
_cell_length_a                    27.784438
_cell_length_b                    10.753006
_cell_length_c                    9.602937
_cell_angle_alpha                 90.171859
_cell_angle_beta                  90.257949
_cell_angle_gamma                 92.590471
_cell_volume                      2866.05762842

loop_
_atom_site_label
_atom_site_type_symbol
_atom_type_description
_atom_site_fract_x
_atom_site_fract_y
_atom_site_fract_z
_atom_type_partial_charge
C1    C     C_R   0.498457 0.262626 0.499830 0.797512
C2    C     C_R   0.278549 0.482082 0.622927 -0.106405
C3    C     C_R   0.253693 0.503221 0.498677 0.357944
C4    C     C_R   0.101845 0.501904 0.490327 -0.049661
C5    C     C_R   0.125582 0.390220 0.510258 -0.008674
C6    C     C_R   0.098505 0.278422 0.525181 -0.146341
C7    C     C_R   0.129284 0.613736 0.472643 -0.075764
C8    C     C_R   0.354605 0.500970 0.499444 -0.038884
C9    C     C_R   0.645509 0.501616 0.501044 -0.099977
C10   C     C_R   0.972776 0.385556 0.483455 0.019813
C11   C     C_R   0.976532 0.614148 0.495849 0.052833
C12   C     C_R   0.407545 0.499889 0.499763 0.780372
C13   C     C_R   0.949284 0.499278 0.490751 0.077533
C14   C     C_R   0.944524 0.274374 0.465255 -0.267156
C15   C     C_R   0.894221 0.273328 0.462582 0.179821
C16   C     C_R   0.870379 0.385570 0.480189 -0.025039
C17   C     C_R   0.898170 0.498360 0.495429 -0.095297
C18   C     C_R   0.874910 0.610712 0.516501 -0.019135
C19   C     C_R   0.824494 0.609610 0.519025 0.592388
C20   C     C_R   0.819599 0.389753 0.482804 0.552050
C21   C     C_R   0.721644 0.510416 0.628598 0.546632
C22   C     C_R   0.671225 0.512300 0.627244 -0.307269
C23   C     C_R   0.498746 0.737113 0.500114 0.760202
C24   C     C_R   0.670885 0.491895 0.375561 -0.219664
C25   C     C_R   0.721026 0.492137 0.376316 -0.186445
C26   C     C_R   0.746523 0.501969 0.502164 0.270371
C27   C     C_R   0.023699 0.386540 0.495600 0.069001
C28   C     C_R   0.050786 0.501518 0.487350 0.041212
C29   C     C_R   0.027255 0.615731 0.475020 -0.010645
C30   C     C_R   0.048538 0.276299 0.517483 -0.203875
C31   C     C_R   0.105978 0.723387 0.444952 -0.120747
C32   C     C_R   0.952334 0.722395 0.530219 -0.227362
C33   C     C_R   0.902423 0.721266 0.537843 -0.143107
C34   C     C_R   0.592485 0.500708 0.500312 0.797959
C35   C     C_R   0.055840 0.725442 0.440903 0.136283
C36   C     C_R   0.419137 0.120561 0.632066 -0.206226
C37   C     C_R   0.381498 0.052025 0.695778 0.198077
C38   C     C_R   0.381256 0.921286 0.695738 0.174638
C39   C     C_R   0.419185 0.861080 0.632032 -0.236100
C40   C     C_R   0.457669 0.929595 0.568370 0.066668
C41   C     C_R   0.457587 0.060828 0.568138 0.041976
C42   C     C_R   0.495288 0.128451 0.499356 -0.068127
C43   C     C_R   0.530882 0.067633 0.427451 -0.175402
C44   C     C_R   0.531027 0.939447 0.427906 -0.199980
C45   C     C_R   0.176130 0.392987 0.514263 0.535545
C46   C     C_R   0.495541 0.870562 0.500122 -0.060536
C47   C     C_R   0.564191 0.665192 0.145064 -0.116832
C48   C     C_R   0.595610 0.745756 0.073503 -0.199254
C49   C     C_R   0.595555 0.745783 0.930029 -0.192241
C50   C     C_R   0.564047 0.665330 0.857289 -0.120081
C51   C     C_R   0.531407 0.581363 0.925876 0.189731
C52   C     C_R   0.531483 0.581180 0.075295 0.112677
C53   C     C_R   0.469177 0.423232 0.074219 0.585828
C54   C     C_R   0.470172 0.422332 0.924810 -0.171649
C55   C     C_R   0.179801 0.612331 0.476792 0.544548
C56   C     C_R   0.279291 0.523467 0.374950 -0.111617
C57   C     C_R   0.329430 0.522280 0.375176 -0.217788
C58   C     C_R   0.328726 0.481187 0.623518 -0.229715
Cu1   Cu    Cu3+1 0.500000 0.499990 0.640660 0.929982
Cu2   Cu    Cu3+1 0.500000 0.500010 0.359340 0.980004
H1    H     H_    0.347177 0.464323 0.720788 0.158164
H2    H     H_    0.260243 0.539635 0.278525 0.140980
H3    H     H_    0.126753 0.808217 0.420506 0.199975
H4    H     H_    0.971521 0.808360 0.557061 0.146218
H5    H     H_    0.652047 0.483915 0.276726 0.175334
H6    H     H_    0.885509 0.807635 0.561472 0.180272
H7    H     H_    0.740203 0.484663 0.278931 0.159433
H8    H     H_    0.559311 0.119920 0.373316 0.149301
H9    H     H_    0.417239 0.220808 0.630993 0.159439
H10   H     H_    0.258932 0.466426 0.718931 0.140948
H11   H     H_    0.417581 0.760510 0.630112 0.155744
H12   H     H_    0.559555 0.893707 0.374024 0.135142
H13   H     H_    0.567223 0.673285 0.254836 0.191189
H14   H     H_    0.620174 0.808748 0.130139 0.154794
H15   H     H_    0.620115 0.808691 0.874334 0.161682
H16   H     H_    0.567026 0.673113 0.747579 0.194775
H17   H     H_    0.446936 0.357627 0.866554 0.154813
H18   H     H_    0.115848 0.191519 0.542492 0.187090
H19   H     H_    0.652413 0.522345 0.724901 0.174504
H20   H     H_    0.960629 0.186177 0.448410 0.137743
H21   H     H_    0.030166 0.187062 0.533722 0.136036
H22   H     H_    0.348433 0.538754 0.278342 0.160515
N1    N     N_R   0.202083 0.503015 0.497615 -0.466375
N2    N     N_R   0.798101 0.500495 0.501364 -0.459715
N3    N     N_R   0.500460 0.501210 0.147910 -0.237758
N4    N     N_R   0.500480 0.501290 0.852040 -0.217684
O1    O     O_R   0.500000 0.319640 0.618810 -0.581682
O2    O     O_2   0.791672 0.284613 0.467870 -0.506050
O3    O     O_2   0.206469 0.719340 0.460733 -0.542981
O4    O     O_2   0.801901 0.716847 0.537995 -0.520779
O5    O     O_R   0.500000 0.319660 0.381240 -0.523912
O6    O     O_R   0.430260 0.500010 0.618770 -0.598364
O7    O     O_R   0.430270 0.500030 0.381200 -0.538161
O8    O     O_R   0.500000 0.680340 0.618760 -0.598154
O9    O     O_R   0.500000 0.680360 0.381190 -0.593902
O10   O     O_R   0.569730 0.499970 0.618800 -0.595762
O11   O     O_R   0.569740 0.499990 0.381230 -0.605786
O12   O     O_2   0.199202 0.286469 0.533037 -0.538822
N5    N     N_3   0.036342 0.833924 0.379276 -0.601092
H23   H     H_    0.032474 0.902308 0.455418 0.207176
H24   H     H_    0.003999 0.812426 0.326801 0.238363
N6    N     N_3   0.343448 0.117258 0.759204 -0.600933
H25   H     H_    0.341014 0.090268 0.863530 0.236238
H26   H     H_    0.311089 0.090114 0.709528 0.248476
N7    N     N_3   0.342254 0.850611 0.759841 -0.589380
H27   H     H_    0.311765 0.858992 0.696975 0.238131
H28   H     H_    0.349374 0.755947 0.761467 0.221531
O13   O     O_3   0.439504 0.340417 0.148811 -0.539905
C59   C     C_3   0.392250 0.332465 0.093755 -0.339912
H29   H     H_    0.389690 0.264232 0.006748 0.171466
H30   H     H_    0.379585 0.424577 0.059985 0.136916
H31   H     H_    0.367465 0.297518 0.176544 0.205365
O14   O     O_3   0.747081 0.524521 0.752093 -0.564854
C60   C     C_3   0.743363 0.411397 0.825913 -0.306172
H32   H     H_    0.756689 0.332963 0.762970 0.184863
H33   H     H_    0.705758 0.389962 0.860593 0.157562
H34   H     H_    0.766289 0.420505 0.920591 0.197293
N8    N     N_3   0.867902 0.156774 0.442708 -0.501056
H35   H     H_    0.877578 0.096388 0.522219 0.217877
H36   H     H_    0.878460 0.118632 0.347936 0.219240

loop_
_geom_bond_atom_site_label_1
_geom_bond_atom_site_label_2
_ccdc_geom_bond_type
C10   C27   A    
C1    O1    A    
C21   C26   A    
C41   C42   A    
C25   H7    S    
C7    C55   A    
C60   H32   S    
C15   N8    S    
C53   C54   A    
C56   C57   A    
C40   C46   A    
N7    H28   S    
C28   C29   A    
C36   C37   A    
C34   O10   A    
C22   H19   S    
C45   O12   S    
C59   H30   S    
C5    C6    A    
C9    C22   A    
C6    H18   S    
C15   C16   A    
C34   O11   A    
O13   C59   S    
C18   C19   A    
N8    H35   S    
C8    C58   A    
N5    H23   S    
C43   H8    S    
C49   H15   S    
Cu1   O8    S    
C14   H20   S    
C16   C20   A    
C54   H17   S    
Cu2   O7    S    
C58   H1    S    
Cu1   Cu2   S    
C1    O5    A    
C23   C46   S    
C21   C22   A    
C27   C30   A    
C36   C41   A    
C45   N1    A    
C4    C7    A    
C35   N5    S    
C51   N4    A    
C4    C28   A    
C44   C46   A    
C33   H6    S    
C17   C18   A    
Cu1   O1    S    
C38   C39   A    
C7    C31   A    
C51   C52   A    
C48   H14   S    
C24   C25   A    
C32   H4    S    
C21   O14   S    
Cu2   O11   S    
C10   C14   A    
C59   H31   S    
C39   C40   A    
C54   N4    A    
C16   C17   A    
C25   C26   A    
C5    C45   A    
C43   C44   A    
C37   C38   A    
C50   H16   S    
C8    C57   A    
C3    C56   A    
C47   C48   A    
C8    C12   S    
C50   C51   A    
N6    H26   S    
C47   H13   S    
C24   H5    S    
C40   C41   A    
C6    C30   A    
C11   C32   A    
C20   N2    A    
C3    N1    S    
C9    C34   S    
C31   C35   A    
C12   O7    A    
Cu1   O10   S    
C55   N1    A    
C19   N2    A    
C36   H9    S    
O14   C60   S    
Cu2   O5    S    
C52   N3    A    
C26   N2    S    
N5    H24   S    
C14   C15   A    
C12   O6    A    
C4    C5    A    
C10   C13   A    
C60   H33   S    
Cu2   N3    S    
C2    C58   A    
C9    C24   A    
C47   C52   A    
C31   H3    S    
N7    H27   S    
C29   C35   A    
C23   O8    A    
C13   C17   A    
C32   C33   A    
C30   H21   S    
C2    C3    A    
Cu1   N4    S    
C55   O3    S    
C19   O4    S    
C59   H29   S    
C11   C13   A    
C53   O13   S    
C37   N6    S    
C38   N7    S    
C48   C49   A    
C20   O2    S    
C23   O9    A    
C44   H12   S    
C56   H2    S    
Cu1   O6    S    
N6    H25   S    
C18   C33   A    
N8    H36   S    
C60   H34   S    
Cu2   O9    S    
C1    C42   S    
C11   C29   A    
C49   C50   A    
C42   C43   A    
C27   C28   A    
C39   H11   S    
C57   H22   S    
C53   N3    A    
C2    H10   S    
