data_mof_unit_6797.cif
_audit_creation_date              2012-12-11T16:43:16-0500
_audit_creation_method            fapswitch 2.2
_symmetry_space_group_name_H-M    P1
_symmetry_Int_Tables_number       1
_space_group_crystal_system       triclinic
_cell_length_a                    6.92865
_cell_length_b                    23.260163
_cell_length_c                    25.822795
_cell_angle_alpha                 104.793647
_cell_angle_beta                  90.328563
_cell_angle_gamma                 90.398884
_cell_volume                      4023.4708464

loop_
_atom_site_label
_atom_site_type_symbol
_atom_type_description
_atom_site_fract_x
_atom_site_fract_y
_atom_site_fract_z
_atom_type_partial_charge
O1    O     O_R   0.505750 0.453350 0.547660 -0.540560
O2    O     O_R   0.170990 0.432220 0.437590 -0.540640
O3    O     O_R   0.005600 0.546650 0.452340 -0.538094
C1    C     C_R   0.339792 0.415154 0.417624 0.713132
O4    O     O_R   0.175720 0.446240 0.546340 -0.542468
O5    O     O_R   0.010370 0.560770 0.561860 -0.538989
C2    C     C_R   0.344854 0.434170 0.562829 0.689561
O6    O     O_R   0.500990 0.439230 0.438140 -0.538892
O7    O     O_3   0.340820 0.537560 0.504970 -0.368803
V1    V     V_3+5 0.064050 0.493030 0.499080 1.398240
O8    O     O_R   0.680940 0.567780 0.562410 -0.542142
C3    C     C_R   0.850781 0.584544 0.582475 0.711593
O9    O     O_R   0.676210 0.553760 0.453660 -0.542703
C4    C     C_R   0.844897 0.565840 0.437171 0.704600
V2    V     V_3+5 0.564640 0.506970 0.500920 1.397422
O10   O     O_3   0.837740 0.462440 0.495030 -0.369549
C5    C     C_R   0.774469 0.882169 0.120868 -0.160561
H1    H     H_    0.641640 0.898993 0.108278 0.120269
C6    C     C_R   0.764062 0.846958 0.157412 -0.143740
H2    H     H_    0.623570 0.837132 0.171346 0.101050
C7    C     C_R   0.932241 0.824053 0.175187 0.093679
C8    C     C_R   0.111248 0.837107 0.155134 -0.142300
H3    H     H_    0.243837 0.820810 0.168380 0.101065
C9    C     C_R   0.121797 0.872463 0.118618 -0.160432
H4    H     H_    0.262261 0.881910 0.104416 0.118734
C10   C     C_R   0.953489 0.895591 0.101031 -0.055746
C11   C     C_R   0.039010 0.736962 0.209760 -0.154723
H5    H     H_    0.140780 0.724502 0.177232 0.112921
C12   C     C_R   0.024322 0.701587 0.246167 -0.154631
H6    H     H_    0.115851 0.663025 0.241233 0.130917
C13   C     C_R   0.890331 0.715205 0.288057 0.080419
C14   C     C_R   0.775511 0.765918 0.293821 -0.151256
H7    H     H_    0.676258 0.778689 0.326934 0.109755
C15   C     C_R   0.789293 0.801119 0.257327 -0.152444
H8    H     H_    0.699080 0.840030 0.263070 0.111075
C16   C     C_R   0.920323 0.786933 0.214557 0.080722
C17   C     C_R   0.699763 0.647215 0.332362 0.218893
C18   C     C_R   0.691223 0.611935 0.369071 -0.138698
H9    H     H_    0.557108 0.589233 0.373014 0.137007
C19   C     C_R   0.854455 0.604441 0.399273 -0.117212
C20   C     C_R   0.027511 0.633306 0.392195 -0.159058
H10   H     H_    0.155995 0.628497 0.414757 0.133720
C21   C     C_R   0.036487 0.669402 0.356407 -0.160530
H11   H     H_    0.170877 0.691824 0.352474 0.136613
C22   C     C_R   0.873815 0.677118 0.326262 0.029355
C23   C     C_R   0.713141 0.645009 0.668859 -0.222337
C24   C     C_R   0.864363 0.634263 0.631545 -0.083777
C25   C     C_R   0.031232 0.670420 0.641876 -0.218364
C26   C     C_R   0.047230 0.717022 0.688593 0.089037
C27   C     C_R   0.896394 0.726874 0.726234 0.053161
C28   C     C_R   0.729225 0.690527 0.716442 0.091192
C29   C     C_R   0.211581 0.753944 0.698394 -0.191178
C30   C     C_R   0.227671 0.799800 0.745409 -0.181700
C31   C     C_R   0.080091 0.809429 0.783586 0.091415
C32   C     C_R   0.912919 0.773084 0.773793 0.053153
C33   C     C_R   0.762080 0.782937 0.811434 0.088782
C34   C     C_R   0.597728 0.746015 0.801632 -0.190631
C35   C     C_R   0.581642 0.700158 0.754619 -0.181394
C36   C     C_R   0.096181 0.854943 0.831172 -0.222454
C37   C     C_R   0.944956 0.865690 0.868484 -0.084168
C38   C     C_R   0.778076 0.829539 0.858150 -0.217629
H12   H     H_    0.584754 0.617105 0.661413 0.124131
H13   H     H_    0.148092 0.662647 0.613236 0.127802
H14   H     H_    0.328519 0.747113 0.669836 0.134133
H15   H     H_    0.356448 0.827492 0.752081 0.136113
H16   H     H_    0.224573 0.882845 0.838621 0.124040
H17   H     H_    0.661212 0.837314 0.886788 0.128320
H18   H     H_    0.480787 0.752847 0.830190 0.134484
H19   H     H_    0.452866 0.672465 0.747947 0.136293
C39   C     C_R   0.288338 0.170355 0.140074 -0.213179
C40   C     C_R   0.456283 0.135352 0.131074 -0.085493
C41   C     C_R   0.604901 0.147276 0.169842 -0.224465
C42   C     C_R   0.584321 0.192440 0.217583 0.093845
C43   C     C_R   0.415484 0.227267 0.226058 0.052721
C44   C     C_R   0.267830 0.216449 0.186903 0.087784
C45   C     C_R   0.728635 0.203084 0.257337 -0.180867
C46   C     C_R   0.707809 0.248379 0.304496 -0.194478
C47   C     C_R   0.541585 0.283681 0.313008 0.088412
C48   C     C_R   0.393934 0.272866 0.273852 0.052599
C49   C     C_R   0.225089 0.307690 0.282332 0.093298
C50   C     C_R   0.080782 0.297048 0.242575 -0.179086
C51   C     C_R   0.101612 0.251754 0.195414 -0.193791
C52   C     C_R   0.521060 0.329763 0.359843 -0.213608
C53   C     C_R   0.353095 0.364756 0.368853 -0.085861
C54   C     C_R   0.204487 0.352842 0.330081 -0.222087
H20   H     H_    0.173181 0.161808 0.110414 0.128843
H21   H     H_    0.733988 0.120372 0.163541 0.123776
H22   H     H_    0.858595 0.176629 0.251808 0.137082
H23   H     H_    0.822583 0.256027 0.334215 0.133875
H24   H     H_    0.636208 0.338303 0.389506 0.128572
H25   H     H_    0.075383 0.379738 0.336390 0.124586
H26   H     H_    0.950818 0.323501 0.248105 0.137916
H27   H     H_    0.986836 0.244105 0.165696 0.134343
C55   C     C_R   0.274992 0.115499 0.877665 -0.160402
H28   H     H_    0.143043 0.096243 0.888342 0.120985
C56   C     C_R   0.263693 0.151072 0.841512 -0.144085
H29   H     H_    0.123877 0.157600 0.825061 0.100594
C57   C     C_R   0.430800 0.176796 0.825951 0.094941
C58   C     C_R   0.609763 0.165893 0.847589 -0.141465
H30   H     H_    0.741140 0.185621 0.837138 0.099511
C59   C     C_R   0.621205 0.130118 0.883688 -0.162165
H31   H     H_    0.761336 0.122773 0.899526 0.119660
C60   C     C_R   0.453865 0.104438 0.899221 -0.054766
C61   C     C_R   0.561228 0.211920 0.748226 -0.151363
H32   H     H_    0.681848 0.181960 0.745388 0.109943
C62   C     C_R   0.548359 0.246942 0.711588 -0.151722
H33   H     H_    0.659638 0.242973 0.681645 0.108445
C63   C     C_R   0.392054 0.285601 0.712867 0.081788
C64   C     C_R   0.248939 0.288217 0.751810 -0.151211
H34   H     H_    0.128314 0.318175 0.754647 0.110165
C65   C     C_R   0.261807 0.253196 0.788447 -0.151512
H35   H     H_    0.150525 0.257164 0.818389 0.108705
C66   C     C_R   0.418092 0.214528 0.787163 0.081808
C67   C     C_R   0.200240 0.334176 0.652428 -0.141665
H36   H     H_    0.068910 0.314439 0.662898 0.099415
C68   C     C_R   0.188677 0.369931 0.616316 -0.162241
H37   H     H_    0.048503 0.377252 0.600490 0.119558
C69   C     C_R   0.355945 0.395624 0.600758 -0.054846
C70   C     C_R   0.534878 0.384591 0.622300 -0.160586
H38   H     H_    0.666773 0.403857 0.611601 0.120915
C71   C     C_R   0.546298 0.349036 0.658467 -0.144024
H39   H     H_    0.686152 0.342528 0.674908 0.100688
C72   C     C_R   0.379254 0.323306 0.674058 0.094955
O11   O     O_R   0.308350 0.060850 0.061810 -0.538660
O12   O     O_R   0.633860 0.053770 0.953650 -0.542245
O13   O     O_R   0.798960 0.939210 0.938150 -0.538477
C73   C     C_R   0.464792 0.065879 0.937143 0.690310
O14   O     O_R   0.638360 0.067800 0.062400 -0.540839
O15   O     O_R   0.803500 0.953330 0.047670 -0.540055
C74   C     C_R   0.469555 0.084919 0.082328 0.711337
O16   O     O_R   0.303810 0.046730 0.952290 -0.540703
O17   O     O_3   0.468430 0.962490 0.995010 -0.368652
V3    V     V_3+5 0.745300 0.006960 0.000930 1.396903
O18   O     O_R   0.132880 0.946160 0.046390 -0.542175
C75   C     C_R   0.964050 0.934078 0.062908 0.690244
O19   O     O_R   0.128380 0.932130 0.937650 -0.542021
C76   C     C_R   0.958544 0.915406 0.917557 0.712997
V4    V     V_3+5 0.244670 0.992930 0.999140 1.397085
O20   O     O_3   0.971670 0.037510 0.005000 -0.368828
N1    N     N_3   0.532526 0.649482 0.300065 -0.691866
H40   H     H_    0.572075 0.636714 0.259761 0.237301
H41   H     H_    0.483015 0.693135 0.308739 0.218589

loop_
_geom_bond_atom_site_label_1
_geom_bond_atom_site_label_2
_ccdc_geom_bond_type
C32   C33   A    
O13   C76   A    
C59   H31   S    
C11   C12   A    
C42   C43   A    
C65   H35   S    
C44   C51   A    
C1    O6    A    
C61   C62   A    
C67   H36   S    
C54   H25   S    
C7    C16   S    
C46   C47   A    
C63   C64   A    
C46   H23   S    
C49   C54   A    
C23   H12   S    
C5    C10   A    
O11   V4    S    
C6    C7    A    
C17   C18   A    
N1    H41   S    
C64   C65   A    
C36   H16   S    
O5    C3    A    
C18   H9    S    
C62   H33   S    
O17   V4    S    
V2    O10   S    
C68   H37   S    
C5    H1    S    
C15   H8    S    
C20   H10   S    
C26   C27   A    
C69   C70   A    
C10   C75   S    
O15   C75   A    
C50   H26   S    
O8    V2    S    
C47   C52   A    
C58   H30   S    
O13   V3    S    
O17   V3    S    
C17   N1    S    
C56   C57   A    
O16   V4    S    
C39   C40   A    
O1    V2    S    
O9    C4    A    
C30   H15   S    
O7    V1    S    
C45   H22   S    
C37   C76   S    
C36   C37   A    
C59   C60   A    
C51   H27   S    
C7    C8    A    
C20   C21   A    
C2    C69   S    
C3    C24   S    
C8    H3    S    
C61   H32   S    
C50   C51   A    
C31   C36   A    
C70   C71   A    
C43   C44   A    
C24   C25   A    
C53   C54   A    
C9    H4    S    
O19   V4    S    
C29   H14   S    
O4    C2    A    
C47   C48   A    
C41   C42   A    
C25   H13   S    
C30   C31   A    
C23   C28   A    
C61   C66   A    
C37   C38   A    
C14   C15   A    
O2    C1    A    
C21   H11   S    
O5    V1    S    
C12   H6    S    
C38   H17   S    
C52   C53   A    
C1    C53   S    
C70   H38   S    
C26   C29   A    
C56   H29   S    
C27   C28   A    
O11   C74   A    
C65   C66   A    
C28   C35   A    
C23   C24   A    
N1    H40   S    
C55   C56   A    
C21   C22   A    
C71   H39   S    
O3    C4    A    
O15   V3    S    
C67   C72   A    
C19   C20   A    
C58   C59   A    
C55   C60   A    
V3    O20   S    
O6    V2    S    
C43   C48   A    
O9    V2    S    
C42   C45   A    
C8    C9    A    
C33   C34   A    
C34   H18   S    
C17   C22   A    
C39   H20   S    
C11   H5    S    
C41   H21   S    
C60   C73   S    
C29   C30   A    
O12   V3    S    
C52   H24   S    
C31   C32   A    
C25   C26   A    
O1    C2    A    
C13   C14   A    
C9    C10   A    
C49   C50   A    
C57   C66   S    
O14   C74   A    
O18   V4    S    
C67   C68   A    
O8    C3    A    
C35   H19   S    
O18   C75   A    
C11   C16   A    
C27   C32   A    
C14   H7    S    
C6    H2    S    
O7    V2    S    
O4    V1    S    
C12   C13   A    
O3    V1    S    
V1    O10   S    
O14   V3    S    
C40   C74   S    
C18   C19   A    
C45   C46   A    
C34   C35   A    
C62   C63   A    
C5    C6    A    
C68   C69   A    
C15   C16   A    
C55   H28   S    
C73   O16   A    
C71   C72   A    
V4    O20   S    
C4    C19   S    
C48   C49   A    
C40   C41   A    
C57   C58   A    
C13   C22   S    
C39   C44   A    
O12   C73   A    
C33   C38   A    
O19   C76   A    
C63   C72   S    
C64   H34   S    
O2    V1    S    
