data_mof_unit_48885.cif
_audit_creation_date              2012-12-11T15:25:57-0500
_audit_creation_method            fapswitch 2.2
_symmetry_space_group_name_H-M    P1
_symmetry_Int_Tables_number       1
_space_group_crystal_system       triclinic
_cell_length_a                    24.794746
_cell_length_b                    17.5958
_cell_length_c                    15.745617
_cell_angle_alpha                 90.169143
_cell_angle_beta                  51.339098
_cell_angle_gamma                 90.003254
_cell_volume                      5364.09890978

loop_
_atom_site_label
_atom_site_type_symbol
_atom_type_description
_atom_site_fract_x
_atom_site_fract_y
_atom_site_fract_z
_atom_type_partial_charge
C1    C     C_R   0.343262 0.126215 0.780109 -0.107355
C2    C     C_2   0.328178 0.803342 0.931934 -0.182883
C3    C     C_2   0.331667 0.205553 0.920317 -0.188385
C4    C     C_2   0.649954 0.761637 0.122642 -0.177533
C5    C     C_2   0.178373 0.688571 0.060778 -0.193131
C6    C     C_2   0.847788 0.264960 0.876879 -0.186161
C7    C     C_2   0.809207 0.659147 0.969198 -0.189838
C8    C     C_2   0.164268 0.288413 0.086915 -0.191038
C9    C     C_2   0.742482 0.203682 0.017145 -0.097552
C10   C     C_2   0.263021 0.786748 0.977330 -0.088657
C11   C     C_2   0.272497 0.233146 0.950098 -0.105236
C12   C     C_R   0.652059 0.864478 0.231178 -0.103296
C13   C     C_2   0.700395 0.721061 0.109098 -0.111827
C14   C     C_2   0.233642 0.720546 0.041860 -0.093156
C15   C     C_2   0.781084 0.253432 0.927032 -0.100453
C16   C     C_2   0.743679 0.674966 0.012330 -0.079672
C17   C     C_2   0.223776 0.261230 0.056578 -0.102755
C18   C     C_R   0.589571 0.139111 0.594873 -0.209190
C19   C     C_R   0.398221 0.874554 0.404511 -0.201748
C20   C     C_R   0.409816 0.138197 0.404886 -0.204434
C21   C     C_R   0.601481 0.873887 0.594951 -0.193665
C22   C     C_R   0.088659 0.639349 0.595694 -0.206520
C23   C     C_R   0.663243 0.110059 0.204069 -0.055452
C24   C     C_R   0.895029 0.378587 0.405659 -0.190214
C25   C     C_R   0.910314 0.638649 0.404866 -0.208279
C26   C     C_R   0.101818 0.374231 0.594768 -0.201865
C27   C     C_R   0.667954 0.138251 0.413079 0.528384
C28   C     C_R   0.322609 0.874120 0.586416 0.513252
C29   C     C_R   0.329828 0.136152 0.586945 0.506068
C30   C     C_R   0.678245 0.875539 0.412520 0.496194
C31   C     C_R   0.168430 0.637732 0.413671 0.529589
C32   C     C_R   0.819161 0.380665 0.588051 0.484177
C33   C     C_R   0.831024 0.637272 0.586715 0.533956
C34   C     C_R   0.340232 0.880326 0.788317 -0.082777
C35   C     C_R   0.177670 0.374370 0.412589 0.510445
C36   C     C_R   0.572742 0.113950 0.206103 -0.127352
C37   C     C_R   0.430432 0.880887 0.787999 -0.120061
C38   C     C_R   0.431967 0.124116 0.783019 -0.120555
C39   C     C_R   0.562655 0.866656 0.229805 -0.111486
C40   C     C_R   0.073129 0.613189 0.205198 -0.123432
C41   C     C_R   0.938749 0.364935 0.766473 -0.115989
C42   C     C_R   0.924647 0.609719 0.798858 -0.129593
C43   C     C_R   0.064954 0.371922 0.223026 -0.116047
C44   C     C_R   0.370133 0.158212 0.826369 0.111436
C45   C     C_R   0.835344 0.607062 0.798434 -0.034411
C46   C     C_R   0.621553 0.827212 0.193812 0.100376
C47   C     C_R   0.639800 0.137009 0.150465 0.104017
C48   C     C_R   0.364833 0.853534 0.840340 0.100835
C49   C     C_R   0.855926 0.629896 0.857927 0.097121
C50   C     C_R   0.126841 0.337569 0.179383 0.111672
C51   C     C_R   0.140730 0.634849 0.148386 0.094897
C52   C     C_R   0.882240 0.323480 0.795719 0.102576
C53   C     C_R   0.642425 0.178924 0.507316 -0.144153
C54   C     C_R   0.339594 0.841537 0.492406 -0.142480
C55   C     C_R   0.355000 0.176405 0.492712 -0.137925
C56   C     C_R   0.155337 0.371351 0.222490 -0.110540
C57   C     C_R   0.661394 0.842636 0.506022 -0.142230
C58   C     C_R   0.142830 0.678386 0.508290 -0.143562
C59   C     C_R   0.833567 0.350498 0.494976 -0.136777
C60   C     C_R   0.856017 0.677541 0.492555 -0.146238
C61   C     C_R   0.160577 0.341474 0.506156 -0.140554
C62   C     C_R   0.286444 0.291258 0.546891 -0.052630
C63   C     C_R   0.736640 0.734782 0.444036 -0.046471
C64   C     C_R   0.708598 0.296107 0.452887 -0.064437
C65   C     C_R   0.264105 0.733718 0.554180 -0.041425
C66   C     C_R   0.787028 0.792694 0.548131 -0.056371
C67   C     C_R   0.163712 0.607540 0.202176 -0.062445
C68   C     C_R   0.234817 0.232619 0.445056 -0.044980
C69   C     C_R   0.212639 0.792751 0.452429 -0.043248
C70   C     C_R   0.760448 0.241587 0.556068 -0.046147
C71   C     C_R   0.732670 0.828746 0.561936 -0.061864
C72   C     C_R   0.289336 0.197190 0.429977 -0.099552
C73   C     C_R   0.268110 0.827532 0.436751 -0.053473
C74   C     C_R   0.706886 0.204403 0.570614 -0.096113
C75   C     C_R   0.231942 0.327185 0.561369 -0.058378
C76   C     C_R   0.791394 0.699772 0.428596 -0.102358
C77   C     C_R   0.761428 0.334768 0.440779 -0.082392
C78   C     C_R   0.854885 0.358067 0.751769 -0.080809
C79   C     C_R   0.208293 0.699886 0.571289 -0.109792
C80   C     C_R   0.708183 0.799398 0.509183 0.180005
C81   C     C_R   0.313795 0.225678 0.483135 0.154682
C82   C     C_R   0.293088 0.797795 0.488403 0.181142
C83   C     C_R   0.682271 0.230706 0.516907 0.158490
C84   C     C_R   0.206898 0.297586 0.509643 0.176163
C85   C     C_R   0.815284 0.727711 0.482841 0.157202
C86   C     C_R   0.786416 0.307090 0.493254 0.173864
C87   C     C_R   0.183878 0.728318 0.518149 0.153762
C88   C     C_2   0.681412 0.178558 0.050578 -0.195501
H1    H     H_    0.291668 0.129677 0.809669 0.195084
H2    H     H_    0.418172 0.870742 0.321068 0.137180
H3    H     H_    0.434784 0.149168 0.320447 0.138091
H4    H     H_    0.579732 0.867935 0.679092 0.138798
H5    H     H_    0.062594 0.650925 0.680556 0.140876
H6    H     H_    0.915817 0.373817 0.321765 0.138433
H7    H     H_    0.935311 0.649697 0.320460 0.139356
H8    H     H_    0.081744 0.369950 0.678196 0.137632
H9    H     H_    0.542883 0.116034 0.177529 0.102823
H10   H     H_    0.461822 0.875841 0.813389 0.106573
H11   H     H_    0.460054 0.126828 0.814518 0.100226
H12   H     H_    0.701599 0.851536 0.207537 0.193202
H13   H     H_    0.530344 0.856232 0.207133 0.107419
H14   H     H_    0.042411 0.617815 0.178517 0.101960
H15   H     H_    0.968804 0.356379 0.793587 0.109684
H16   H     H_    0.953543 0.608964 0.829155 0.104249
H17   H     H_    0.033632 0.365293 0.197579 0.106617
H18   H     H_    0.304836 0.311733 0.589637 0.133790
H19   H     H_    0.717321 0.712790 0.403248 0.127647
H20   H     H_    0.691011 0.314242 0.408197 0.141072
H21   H     H_    0.283432 0.711578 0.594694 0.136252
H22   H     H_    0.804128 0.812122 0.593146 0.139005
H23   H     H_    0.715719 0.101133 0.169407 0.185726
H24   H     H_    0.215305 0.210728 0.404524 0.133287
H25   H     H_    0.194931 0.812852 0.408680 0.137635
H26   H     H_    0.780832 0.220358 0.595487 0.126661
H27   H     H_    0.710355 0.879456 0.611976 0.115806
H28   H     H_    0.309615 0.145213 0.382446 0.121950
H29   H     H_    0.290402 0.878014 0.386791 0.112131
H30   H     H_    0.688017 0.152350 0.617554 0.120683
H31   H     H_    0.210414 0.378461 0.610268 0.114785
H32   H     H_    0.812040 0.648159 0.380249 0.120012
H33   H     H_    0.782436 0.385725 0.391646 0.120189
H34   H     H_    0.289831 0.873845 0.813483 0.193590
H35   H     H_    0.187254 0.648701 0.620006 0.122399
H36   H     H_    0.232117 0.817697 0.962140 0.159691
H37   H     H_    0.762982 0.192772 0.059824 0.176754
H38   H     H_    0.715772 0.729726 0.159767 0.158961
H39   H     H_    0.257380 0.231944 0.898597 0.171873
H40   H     H_    0.751710 0.284576 0.908541 0.172637
H41   H     H_    0.257121 0.700407 0.077012 0.178879
H42   H     H_    0.239513 0.263281 0.107088 0.170032
H43   H     H_    0.724154 0.664960 0.968036 0.159437
H44   H     H_    0.356979 0.772466 0.951810 0.156905
H45   H     H_    0.783764 0.596551 0.830126 0.183364
H46   H     H_    0.661012 0.192732 0.008356 0.158071
H47   H     H_    0.634030 0.751133 0.073037 0.158494
H48   H     H_    0.348231 0.211653 0.969728 0.159302
H49   H     H_    0.874715 0.235578 0.901357 0.155651
H50   H     H_    0.156252 0.709759 0.023578 0.163993
H51   H     H_    0.147466 0.281805 0.037961 0.158902
H52   H     H_    0.829684 0.673269 0.011354 0.158857
H53   H     H_    0.835051 0.089376 0.146953 0.382437
H54   H     H_    0.137818 0.862148 0.743221 0.377028
H55   H     H_    0.165878 0.090899 0.859906 0.385326
H56   H     H_    0.206987 0.366370 0.192487 0.197576
H57   H     H_    0.863031 0.895205 0.255388 0.381687
H58   H     H_    0.335018 0.590532 0.145018 0.382016
H59   H     H_    0.637619 0.419594 0.748842 0.379695
H60   H     H_    0.665410 0.585280 0.851087 0.380477
H61   H     H_    0.363456 0.376157 0.254459 0.378521
H62   H     H_    0.216187 0.599255 0.167894 0.184220
H63   H     H_    0.814512 0.336076 0.752644 0.157181
H64   H     H_    0.566358 0.149884 0.678627 0.138252
N1    N     N_R   0.388930 0.078160 0.705470 -0.055518
N2    N     N_R   0.419500 0.922160 0.443350 -0.068987
N3    N     N_R   0.419500 0.077840 0.443350 -0.066977
N4    N     N_R   0.580500 0.922160 0.556650 -0.068912
N5    N     N_R   0.080500 0.577840 0.556650 -0.068104
N6    N     N_R   0.919500 0.422160 0.443350 -0.069449
N7    N     N_R   0.919500 0.577840 0.443350 -0.068423
N8    N     N_R   0.080500 0.422160 0.556650 -0.068557
N9    N     N_R   0.626210 0.077590 0.443410 -0.097496
N10   N     N_R   0.373790 0.922410 0.556590 -0.102762
N11   N     N_R   0.373790 0.077590 0.556590 -0.096860
N12   N     N_R   0.611070 0.921840 0.294530 -0.051377
N13   N     N_R   0.626210 0.922410 0.443410 -0.101083
N14   N     N_R   0.126210 0.577590 0.443410 -0.098258
N15   N     N_R   0.873790 0.422410 0.556590 -0.102979
N16   N     N_R   0.873790 0.577590 0.556590 -0.098264
N17   N     N_R   0.126210 0.422410 0.443410 -0.102027
N18   N     N_R   0.554800 0.077270 0.294580 -0.052111
N19   N     N_R   0.445200 0.922730 0.705420 -0.051313
N20   N     N_R   0.445200 0.077270 0.705420 -0.049337
N21   N     N_R   0.554800 0.922730 0.294580 -0.051388
N22   N     N_R   0.054800 0.577270 0.294580 -0.050794
N23   N     N_R   0.611070 0.078160 0.294530 -0.063925
N24   N     N_R   0.945200 0.422730 0.705420 -0.053102
N25   N     N_R   0.945200 0.577270 0.705420 -0.052725
N26   N     N_R   0.054800 0.422730 0.294580 -0.051371
N27   N     N_R   0.388930 0.921840 0.705470 -0.057739
N28   N     N_R   0.888930 0.578160 0.705470 -0.065603
N29   N     N_R   0.111070 0.421840 0.294530 -0.055319
N30   N     N_R   0.111070 0.578160 0.294530 -0.061642
N31   N     N_R   0.888930 0.421840 0.705470 -0.046963
N32   N     N_R   0.580500 0.077840 0.556650 -0.067548
Ni1   Ni    Ni4+2 0.382710 0.000000 0.629850 0.317519
Ni2   Ni    Ni4+2 0.617290 0.000000 0.370150 0.319529
Ni3   Ni    Ni4+2 0.882710 0.500000 0.629850 0.323209
Ni4   Ni    Ni4+2 0.117290 0.500000 0.370150 0.314233
Ni5   Ni    Ni4+2 0.513020 0.000000 0.629850 0.200552
Ni6   Ni    Ni4+2 0.486980 0.000000 0.370150 0.199989
Ni7   Ni    Ni4+2 0.013020 0.500000 0.629850 0.199133
Ni8   Ni    Ni4+2 0.986980 0.500000 0.370150 0.198488
O1    O     O_2   0.759882 0.217498 0.233335 -0.363895
O2    O     O_2   0.787221 0.803995 0.237528 -0.374897
O3    O     O_2   0.770874 0.936075 0.212462 -0.257388
O4    O     O_3   0.815632 0.908326 0.320445 -0.506142
O5    O     O_2   0.261445 0.718464 0.236252 -0.370362
O6    O     O_2   0.301130 0.656154 0.326589 -0.280608
O7    O     O_3   0.287631 0.574726 0.207606 -0.489153
O8    O     O_2   0.704613 0.313050 0.758763 -0.365999
O9    O     O_2   0.734407 0.433634 0.794390 -0.270143
O10   O     O_3   0.685596 0.434849 0.688689 -0.487659
O11   O     O_2   0.741691 0.713244 0.771805 -0.361458
O12   O     O_2   0.800262 0.160479 0.325648 -0.279090
O13   O     O_2   0.698086 0.664502 0.679966 -0.285058
O14   O     O_3   0.712392 0.570313 0.786252 -0.473895
O15   O     O_2   0.281658 0.301002 0.234397 -0.381274
O16   O     O_2   0.273941 0.437020 0.214926 -0.256456
O17   O     O_3   0.317293 0.393962 0.319528 -0.511012
O18   O     O_3   0.787601 0.073889 0.209673 -0.484589
O19   O     O_2   0.222173 0.800205 0.766508 -0.377745
O20   O     O_2   0.223827 0.937806 0.782950 -0.246768
O21   O     O_3   0.182019 0.884679 0.680763 -0.514497
O22   O     O_2   0.227499 0.218193 0.755307 -0.375694
O23   O     O_2   0.197884 0.134422 0.666456 -0.262226
O24   O     O_3   0.213759 0.075582 0.798015 -0.491538
S1    S     S_3+6 0.755251 0.148403 0.293377 -0.062239
S2    S     S_3+6 0.236611 0.874592 0.709414 -0.060054
S3    S     S_3+6 0.240765 0.141512 0.703364 -0.059940
S4    S     S_3+6 0.764278 0.880972 0.290354 -0.056916
S5    S     S_3+6 0.255907 0.647520 0.294068 -0.065391
S6    S     S_3+6 0.734531 0.389959 0.712917 -0.052445
S7    S     S_3+6 0.744425 0.647333 0.708292 -0.062302
S8    S     S_3+6 0.263816 0.376868 0.290128 -0.061408

loop_
_geom_bond_atom_site_label_1
_geom_bond_atom_site_label_2
_ccdc_geom_bond_type
N24   N31   A    
C43   N26   A    
N25   Ni7   S    
C20   N3    A    
C36   N18   A    
C64   C77   A    
C29   N11   A    
C62   C81   A    
O24   S3    S    
C74   C83   A    
C39   N21   A    
C58   C87   S    
N22   N30   A    
C66   C85   A    
C79   C87   A    
C28   N10   A    
C5    H50   S    
C4    C46   S    
C70   H26   S    
O1    S1    D    
C69   H25   S    
C76   H32   S    
O18   S1    S    
O20   S2    D    
C38   N20   A    
C8    H51   S    
C65   C79   A    
C31   C58   A    
C69   C73   A    
N3    Ni6   S    
C26   C61   A    
H61   O17   S    
C78   N31   A    
O5    S5    D    
O22   S3    D    
C9    C88   D    
C43   H17   S    
C7    H52   S    
C24   N6    A    
C75   C84   A    
C23   N23   A    
C56   N29   A    
C42   N25   A    
C30   C57   A    
N21   Ni6   S    
C4    C13   D    
N7    N16   A    
N19   Ni5   S    
C36   C47   A    
C3    H48   S    
C68   H24   S    
H58   O7    S    
C16   H43   S    
O10   S6    S    
C37   H10   S    
H57   O4    S    
C18   C53   A    
C6    C15   D    
C31   S5    S    
C70   C74   A    
C3    C11   D    
C2    H44   S    
N8    N17   A    
C64   H20   S    
C36   H9    S    
O7    S5    S    
C25   C60   A    
C18   N32   A    
C55   C81   S    
O14   S7    S    
C41   C52   A    
C72   C81   A    
C45   N28   A    
H60   O14   S    
N18   N23   A    
N4    Ni5   S    
N2    Ni6   S    
O15   S8    D    
C34   H34   S    
N16   Ni3   S    
C67   H62   S    
N12   Ni2   S    
C57   C80   S    
N19   N27   A    
C34   N27   A    
O9    S6    D    
C20   C55   A    
C52   C78   A    
O23   S3    D    
O3    S4    D    
O4    S4    S    
N29   Ni4   S    
C78   H63   S    
C39   H13   S    
C63   C80   A    
C26   H8    S    
C74   H30   S    
C20   H3    S    
C3    C44   S    
C73   H29   S    
O11   S7    D    
C68   C84   A    
C28   S2    S    
O6    S5    D    
C75   H31   S    
C7    C49   S    
C12   C46   A    
C10   C14   S    
C28   C54   A    
C25   N7    A    
N24   Ni7   S    
O2    S4    D    
C29   C55   A    
C2    C48   S    
C79   H35   S    
O13   S7    D    
C9    H37   S    
C41   H15   S    
C12   H12   S    
C42   H16   S    
C11   H39   S    
N5    Ni7   S    
C64   C83   A    
C38   C44   A    
N9    Ni2   S    
N28   Ni3   S    
C24   H6    S    
C12   N12   A    
N26   Ni8   S    
C1    C44   A    
C32   S6    S    
C66   C71   A    
C31   N14   A    
C45   C49   A    
N6    Ni8   S    
C68   C72   A    
N25   N28   A    
N15   Ni3   S    
C71   H27   S    
N12   N21   A    
C35   C61   A    
C51   C67   A    
C66   H22   S    
C37   C48   A    
C1    N1    A    
C65   H21   S    
C5    C14   D    
C4    H47   S    
N27   Ni1   S    
C13   H38   S    
C33   S7    S    
C19   C54   A    
C7    C16   D    
N17   Ni4   S    
C41   N24   A    
C77   C86   A    
C27   S1    S    
C33   C60   A    
C15   H40   S    
C39   C46   A    
C35   N17   A    
C22   H5    S    
N14   Ni4   S    
N6    N15   A    
C13   C16   S    
C33   N16   A    
C34   C48   A    
C63   H19   S    
C70   C86   A    
C8    C50   S    
C73   C82   A    
C54   C82   S    
H54   O21   S    
C30   S4    S    
C26   N8    A    
O17   S8    S    
O19   S2    D    
N18   Ni6   S    
C11   C17   S    
C1    H1    S    
C17   H42   S    
C45   H45   S    
N7    Ni8   S    
N2    N10   A    
H59   O10   S    
N13   Ni2   S    
N8    Ni7   S    
C38   H11   S    
C61   C84   S    
C69   C87   A    
N5    N14   A    
C22   C58   A    
N10   Ni1   S    
C71   C80   A    
O21   S2    S    
C27   C53   A    
C43   C50   A    
C25   H7    S    
C62   H18   S    
C22   N5    A    
N20   Ni5   S    
O16   S8    D    
C40   C51   A    
C23   H23   S    
C21   C57   A    
C72   H28   S    
C10   H36   S    
C8    C17   D    
N9    N32   A    
C53   C83   S    
O12   S1    D    
N11   Ni1   S    
O8    S6    D    
C47   C88   S    
C23   C47   A    
C9    C15   S    
C59   C86   S    
C88   H46   S    
C19   H2    S    
C35   S8    S    
C27   N9    A    
N23   Ni2   S    
C40   N22   A    
C65   C82   A    
N1    Ni1   S    
N4    N13   A    
C6    H49   S    
C24   C59   A    
C76   C85   A    
N1    N20   A    
C21   N4    A    
C62   C75   A    
C50   C56   A    
C37   N19   A    
N26   N29   A    
C77   H33   S    
C42   C49   A    
C40   H14   S    
C56   H56   S    
C29   S3    S    
N3    N11   A    
C63   C76   A    
C32   N15   A    
C19   N2    A    
N32   Ni5   S    
C5    C51   S    
C60   C85   S    
C30   N13   A    
C32   C59   A    
C6    C52   S    
N30   Ni4   S    
H53   O18   S    
C14   H41   S    
N31   Ni3   S    
C67   N30   A    
N22   Ni8   S    
H55   O24   S    
C18   H64   S    
C21   H4    S    
C2    C10   D    
