data_mof_unit_26577.cif
_audit_creation_date              2012-12-10T18:04:44-0500
_audit_creation_method            fapswitch 2.2
_symmetry_space_group_name_H-M    P1
_symmetry_Int_Tables_number       1
_space_group_crystal_system       triclinic
_cell_length_a                    19.71679
_cell_length_b                    17.650418
_cell_length_c                    12.57229
_cell_angle_alpha                 90.118865
_cell_angle_beta                  98.753903
_cell_angle_gamma                 89.856643
_cell_volume                      4324.29057088

loop_
_atom_site_label
_atom_site_type_symbol
_atom_type_description
_atom_site_fract_x
_atom_site_fract_y
_atom_site_fract_z
_atom_type_partial_charge
C1    C     C_R   0.413778 0.105369 0.445854 0.869032
C2    C     C_R   0.771377 0.770940 0.652745 0.160198
C3    C     C_3   0.527278 0.740990 0.172582 -1.004804
C4    C     C_3   0.341278 0.584965 0.509381 0.055825
C5    C     C_3   0.313641 0.508624 0.540761 -0.317348
C6    C     C_3   0.361707 0.472078 0.633112 -0.954554
C7    C     C_3   0.147457 0.253238 0.273880 0.057894
C8    C     C_3   0.083905 0.295673 0.219416 -0.290207
C9    C     C_3   0.027280 0.240990 0.172585 -1.004808
C10   C     C_R   0.212805 0.794818 0.608511 0.190795
C11   C     C_R   0.271376 0.270940 0.652745 0.160196
C12   C     C_R   0.238455 0.867442 0.601546 -0.252090
C13   C     C_R   0.334130 0.235274 0.682336 -0.263761
C14   C     C_R   0.738449 0.367446 0.601531 -0.252095
C15   C     C_R   0.834131 0.735275 0.682336 -0.263766
C16   C     C_R   0.281091 0.882825 0.526650 -0.173033
C17   C     C_R   0.371720 0.212349 0.603482 -0.165311
C18   C     C_R   0.781089 0.382827 0.526641 -0.173036
C19   C     C_R   0.408980 0.899886 0.442247 0.878657
C20   C     C_R   0.871720 0.712350 0.603481 -0.165313
C21   C     C_R   0.689035 0.173109 0.525852 -0.243359
C22   C     C_R   0.697206 0.842076 0.521796 -0.235539
C23   C     C_R   0.189035 0.673109 0.525851 -0.243354
C24   C     C_R   0.197206 0.342076 0.521796 -0.235548
C25   C     C_R   0.628613 0.213204 0.670012 -0.212921
C26   C     C_R   0.669025 0.829536 0.701262 -0.182771
C27   C     C_R   0.128621 0.713197 0.670024 -0.212931
C28   C     C_R   0.169024 0.329535 0.701262 -0.182742
C29   C     C_R   0.361976 0.837500 0.410735 -0.114628
C30   C     C_R   0.913778 0.605369 0.445854 0.869032
C31   C     C_R   0.370209 0.171360 0.415265 -0.113067
C32   C     C_R   0.861976 0.337500 0.410734 -0.114623
C33   C     C_R   0.870209 0.671359 0.415265 -0.113066
C34   C     C_R   0.642155 0.001905 0.132431 -0.235132
C35   C     C_R   0.142155 0.501908 0.132430 -0.235148
C36   C     C_R   0.379482 0.001079 0.763307 0.041185
C37   C     C_R   0.879482 0.501078 0.763307 0.041187
C38   C     C_R   0.354285 0.001919 0.860321 -0.264535
C39   C     C_R   0.854285 0.501919 0.860321 -0.264531
C40   C     C_R   0.592452 0.901715 0.558289 0.864828
C41   C     C_R   0.908980 0.399886 0.442247 0.878656
C42   C     C_R   0.589850 0.101212 0.557048 0.841424
C43   C     C_R   0.092452 0.401715 0.558289 0.864836
C44   C     C_R   0.089851 0.601211 0.557048 0.841440
C45   C     C_R   0.400222 0.001854 0.955877 -0.176636
C46   C     C_R   0.900222 0.501854 0.955877 -0.176634
C47   C     C_R   0.471947 0.001147 0.954226 0.021464
C48   C     C_R   0.971947 0.501149 0.954226 0.021462
C49   C     C_R   0.494673 0.000612 0.853414 0.176921
C50   C     C_R   0.994673 0.500614 0.853414 0.176897
C51   C     C_R   0.521675 0.000881 0.047843 -0.082322
C52   C     C_R   0.729571 0.237458 0.537224 0.082225
C53   C     C_R   0.021675 0.500883 0.047843 -0.082313
C54   C     C_R   0.593060 0.002002 0.039276 0.065884
C55   C     C_R   0.093059 0.502005 0.039276 0.065858
C56   C     C_R   0.614403 0.004126 0.938328 0.403602
C57   C     C_R   0.114402 0.504130 0.938327 0.403581
C58   C     C_R   0.564776 0.001078 0.846935 -0.351161
C59   C     C_R   0.064776 0.501080 0.846935 -0.351107
C60   C     C_R   0.503325 0.999571 0.150719 -0.035395
C61   C     C_R   0.003325 0.499571 0.150720 -0.035395
C62   C     C_R   0.620319 0.000945 0.231685 0.008533
C63   C     C_R   0.750664 0.791226 0.543447 0.076964
C64   C     C_R   0.120319 0.500946 0.231684 0.008541
C65   C     C_R   0.665385 0.280627 0.678677 -0.212349
C66   C     C_R   0.730394 0.790115 0.731124 -0.197448
C67   C     C_R   0.165394 0.780619 0.678694 -0.212311
C68   C     C_R   0.230394 0.290113 0.731123 -0.197460
C69   C     C_R   0.638083 0.161649 0.588959 -0.081466
C70   C     C_R   0.652578 0.855649 0.595455 -0.094013
C71   C     C_R   0.138085 0.661647 0.588961 -0.081494
C72   C     C_R   0.152577 0.355649 0.595455 -0.094006
C73   C     C_R   0.381402 0.782511 0.341061 -0.291587
C74   C     C_R   0.229573 0.737456 0.537229 0.082183
C75   C     C_R   0.350214 0.185988 0.305700 -0.282604
C76   C     C_R   0.881404 0.282511 0.341060 -0.291584
C77   C     C_R   0.850213 0.685987 0.305700 -0.282604
C78   C     C_R   0.354961 0.710020 0.341284 -0.219604
C79   C     C_R   0.297052 0.235496 0.272501 -0.231974
C80   C     C_R   0.854962 0.210021 0.341281 -0.219620
C81   C     C_R   0.797050 0.735494 0.272501 -0.231976
C82   C     C_R   0.309450 0.691199 0.411752 0.468761
C83   C     C_R   0.259786 0.267714 0.347139 0.467957
C84   C     C_R   0.809449 0.191200 0.411747 0.468769
C85   C     C_R   0.250664 0.291227 0.543447 0.076966
C86   C     C_R   0.759785 0.767712 0.347139 0.467957
C87   C     C_R   0.281198 0.749629 0.471760 -0.045020
C88   C     C_R   0.284353 0.260602 0.460540 -0.035114
C89   C     C_R   0.781197 0.249630 0.471755 -0.045010
C90   C     C_R   0.784353 0.760601 0.460540 -0.035113
C91   C     C_R   0.307518 0.823855 0.468527 0.044508
C92   C     C_R   0.343069 0.215137 0.493184 0.033136
C93   C     C_R   0.807517 0.323855 0.468522 0.044500
C94   C     C_R   0.843069 0.715136 0.493184 0.033137
C95   C     C_3   0.700845 0.062446 0.863762 0.090779
C96   C     C_R   0.712799 0.294823 0.608499 0.190791
C97   C     C_3   0.777853 0.077621 0.888190 -0.323777
C98   C     C_3   0.798596 0.141694 0.818492 -0.962565
C99   C     C_3   0.200843 0.562497 0.863827 0.090783
C100  C     C_3   0.277861 0.577623 0.888217 -0.323762
C101  C     C_3   0.298611 0.641732 0.818587 -0.962554
C102  C     C_3   0.841287 0.084958 0.509351 0.055816
C103  C     C_3   0.813648 0.008620 0.540741 -0.317373
C104  C     C_3   0.861721 0.972069 0.633079 -0.954550
C105  C     C_3   0.647456 0.753236 0.273877 0.057897
C106  C     C_3   0.583903 0.795672 0.219419 -0.290209
H1    H     H_    0.589043 0.204542 0.719786 0.153220
H2    H     H_    0.844345 0.501791 0.688465 0.131656
H3    H     H_    0.377912 0.002886 0.028889 0.131313
H4    H     H_    0.877912 0.502888 0.028889 0.131314
H5    H     H_    0.299500 0.002819 0.861510 0.143041
H6    H     H_    0.799500 0.502818 0.861509 0.143043
H7    H     H_    0.582368 0.998656 0.771471 0.222336
H8    H     H_    0.082370 0.498657 0.771472 0.222350
H9    H     H_    0.222545 0.913318 0.649720 0.134801
H10   H     H_    0.354502 0.225798 0.766300 0.149984
H11   H     H_    0.722537 0.413324 0.649701 0.134804
H12   H     H_    0.636475 0.842315 0.761037 0.171505
H13   H     H_    0.854503 0.725799 0.766300 0.149984
H14   H     H_    0.653855 0.323338 0.735385 0.135380
H15   H     H_    0.745303 0.773721 0.814432 0.142187
H16   H     H_    0.153868 0.823327 0.735408 0.135369
H17   H     H_    0.245302 0.273719 0.814431 0.142188
H18   H     H_    0.690990 0.135045 0.459772 0.223470
H19   H     H_    0.691913 0.875004 0.449452 0.222925
H20   H     H_    0.190987 0.635050 0.459764 0.223468
H21   H     H_    0.191913 0.375004 0.449453 0.222927
H22   H     H_    0.422145 0.793322 0.294470 0.191159
H23   H     H_    0.089054 0.704532 0.719803 0.153220
H24   H     H_    0.372904 0.155786 0.244715 0.182353
H25   H     H_    0.922147 0.293322 0.294471 0.191160
H26   H     H_    0.872903 0.655785 0.244715 0.182352
H27   H     H_    0.374333 0.666400 0.293063 0.162544
H28   H     H_    0.280719 0.244059 0.187134 0.160502
H29   H     H_    0.874333 0.166401 0.293060 0.162541
H30   H     H_    0.780718 0.744057 0.187133 0.160500
H31   H     H_    0.294521 0.941469 0.516303 0.149834
H32   H     H_    0.422647 0.190421 0.630433 0.174965
H33   H     H_    0.794520 0.441471 0.516293 0.149835
H34   H     H_    0.136474 0.342313 0.761036 0.171504
H35   H     H_    0.922647 0.690421 0.630432 0.174966
H36   H     H_    0.657274 0.001079 0.304755 0.155735
H37   H     H_    0.157274 0.501080 0.304754 0.155734
H38   H     H_    0.673092 0.115979 0.877431 0.140141
H39   H     H_    0.688405 0.045355 0.777815 0.145059
H40   H     H_    0.791991 0.093190 0.974426 0.225356
H41   H     H_    0.806333 0.025311 0.872682 0.228198
H42   H     H_    0.783397 0.127997 0.731990 0.271565
H43   H     H_    0.855087 0.149457 0.834725 0.261645
H44   H     H_    0.773494 0.195523 0.836997 0.276545
H45   H     H_    0.696717 0.002877 0.129071 0.196322
H46   H     H_    0.173121 0.616029 0.877607 0.140115
H47   H     H_    0.188366 0.545479 0.777855 0.145066
H48   H     H_    0.292034 0.593130 0.974471 0.225345
H49   H     H_    0.306309 0.525311 0.872615 0.228202
H50   H     H_    0.283388 0.628091 0.732071 0.271573
H51   H     H_    0.355105 0.649468 0.834799 0.261644
H52   H     H_    0.273534 0.695557 0.837175 0.276519
H53   H     H_    0.846864 0.122845 0.581304 0.138794
H54   H     H_    0.892619 0.076377 0.484564 0.152578
H55   H     H_    0.762432 0.017021 0.565800 0.214648
H56   H     H_    0.196717 0.502881 0.129069 0.196313
H57   H     H_    0.807543 0.969858 0.470119 0.232543
H58   H     H_    0.912326 0.959921 0.608147 0.263862
H59   H     H_    0.839279 0.918030 0.655963 0.278737
H60   H     H_    0.869043 0.010055 0.704394 0.265616
H61   H     H_    0.634305 0.722448 0.345279 0.144097
H62   H     H_    0.662772 0.711469 0.215222 0.141013
H63   H     H_    0.564360 0.833281 0.278956 0.246444
H64   H     H_    0.597904 0.831375 0.153352 0.237146
H65   H     H_    0.545192 0.704175 0.110643 0.269670
H66   H     H_    0.481924 0.773619 0.134018 0.269557
H67   H     H_    0.451091 0.998266 0.165771 0.127423
H68   H     H_    0.511850 0.704981 0.237165 0.261567
H69   H     H_    0.346836 0.622854 0.581330 0.138793
H70   H     H_    0.392619 0.576390 0.484621 0.152578
H71   H     H_    0.262419 0.517020 0.565803 0.214658
H72   H     H_    0.307548 0.469861 0.470141 0.232541
H73   H     H_    0.412315 0.459931 0.608195 0.263861
H74   H     H_    0.339263 0.418040 0.655996 0.278737
H75   H     H_    0.369020 0.510068 0.704424 0.265608
H76   H     H_    0.134305 0.222454 0.345284 0.144098
H77   H     H_    0.162773 0.211468 0.215229 0.141012
H78   H     H_    0.951091 0.498265 0.165772 0.127423
H79   H     H_    0.064362 0.333286 0.278950 0.246444
H80   H     H_    0.097907 0.331372 0.153346 0.237146
H81   H     H_    0.045193 0.204172 0.110650 0.269669
H82   H     H_    0.981926 0.273619 0.134015 0.269559
H83   H     H_    0.011850 0.204986 0.237171 0.261566
H84   H     H_    0.344345 0.001793 0.688465 0.131655
N1    N     N_R   0.552340 0.000000 0.237260 -0.115499
N2    N     N_R   0.052340 0.500000 0.237260 -0.115501
N3    N     N_R   0.448170 0.000000 0.762060 -0.118510
N4    N     N_R   0.948170 0.500000 0.762060 -0.118511
O1    O     O_R   0.448200 0.076800 0.373930 -0.612559
O2    O     O_R   0.585240 0.076800 0.457600 -0.614511
O3    O     O_R   0.085240 0.423200 0.457600 -0.627256
O4    O     O_R   0.085240 0.576800 0.457600 -0.614514
O5    O     O_R   0.551780 0.923190 0.626070 -0.628219
O6    O     O_R   0.551780 0.076810 0.626070 -0.651382
O7    O     O_R   0.051780 0.423190 0.626070 -0.628217
O8    O     O_R   0.051780 0.576810 0.626070 -0.651383
O9    O     O_3   0.684083 0.003178 0.930775 -0.650927
O10   O     O_3   0.184079 0.503184 0.930767 -0.650922
O11   O     O_3   0.795552 0.115142 0.422297 -0.679836
O12   O     O_R   0.448200 0.923200 0.373930 -0.620276
O13   O     O_3   0.700360 0.806070 0.306166 -0.674676
O14   O     O_3   0.295556 0.615141 0.422305 -0.679833
O15   O     O_3   0.200362 0.306072 0.306166 -0.674674
O16   O     O_R   0.948200 0.576800 0.373930 -0.612560
O17   O     O_R   0.948200 0.423200 0.373930 -0.620277
O18   O     O_R   0.414750 0.076790 0.542400 -0.631202
O19   O     O_R   0.414750 0.923210 0.542400 -0.607207
O20   O     O_R   0.914750 0.576790 0.542400 -0.631201
O21   O     O_R   0.914750 0.423210 0.542400 -0.607208
O22   O     O_R   0.585240 0.923200 0.457600 -0.627254
Zn1   Zn    Zn3+2 0.522330 0.000000 0.387520 0.930083
Zn2   Zn    Zn3+2 0.022330 0.500000 0.387520 0.930082
Zn3   Zn    Zn3+2 0.477660 0.000000 0.612480 0.920100
Zn4   Zn    Zn3+2 0.977660 0.500000 0.612480 0.920103

loop_
_geom_bond_atom_site_label_1
_geom_bond_atom_site_label_2
_ccdc_geom_bond_type
C99   H46   S    
C44   O4    A    
C43   C72   S    
C87   C91   A    
C99   O10   S    
C11   C13   A    
C97   H40   S    
C14   C18   A    
C106  H64   S    
C16   H31   S    
C28   H34   S    
N2    Zn2   S    
C13   H10   S    
C80   C84   A    
C9    H82   S    
C3    H65   S    
C33   C94   A    
N1    Zn1   S    
C82   O14   S    
C97   C98   S    
O19   Zn3   S    
C7    C8    S    
C47   C49   A    
C56   O9    S    
O4    Zn2   S    
C10   C67   A    
C11   C68   A    
C24   C72   A    
C80   H29   S    
C40   C70   S    
C36   H84   S    
C50   C59   A    
C1    O1    A    
C50   N4    A    
C59   H8    S    
C5    C6    S    
C41   O21   A    
C76   H25   S    
C45   H3    S    
C3    H66   S    
C57   C59   A    
C29   C73   A    
C95   O9    S    
C82   C87   A    
C1    C31   S    
C57   O10   S    
C44   C71   S    
C45   C47   A    
O8    Zn4   S    
C79   H28   S    
C36   N3    A    
C38   C45   A    
C64   N2    A    
C104  H59   S    
C53   C61   A    
C84   O11   S    
C65   C96   A    
C12   C16   A    
C28   C68   A    
C15   H13   S    
C8    C9    S    
C4    H69   S    
C95   H39   S    
C43   O7    A    
C61   N2    A    
C32   C41   S    
C90   C94   A    
C17   H32   S    
C74   C87   A    
C24   C85   A    
C81   C86   A    
C7    H76   S    
C75   H24   S    
C12   H9    S    
C48   C50   A    
C32   C93   A    
C22   C63   A    
C101  H51   S    
C95   H38   S    
O12   Zn1   S    
C49   N3    A    
C1    O18   A    
C44   O8    A    
C60   H67   S    
C97   H41   S    
C52   C89   A    
C28   C72   A    
C17   C92   A    
C62   H36   S    
C19   O12   A    
C9    H83   S    
C68   H17   S    
C14   C96   A    
C7    O15   S    
C4    O14   S    
C46   C48   A    
C53   C55   A    
C3    C106  S    
C48   C53   A    
C54   C56   A    
C103  H55   S    
C35   H56   S    
C6    H75   S    
C35   C55   A    
C102  C103  S    
C26   C66   A    
C23   C71   A    
C25   C65   A    
O22   Zn1   S    
C37   H2    S    
C86   C90   A    
C102  H54   S    
O6    Zn3   S    
C22   H19   S    
C47   C51   A    
C101  H50   S    
C2    C66   A    
C42   C69   S    
C49   C58   A    
C105  H61   S    
C21   C69   A    
C15   C20   A    
C19   O19   A    
C77   H26   S    
C86   O13   S    
C24   H21   S    
C32   C76   A    
C30   O20   A    
C78   C82   A    
C3    H68   S    
C31   C75   A    
C99   C100  S    
C77   C81   A    
C73   C78   A    
C14   H11   S    
C40   O22   A    
C66   H15   S    
O5    Zn3   S    
C43   O3    A    
C88   C92   A    
C42   O2    A    
C2    C15   A    
C5    H71   S    
C35   C64   A    
C10   C12   A    
C39   C46   A    
C100  H49   S    
C39   H6    S    
O18   Zn3   S    
C101  H52   S    
C34   C54   A    
C23   H20   S    
C27   H23   S    
C106  H63   S    
C83   O15   S    
C58   H7    S    
C25   C69   A    
C84   C89   A    
C23   C74   A    
O3    Zn2   S    
C19   C29   S    
C67   H16   S    
C29   C91   A    
C27   C71   A    
C2    C63   A    
C25   H1    S    
C81   H30   S    
C98   H44   S    
C85   C88   A    
C100  H48   S    
N3    Zn3   S    
O17   Zn2   S    
C20   C94   A    
C61   H78   S    
C30   C33   S    
C6    H74   S    
C102  O11   S    
C20   H35   S    
C76   C80   A    
O7    Zn4   S    
C4    C5    S    
C9    H81   S    
C102  H53   S    
C30   O16   A    
N4    Zn4   S    
C34   H45   S    
C95   C97   S    
C62   N1    A    
C40   O5    A    
C13   C17   A    
C8    H79   S    
C73   H22   S    
C26   H12   S    
C105  C106  S    
C103  H57   S    
O16   Zn2   S    
C105  H62   S    
C7    H77   S    
C105  O13   S    
C8    H80   S    
C37   N4    A    
C51   C54   A    
C21   H18   S    
C55   C57   A    
C37   C39   A    
C34   C62   A    
O20   Zn4   S    
O21   Zn4   S    
C36   C38   A    
C79   C83   A    
C10   C74   A    
C33   C77   A    
C104  H58   S    
C98   H42   S    
C6    H73   S    
C11   C85   A    
C60   N1    A    
C26   C70   A    
C99   H47   S    
C63   C90   A    
C42   O6    A    
C100  C101  S    
C65   H14   S    
C56   C58   A    
C52   C96   A    
C89   C93   A    
C18   H33   S    
C78   H27   S    
C64   H37   S    
C5    H72   S    
O1    Zn1   S    
C27   C67   A    
C104  H60   S    
C41   O17   A    
O2    Zn1   S    
C16   C91   A    
C31   C92   A    
C4    H70   S    
C103  C104  S    
C18   C93   A    
C46   H4    S    
C51   C60   A    
C38   H5    S    
C83   C88   A    
C75   C79   A    
C22   C70   A    
C21   C52   A    
C98   H43   S    
