data_mof_unit_17608.cif
_audit_creation_date              2013-03-05T15:49:12-0500
_audit_creation_method            fapswitch 2.2
_symmetry_space_group_name_H-M    P1
_symmetry_Int_Tables_number       1
_space_group_crystal_system       triclinic
_cell_length_a                    17.627013
_cell_length_b                    24.581498
_cell_length_c                    14.922885
_cell_angle_alpha                 89.986063
_cell_angle_beta                  126.495912
_cell_angle_gamma                 90.005564
_cell_volume                      5198.06251732

loop_
_atom_site_label
_atom_site_type_symbol
_atom_site_description
_atom_site_fract_x
_atom_site_fract_y
_atom_site_fract_z
_atom_type_partial_charge
C1    C     C_R   0.347490 0.150650 0.908033 -0.055719
C2    C     C_R   0.347801 0.849309 0.907891 -0.053573
C3    C     C_R   0.847485 0.650649 0.908034 -0.055710
C4    C     C_R   0.847780 0.349315 0.907893 -0.053577
H1    H     H_    0.299183 0.161104 0.821477 0.187167
H2    H     H_    0.299634 0.838924 0.821322 0.183636
H3    H     H_    0.799175 0.661103 0.821479 0.187157
H4    H     H_    0.799598 0.338931 0.821324 0.183527
N1    N     N_R   0.392450 0.103580 0.942190 -0.066162
N2    N     N_R   0.392450 0.896420 0.942190 -0.061628
N3    N     N_R   0.892450 0.603580 0.942190 -0.066158
N4    N     N_R   0.892450 0.396420 0.942190 -0.061548
C5    C     C_R   0.440016 0.850122 0.093503 -0.113787
C6    C     C_R   0.439652 0.149679 0.093678 -0.114183
C7    C     C_R   0.939997 0.350132 0.093509 -0.114644
C8    C     C_R   0.939648 0.649676 0.093679 -0.114198
H5    H     H_    0.479464 0.840514 0.180962 0.155721
H6    H     H_    0.478776 0.159060 0.181177 0.155134
H7    H     H_    0.979432 0.340532 0.180970 0.155048
H8    H     H_    0.978768 0.659056 0.181180 0.155139
N5    N     N_R   0.450490 0.896000 0.057360 -0.070735
N6    N     N_R   0.450490 0.104000 0.057360 -0.070741
N7    N     N_R   0.950490 0.396000 0.057360 -0.070596
N8    N     N_R   0.950490 0.604000 0.057360 -0.070736
C9    C     C_R   0.544472 0.045473 0.303125 -0.119990
C10   C     C_R   0.544471 0.954474 0.303096 -0.120579
C11   C     C_R   0.044475 0.545472 0.303126 -0.120046
C12   C     C_R   0.044474 0.454474 0.303097 -0.120600
H9    H     H_    0.555499 0.087604 0.328440 0.112946
H10   H     H_    0.555513 0.912328 0.328360 0.111717
H11   H     H_    0.055502 0.587603 0.328441 0.112952
H12   H     H_    0.055518 0.412329 0.328363 0.111496
N9    N     N_R   0.525490 0.028390 0.207550 -0.046871
N10   N     N_R   0.525490 0.971610 0.207550 -0.046821
N11   N     N_R   0.025490 0.528390 0.207550 -0.046845
N12   N     N_R   0.025490 0.471610 0.207550 -0.046785
C13   C     C_R   0.232663 0.953976 0.708354 -0.092510
C14   C     C_R   0.232747 0.046064 0.708233 -0.095997
C15   C     C_R   0.732664 0.453976 0.708349 -0.092524
C16   C     C_R   0.732749 0.546064 0.708228 -0.096043
H13   H     H_    0.214375 0.912376 0.679547 0.134314
H14   H     H_    0.214656 0.087662 0.679277 0.146794
H15   H     H_    0.714377 0.412377 0.679541 0.134296
H16   H     H_    0.714659 0.587663 0.679273 0.146810
N13   N     N_R   0.317450 0.971190 0.792000 -0.042874
N14   N     N_R   0.317450 0.028810 0.792000 -0.049237
N15   N     N_R   0.817450 0.471190 0.792000 -0.042865
N16   N     N_R   0.817450 0.528810 0.792000 -0.049237
C17   C     C_R   0.374125 0.180506 0.001694 0.182128
C18   C     C_R   0.374683 0.819294 0.001380 0.173900
C19   C     C_R   0.874118 0.680503 0.001697 0.182099
C20   C     C_R   0.874650 0.319309 0.001388 0.174398
C21   C     C_R   0.558978 0.999954 0.365856 0.041332
C22   C     C_R   0.058983 0.499954 0.365858 0.041379
C23   C     C_R   0.179326 0.000029 0.657019 0.039664
C24   C     C_R   0.679329 0.500029 0.657011 0.039637
C25   C     C_R   0.525655 0.045215 0.759672 -0.067054
C26   C     C_R   0.525416 0.954606 0.759518 -0.053806
C27   C     C_R   0.025650 0.545215 0.759666 -0.067054
C28   C     C_R   0.025411 0.454606 0.759514 -0.053818
H17   H     H_    0.534978 0.086952 0.747328 0.161205
H18   H     H_    0.534207 0.912779 0.746901 0.159975
H19   H     H_    0.034967 0.586953 0.747315 0.161188
H20   H     H_    0.034200 0.412778 0.746893 0.159960
N17   N     N_R   0.473900 0.028390 0.792280 -0.037812
N18   N     N_R   0.473900 0.971610 0.792280 -0.029858
N19   N     N_R   0.973900 0.528390 0.792280 -0.037826
N20   N     N_R   0.973900 0.471610 0.792280 -0.029855
C29   C     C_R   0.768311 0.954196 0.246969 -0.040135
C30   C     C_R   0.768332 0.045786 0.247018 -0.040828
C31   C     C_R   0.268311 0.454196 0.246969 -0.040220
C32   C     C_R   0.268333 0.545785 0.247019 -0.040799
H21   H     H_    0.792204 0.912490 0.265628 0.110712
H22   H     H_    0.792291 0.087471 0.265831 0.110553
H23   H     H_    0.292204 0.412490 0.265629 0.110643
H24   H     H_    0.292294 0.587470 0.265838 0.110507
N21   N     N_R   0.682310 0.971180 0.208170 -0.047503
N22   N     N_R   0.682310 0.028820 0.208170 -0.047005
N23   N     N_R   0.182310 0.471180 0.208170 -0.047510
N24   N     N_R   0.182310 0.528820 0.208170 -0.046973
C33   C     C_R   0.651125 0.150417 0.093441 -0.131806
C34   C     C_R   0.650487 0.849402 0.093639 -0.126021
C35   C     C_R   0.151147 0.650411 0.093442 -0.131783
C36   C     C_R   0.150492 0.349403 0.093640 -0.126440
H25   H     H_    0.695009 0.162606 0.180013 0.130108
H26   H     H_    0.694108 0.837266 0.180261 0.130691
H27   H     H_    0.195041 0.662599 0.180014 0.130081
H28   H     H_    0.194116 0.337268 0.180262 0.129837
N25   N     N_R   0.606470 0.103570 0.057210 -0.069921
N26   N     N_R   0.606470 0.896430 0.057210 -0.069675
N27   N     N_R   0.106470 0.603570 0.057210 -0.069906
N28   N     N_R   0.106470 0.396430 0.057210 -0.069611
C37   C     C_R   0.557372 0.848076 0.908739 0.446309
C38   C     C_R   0.557926 0.151642 0.908392 0.447155
C39   C     C_R   0.057375 0.348077 0.908740 0.446082
C40   C     C_R   0.057940 0.651637 0.908390 0.447071
N29   N     N_R   0.549740 0.896000 0.943240 -0.085791
N30   N     N_R   0.549740 0.104000 0.943240 -0.092495
N31   N     N_R   0.049740 0.396000 0.943240 -0.085743
N32   N     N_R   0.049740 0.604000 0.943240 -0.092473
Ni1   Ni    Ni4+2 0.433780 0.065390 0.868430 0.321279
Ni2   Ni    Ni4+2 0.433780 0.934610 0.868430 0.309608
Ni3   Ni    Ni4+2 0.933780 0.565390 0.868430 0.321302
Ni4   Ni    Ni4+2 0.933780 0.434610 0.868430 0.309649
Ni5   Ni    Ni4+2 0.565800 0.934190 0.131570 0.242063
Ni6   Ni    Ni4+2 0.565800 0.065810 0.131570 0.242321
Ni7   Ni    Ni4+2 0.065800 0.434190 0.131570 0.241489
Ni8   Ni    Ni4+2 0.065800 0.565810 0.131570 0.242350
C41   C     C_R   0.557430 0.999875 0.735789 -0.026831
C42   C     C_R   0.057425 0.499874 0.735783 -0.026771
C43   C     C_R   0.822883 0.999988 0.271884 0.109401
C44   C     C_R   0.322883 0.499988 0.271884 0.109446
C45   C     C_R   0.628119 0.180005 0.002222 0.009337
C46   C     C_R   0.627125 0.819524 0.002673 -0.008400
C47   C     C_R   0.128150 0.679994 0.002221 0.009304
C48   C     C_R   0.127133 0.319527 0.002674 -0.007544
C49   C     C_3   0.015794 0.955118 0.516685 -0.208510
C50   C     C_3   0.015731 0.044885 0.516616 -0.203317
C51   C     C_3   0.515797 0.455119 0.516681 -0.208613
C52   C     C_3   0.515735 0.544886 0.516609 -0.203258
C53   C     C_3   0.942702 0.999986 0.480698 0.375438
C54   C     C_3   0.442706 0.499987 0.480696 0.375412
H29   H     H_    0.026352 0.918779 0.567158 0.168649
H30   H     H_    0.026250 0.081225 0.567039 0.171072
H31   H     H_    0.526356 0.418780 0.567156 0.168591
H32   H     H_    0.526256 0.581227 0.567031 0.171053
C55   C     C_3   0.920886 0.999984 0.364723 0.017682
C56   C     C_3   0.420886 0.499984 0.364718 0.017721
C57   C     C_3   0.993730 0.955069 0.399646 -0.149376
C58   C     C_3   0.993670 0.044931 0.399576 -0.142004
C59   C     C_3   0.493730 0.455068 0.399640 -0.149391
C60   C     C_3   0.493671 0.544930 0.399568 -0.142099
C61   C     C_3   0.068745 0.000015 0.436544 -0.064172
C62   C     C_3   0.568745 0.500014 0.436534 -0.064206
C63   C     C_3   0.088348 0.000019 0.551338 0.084350
C64   C     C_3   0.588351 0.500019 0.551330 0.084454
H33   H     H_    0.982339 0.918730 0.348835 0.197157
H34   H     H_    0.982229 0.081267 0.348701 0.197023
H35   H     H_    0.482337 0.418729 0.348830 0.197130
H36   H     H_    0.482229 0.581265 0.348690 0.197010
H37   H     H_    0.124011 0.000027 0.422650 0.147555
H38   H     H_    0.624009 0.500024 0.422638 0.147494
C65   C     C_3   0.222336 0.808168 0.961476 -0.581999
C66   C     C_3   0.221417 0.191587 0.960913 -0.578262
C67   C     C_3   0.722277 0.308175 0.961414 -0.582205
C68   C     C_3   0.721406 0.691585 0.960903 -0.578181
H39   H     H_    0.237192 0.841732 0.020100 0.204009
H40   H     H_    0.235872 0.157582 0.018551 0.203257
H41   H     H_    0.737095 0.341753 0.019995 0.204054
H42   H     H_    0.735853 0.657578 0.018533 0.203091
H43   H     H_    0.189339 0.827846 0.878908 0.232487
H44   H     H_    0.188553 0.172492 0.877879 0.234973
H45   H     H_    0.689294 0.327833 0.878831 0.232476
H46   H     H_    0.688545 0.672494 0.877867 0.234975
C69   C     C_3   0.650867 0.269678 0.952762 -0.309467
C70   C     C_3   0.650032 0.729867 0.952912 -0.310778
C71   C     C_3   0.150922 0.769674 0.952824 -0.309546
C72   C     C_3   0.150043 0.229868 0.952924 -0.310450
H47   H     H_    0.092108 0.764922 0.863432 0.261956
H48   H     H_    0.091006 0.234693 0.863694 0.263875
H49   H     H_    0.592078 0.264907 0.863367 0.261969
H50   H     H_    0.591000 0.734696 0.863681 0.264011
H51   H     H_    0.621725 0.287810 0.994845 0.230188
H52   H     H_    0.621181 0.711468 0.995122 0.225533
H53   H     H_    0.121816 0.787797 0.994955 0.230167
H54   H     H_    0.121200 0.211471 0.995142 0.226260
H55   H     H_    0.867753 0.295584 0.175057 0.042032
H56   H     H_    0.866186 0.703372 0.175052 0.042114
H57   H     H_    0.367860 0.795523 0.175092 0.041882
H58   H     H_    0.366204 0.203384 0.175055 0.042218
H59   H     H_    0.765787 0.245567 0.174699 0.159003
H60   H     H_    0.764200 0.753434 0.174901 0.158620
H61   H     H_    0.265896 0.745510 0.174736 0.158948
H62   H     H_    0.264223 0.253447 0.174909 0.158812
C73   C     C_3   0.858936 0.258698 0.126447 0.423451
C74   C     C_3   0.857855 0.740505 0.127244 0.423031
C75   C     C_3   0.359002 0.758651 0.126428 0.423680
C76   C     C_3   0.357868 0.240514 0.127238 0.423006
C77   C     C_3   0.290867 0.726805 0.924075 0.547368
C78   C     C_3   0.290976 0.273285 0.925831 0.549377
C79   C     C_3   0.790891 0.226805 0.924149 0.547279
C80   C     C_3   0.790980 0.773285 0.925847 0.549309
C81   C     C_3   0.315664 0.777397 0.002977 -0.059850
C82   C     C_3   0.315062 0.222313 0.003611 -0.060188
C83   C     C_3   0.815632 0.277415 0.002989 -0.059741
C84   C     C_3   0.815055 0.722310 0.003616 -0.060164
C85   C     C_3   0.697780 0.214447 0.005168 0.076880
C86   C     C_3   0.696892 0.785039 0.005808 0.078071
C87   C     C_3   0.197814 0.714431 0.005163 0.076808
C88   C     C_3   0.196900 0.285042 0.005806 0.077896
C89   C     C_3   0.786754 0.224181 0.126630 -0.469397
C90   C     C_3   0.785539 0.774963 0.127326 -0.466674
C91   C     C_3   0.286822 0.724133 0.126618 -0.469468
C92   C     C_3   0.285554 0.274973 0.127322 -0.466682
C93   C     C_3   0.730467 0.186517 0.938579 0.041565
C94   C     C_3   0.730030 0.813262 0.939916 0.046737
C95   C     C_3   0.230445 0.686515 0.938504 0.042029
C96   C     C_3   0.230026 0.313263 0.939900 0.046639
H63   H     H_    0.167293 0.675694 0.854712 0.156872
H64   H     H_    0.167024 0.324120 0.855934 0.155279
H65   H     H_    0.667337 0.175672 0.854783 0.156884
H66   H     H_    0.667033 0.824123 0.855949 0.155279
H67   H     H_    0.818772 0.185028 0.170200 0.234318
H68   H     H_    0.817617 0.813997 0.171369 0.234283
H69   H     H_    0.318823 0.684968 0.170140 0.234420
H70   H     H_    0.317629 0.314009 0.171355 0.234243
C97   C     C_3   0.620221 0.050816 0.646074 -0.343531
C98   C     C_3   0.619746 0.948789 0.645732 -0.346854
C99   C     C_3   0.120223 0.550815 0.646075 -0.343460
C100  C     C_3   0.119742 0.448787 0.645729 -0.346810
H71   H     H_    0.586336 0.089059 0.645238 0.190283
H72   H     H_    0.585636 0.910637 0.644867 0.188095
H73   H     H_    0.086340 0.589058 0.645240 0.190283
H74   H     H_    0.085629 0.410637 0.644861 0.188087
H75   H     H_    0.694096 0.050934 0.723265 0.211141
H76   H     H_    0.693676 0.948491 0.722815 0.210508
H77   H     H_    0.194097 0.550931 0.723267 0.211190
H78   H     H_    0.193671 0.448488 0.722813 0.210503
C101  C     C_3   0.619746 0.050929 0.542555 -0.355764
C102  C     C_3   0.619039 0.948648 0.542056 -0.360134
C103  C     C_3   0.119751 0.550927 0.542558 -0.355784
C104  C     C_3   0.119038 0.448647 0.542055 -0.360286
H79   H     H_    0.693438 0.051471 0.568578 0.210743
H80   H     H_    0.692662 0.947700 0.567884 0.208491
H81   H     H_    0.193444 0.551469 0.568584 0.210756
H82   H     H_    0.192662 0.447697 0.567885 0.208443
H83   H     H_    0.584697 0.088952 0.495292 0.175537
H84   H     H_    0.583315 0.910809 0.494467 0.174138
H85   H     H_    0.084704 0.588951 0.495297 0.175544
H86   H     H_    0.083313 0.410808 0.494464 0.174111
H87   H     H_    0.425394 0.036546 0.531561 0.184741
H88   H     H_    0.425145 0.963589 0.531235 0.180583
H89   H     H_    0.925394 0.536548 0.531556 0.184711
H90   H     H_    0.925141 0.463592 0.531228 0.180582
H91   H     H_    0.426193 0.036798 0.381530 0.173382
H92   H     H_    0.425623 0.963746 0.380965 0.172361
H93   H     H_    0.926197 0.536801 0.381529 0.173308
H94   H     H_    0.925624 0.463748 0.380960 0.172366
C105  C     C_3   0.464413 0.000044 0.534812 -0.362992
C106  C     C_3   0.964412 0.500046 0.534807 -0.363043
C107  C     C_3   0.566918 0.999878 0.644003 0.291010
C108  C     C_3   0.066916 0.499878 0.643999 0.291000
C109  C     C_3   0.566774 0.999919 0.469563 0.302285
C110  C     C_3   0.066777 0.499919 0.469564 0.302386
C111  C     C_3   0.464530 0.000147 0.433098 -0.395312
C112  C     C_3   0.964532 0.500148 0.433095 -0.395344
Br1   Br    Br    0.402632 0.693891 0.947827 -0.295783
Br2   Br    Br    0.403406 0.306604 0.951992 -0.307085
Br3   Br    Br    0.902700 0.193899 0.947997 -0.292969
Br4   Br    Br    0.903419 0.806603 0.952028 -0.307001
Br5   Br    Br    0.213066 0.745118 0.764206 -0.476854
Br6   Br    Br    0.214378 0.255631 0.765762 -0.500082
Br7   Br    Br    0.713130 0.245082 0.764266 -0.477071
Br8   Br    Br    0.714391 0.755637 0.765776 -0.499950
Br9   Br    Br    0.784987 0.113877 0.996863 -0.458738
Br10  Br    Br    0.784259 0.885906 0.998950 -0.459900
Br11  Br    Br    0.284913 0.613855 0.996676 -0.458805
Br12  Br    Br    0.284251 0.385909 0.998918 -0.459887
S1    S     S_3+6 0.975273 0.226881 0.207971 -0.023613
O1    O     O_2   0.021652 0.239649 0.328659 -0.278234
O2    O     O_2   0.968044 0.166166 0.194001 -0.222984
O3    O     O_3   0.044845 0.250397 0.174047 -0.534006
H95   H     H_    0.106159 0.231696 0.225544 0.380264
S2    S     S_3+6 0.974330 0.772183 0.210123 -0.024704
O4    O     O_2   0.967356 0.832965 0.197299 -0.224367
O5    O     O_2   0.019979 0.758796 0.330410 -0.282251
O6    O     O_3   0.044502 0.749167 0.176705 -0.529523
H96   H     H_    0.106644 0.766385 0.231238 0.379059
S3    S     S_3+6 0.475321 0.726813 0.207861 -0.023734
O7    O     O_2   0.521782 0.739481 0.328601 -0.275578
O8    O     O_2   0.467985 0.666106 0.193688 -0.225408
O9    O     O_3   0.544893 0.750390 0.173982 -0.534546
H97   H     H_    0.604564 0.729577 0.221407 0.381155
S4    S     S_3+6 0.474341 0.272194 0.210102 -0.024749
O10   O     O_2   0.467362 0.332975 0.197265 -0.224368
O11   O     O_2   0.519998 0.258814 0.330393 -0.282332
O12   O     O_3   0.544505 0.249173 0.176678 -0.529530
H98   H     H_    0.606648 0.266393 0.231200 0.379054
S5    S     S_3+6 0.464621 0.819865 0.778886 -0.073863
O13   O     O_2   0.498226 0.806819 0.709456 -0.304889
O14   O     O_2   0.429863 0.768681 0.798240 -0.238779
O15   O     O_3   0.374852 0.864334 0.708771 -0.584735
H99   H     H_    0.323500 0.844214 0.642232 0.388221
S6    S     S_3+6 0.465635 0.179735 0.777980 -0.080586
O16   O     O_2   0.499242 0.191105 0.707939 -0.312385
O17   O     O_2   0.384342 0.140579 0.716730 -0.324200
O18   O     O_3   0.428264 0.238055 0.797987 -0.499103
H100  H     H_    0.378698 0.251705 0.722118 0.410165
S7    S     S_3+6 0.964617 0.319859 0.778900 -0.073838
O19   O     O_2   0.998211 0.306806 0.709461 -0.304862
O20   O     O_2   0.929869 0.268678 0.798278 -0.238828
O21   O     O_3   0.874846 0.364326 0.708785 -0.584725
H101  H     H_    0.823489 0.344203 0.642256 0.388212
S8    S     S_3+6 0.965643 0.679741 0.777993 -0.080434
O22   O     O_2   0.999230 0.691118 0.707935 -0.312226
O23   O     O_2   0.884343 0.640590 0.716745 -0.324134
O24   O     O_3   0.928292 0.738060 0.798034 -0.499062
H102  H     H_    0.878723 0.751717 0.722173 0.410285
Br13  Br    Br    0.853567 0.999954 0.517026 -0.569717
Br14  Br    Br    0.353575 0.499957 0.517029 -0.569886

loop_
_geom_bond_atom_site_label_1
_geom_bond_atom_site_label_2
_geom_bond_distance
_ccdc_geom_bond_type
C66   C82   1.565271 S    
C35   H27   1.081002 S    
C32   C44   1.380297 A    
N4    N7    1.381674 A    
C88   C96   1.572318 S    
O15   H99   0.990415 S    
C75   C91   1.530626 S    
H58   C76   1.113018 S    
S6    O16   1.502608 D    
C9    C21   1.381475 A    
N4    Ni4   1.891254 S    
C97   C107  1.554609 S    
C39   N31   1.324260 A    
C103  H81   1.112781 S    
S4    O10   1.501999 D    
C95   H63   1.103553 S    
C68   H42   1.114643 S    
C25   C41   1.385890 A    
C14   C23   1.376763 A    
O9    H97   0.991665 S    
N25   Ni6   1.884806 S    
C30   H22   1.079901 S    
N27   N32   1.367328 A    
C4    N4    1.320395 A    
C98   H76   1.112797 S    
C65   H43   1.112531 S    
C89   H67   1.109446 S    
N27   Ni8   1.884806 S    
N14   Ni1   1.879433 S    
N2    N5    1.381674 A    
C9    H9    1.079748 S    
C11   H11   1.079751 S    
C12   H12   1.079769 S    
C98   C107  1.554548 S    
C100  C108  1.554547 S    
C12   C22   1.381283 A    
C11   N11   1.324794 A    
N13   N14   1.416388 A    
C99   H73   1.109903 S    
C17   C82   1.475290 S    
C42   C108  1.475325 S    
C15   C24   1.376719 A    
C68   H46   1.112500 S    
C98   H72   1.109895 S    
N7    Ni7   1.887222 S    
C90   H68   1.109265 S    
C5    N5    1.309556 A    
C50   H30   1.110345 S    
C80   Br8   1.970052 S    
C57   C61   1.551203 S    
C78   Br2   1.957123 S    
H62   C92   1.114913 S    
S3    O8    1.501955 D    
C13   N13   1.323565 A    
C58   H34   1.110155 S    
C96   Br12  1.969068 S    
C15   N15   1.323566 A    
C87   C95   1.572335 S    
C16   N16   1.323425 A    
C79   C83   1.585041 S    
N15   Ni4   1.879358 S    
C10   N10   1.324614 A    
S6    O18   1.677082 S    
N9    Ni6   1.895858 S    
C36   H28   1.081067 S    
N26   Ni5   1.885140 S    
S1    O2    1.501886 D    
C15   H15   1.081522 S    
C25   H17   1.072114 S    
C93   H65   1.103579 S    
C35   N27   1.316023 A    
C27   H19   1.072119 S    
C51   C64   1.527921 S    
N22   Ni6   1.886407 S    
C28   H20   1.073073 S    
C99   H77   1.112790 S    
N6    Ni6   1.887151 S    
C37   C46   1.385219 A    
S5    O14   1.500645 D    
C37   S5    1.772207 S    
C78   C96   1.559720 S    
N13   Ni2   1.879358 S    
C47   C87   1.470412 S    
C57   H33   1.110113 S    
C60   C62   1.551186 S    
C61   C63   1.532919 S    
C69   C85   1.539175 S    
C78   C82   1.584491 S    
C100  C104  1.539752 S    
C29   N21   1.327987 A    
C8    C19   1.380665 A    
N17   Ni1   1.890842 S    
C31   N23   1.327985 A    
N19   Ni3   1.890842 S    
H60   C90   1.114915 S    
C72   C88   1.539283 S    
C2    C18   1.388696 A    
C27   N19   1.329649 A    
C74   S2    1.825074 S    
S2    O4    1.501996 D    
C51   C59   1.547165 S    
C49   C57   1.547167 S    
C36   C48   1.373737 A    
O12   H98   0.990437 S    
C97   H71   1.109906 S    
H57   C75   1.112945 S    
C24   C64   1.431945 S    
C38   C45   1.384589 A    
C102  C109  1.556110 S    
C91   H69   1.109454 S    
C35   C47   1.374542 A    
C3    N3    1.321370 A    
C71   H53   1.113928 S    
C69   H51   1.113928 S    
N16   Ni3   1.879433 S    
C67   C83   1.565288 S    
C55   C57   1.530793 S    
C39   C48   1.385216 A    
C31   C44   1.380284 A    
S7    O19   1.502499 D    
C105  C107  1.554875 S    
H90   C106  1.113984 S    
C28   N20   1.329121 A    
C10   H10   1.079772 S    
C33   C45   1.374543 A    
C56   C59   1.530794 S    
C37   N29   1.324262 A    
H55   C73   1.112955 S    
H56   C74   1.113019 S    
C21   C109  1.470033 S    
C75   S3    1.824616 S    
C96   H64   1.104176 S    
O6    H96   0.990437 S    
O3    H95   0.990909 S    
N24   Ni8   1.886408 S    
C5    H5    1.078442 S    
N25   N30   1.367328 A    
C86   C90   1.555837 S    
C6    N6    1.309395 A    
S6    O17   1.502464 D    
C80   Br4   1.957123 S    
C66   H44   1.112500 S    
C19   C84   1.475286 S    
C78   Br6   1.970052 S    
S2    O6    1.683076 S    
C40   N32   1.323507 A    
N2    Ni2   1.891254 S    
C110  C112  1.541974 S    
S4    O11   1.503158 D    
C39   S7    1.772196 S    
C13   H13   1.081524 S    
C67   H41   1.114634 S    
C14   N14   1.323426 A    
C59   H35   1.110111 S    
C5    C18   1.381123 A    
C13   C23   1.376721 A    
C87   C91   1.555964 S    
C16   H16   1.081649 S    
C104  H86   1.110991 S    
C36   N28   1.316076 A    
C94   H66   1.104174 S    
C33   H25   1.081003 S    
N28   N31   1.367333 A    
C9    N9    1.324796 A    
C26   H18   1.073064 S    
C106  C112  1.519091 S    
C93   Br9   1.968164 S    
S4    O12   1.683075 S    
C99   C103  1.539841 S    
N11   N12   1.395735 A    
C59   C62   1.551205 S    
N21   N22   1.416878 A    
C69   H49   1.105844 S    
C7    H7    1.078434 S    
C76   C92   1.531156 S    
C1    H1    1.072875 S    
C53   C55   1.533460 S    
C3    H3    1.072875 S    
S8    O22   1.502605 D    
C52   H32   1.110346 S    
C38   N30   1.323512 A    
C45   C85   1.470405 S    
S7    O21   1.680431 S    
C46   C86   1.471364 S    
C102  H84   1.110990 S    
C80   C84   1.584485 S    
C6    H6    1.078292 S    
C16   C24   1.376758 A    
H88   C105  1.113984 S    
S5    O13   1.502502 D    
C29   H21   1.079997 S    
N8    Ni8   1.887151 S    
N26   N29   1.367333 A    
N29   Ni2   1.900153 S    
C66   H40   1.114645 S    
C33   N25   1.316016 A    
N31   Ni4   1.900153 S    
C71   H47   1.105859 S    
S3    O7    1.503021 D    
C72   H48   1.105314 S    
C70   C86   1.539285 S    
N19   N20   1.395735 A    
C1    N1    1.321369 A    
S8    O24   1.677079 S    
C3    C19   1.390137 A    
C75   C81   1.586001 S    
N32   Ni3   1.900228 S    
C32   N24   1.328000 A    
C52   C64   1.527850 S    
C65   C81   1.565289 S    
C50   C58   1.547190 S    
C73   C83   1.585992 S    
C77   Br5   1.970459 S    
O18   H100  0.990448 S    
C41   C107  1.475331 S    
H94   C112  1.114348 S    
C97   H75   1.112790 S    
N23   Ni7   1.886483 S    
C7    C20   1.381107 A    
C79   Br7   1.970444 S    
C51   H31   1.110347 S    
H61   C91   1.114945 S    
C58   C61   1.551181 S    
C72   H54   1.113898 S    
N10   Ni5   1.896193 S    
H92   C111  1.114346 S    
C68   C84   1.565275 S    
N20   Ni4   1.890510 S    
C25   N17   1.329654 A    
C60   H36   1.110157 S    
N30   Ni1   1.900228 S    
C94   Br10  1.969069 S    
C61   H37   1.110081 S    
C34   N26   1.316074 A    
C105  C111  1.519095 S    
N21   Ni5   1.886484 S    
C34   H26   1.081065 S    
C53   Br13  1.943126 S    
H93   C112  1.114344 S    
C54   Br14  1.943125 S    
C54   C56   1.533459 S    
C79   C93   1.560154 S    
C40   S8    1.773240 S    
C44   C56   1.434114 S    
C28   C42   1.385462 A    
C30   C43   1.380299 A    
C101  H79   1.112782 S    
C12   N12   1.324614 A    
S2    O5    1.503158 D    
S3    O9    1.683055 S    
C103  H85   1.110947 S    
C101  H83   1.110947 S    
N5    Ni5   1.887222 S    
C50   C63   1.527849 S    
C98   C102  1.539753 S    
C31   H23   1.079996 S    
C30   N22   1.327998 A    
C26   C41   1.385458 A    
O24   H102  0.990448 S    
N18   Ni2   1.890510 S    
C18   C81   1.474030 S    
C4    H4    1.072544 S    
S1    O3    1.683039 S    
C11   C22   1.381472 A    
C65   H39   1.114634 S    
C4    C20   1.388708 A    
O21   H101  0.990416 S    
H89   C106  1.113962 S    
C14   H14   1.081647 S    
C73   C89   1.530601 S    
N1    N6    1.381679 A    
C74   C90   1.531155 S    
C6    C17   1.380672 A    
C62   H38   1.110079 S    
C104  H82   1.112789 S    
N3    N8    1.381679 A    
C27   C42   1.385896 A    
H87   C105  1.113963 S    
S5    O15   1.680431 S    
C49   C53   1.530269 S    
N11   Ni8   1.895858 S    
C26   N18   1.329127 A    
C109  C111  1.541973 S    
C40   C47   1.384594 A    
C85   C89   1.555948 S    
C8    H8    1.078291 S    
C67   H45   1.112529 S    
C76   S4    1.825067 S    
C7    N7    1.309522 A    
C70   H50   1.105311 S    
C8    N8    1.309387 A    
N12   Ni7   1.896193 S    
C2    H2    1.072529 S    
C56   C60   1.530845 S    
C52   C54   1.530299 S    
C65   C71   1.517615 S    
C77   C81   1.585070 S    
C92   H70   1.109268 S    
H59   C89   1.114946 S    
C34   C46   1.373739 A    
C95   Br11  1.968156 S    
C104  C110  1.556108 S    
C62   C64   1.532919 S    
C77   C95   1.560156 S    
C100  H74   1.109893 S    
C50   C53   1.530299 S    
C22   C110  1.470030 S    
N28   Ni7   1.885140 S    
N15   N16   1.416388 A    
C106  C108  1.554874 S    
N9    N10   1.395735 A    
C32   H24   1.079897 S    
C86   C94   1.572318 S    
C43   C55   1.434117 S    
C80   C94   1.559715 S    
C20   C83   1.474004 S    
C66   C72   1.517989 S    
S1    O1    1.503098 D    
C2    N2    1.320392 A    
C10   C21   1.381286 A    
C102  H80   1.112789 S    
C38   S6    1.773232 S    
C51   C54   1.530266 S    
C48   C88   1.471367 S    
C85   C93   1.572351 S    
C52   C60   1.547188 S    
C99   C108  1.554611 S    
C77   Br1   1.957300 S    
C74   C84   1.586668 S    
C97   C101  1.539841 S    
C100  H78   1.112797 S    
C49   H29   1.110348 S    
C55   C58   1.530843 S    
C79   Br3   1.957315 S    
S8    O23   1.502464 D    
C29   C43   1.380288 A    
C23   C63   1.431944 S    
S7    O20   1.500654 D    
C101  C109  1.556006 S    
C71   C87   1.539167 S    
C88   C92   1.555836 S    
N23   N24   1.416878 A    
C67   C69   1.517613 S    
C68   C70   1.517990 S    
C70   H52   1.113901 S    
N1    Ni1   1.891592 S    
N17   N18   1.395735 A    
N3    Ni3   1.891592 S    
C1    C17   1.390130 A    
H91   C111  1.114345 S    
C76   C82   1.586667 S    
C73   S1    1.824615 S    
C103  C110  1.556008 S    
C49   C63   1.527920 S    
