data_mof_unit_6777.cif
_audit_creation_date              2012-12-10T20:35:46-0500
_audit_creation_method            fapswitch 2.2
_symmetry_space_group_name_H-M    P1
_symmetry_Int_Tables_number       1
_space_group_crystal_system       triclinic
_cell_length_a                    15.728576
_cell_length_b                    10.669866
_cell_length_c                    9.849834
_cell_angle_alpha                 90.013679
_cell_angle_beta                  89.859775
_cell_angle_gamma                 89.991887
_cell_volume                      1653.01184039

loop_
_atom_site_label
_atom_site_type_symbol
_atom_type_description
_atom_site_fract_x
_atom_site_fract_y
_atom_site_fract_z
_atom_type_partial_charge
C1    C     C_R   0.502731 0.259878 0.500036 0.874407
C2    C     C_3   0.950767 0.433324 0.633434 -0.215853
C3    C     C_3   0.917227 0.501824 0.503283 0.236546
C4    C     C_3   0.950694 0.639020 0.496537 0.377439
C5    C     C_3   0.049301 0.637240 0.499195 -0.455879
C6    C     C_1   0.825706 0.501082 0.500687 -0.074250
C7    C     C_1   0.173954 0.500430 0.501971 -0.089876
C8    C     C_1   0.249300 0.500201 0.500916 -0.206557
C9    C     C_R   0.515957 0.063901 0.623448 0.136890
C10   C     C_R   0.516793 0.128560 0.500732 -0.103852
C11   C     C_R   0.534450 0.064766 0.379354 -0.233579
C12   C     C_R   0.338224 0.499985 0.500243 0.912006
C13   C     C_R   0.534659 0.935137 0.379387 -0.230374
C14   C     C_R   0.517139 0.871360 0.500780 -0.102382
C15   C     C_R   0.516194 0.936089 0.623494 0.125022
C16   C     C_3   0.455005 0.928769 0.739663 -0.476417
C17   C     C_3   0.454614 0.070840 0.739433 -0.492841
C18   C     C_R   0.458054 0.408383 0.071409 0.214024
C19   C     C_R   0.548015 0.583077 0.071868 -0.139471
C20   C     C_R   0.548005 0.583108 0.927756 -0.132803
C21   C     C_R   0.458015 0.408438 0.928770 0.214273
C22   C     C_3   0.365108 0.381254 0.923483 -0.516047
C23   C     C_R   0.502917 0.740092 0.500015 0.876881
C24   C     C_3   0.365202 0.380977 0.077629 -0.508649
C25   C     C_R   0.661703 0.500105 0.499796 0.900412
C26   C     C_3   0.049574 0.435553 0.633733 -0.446813
C27   C     C_3   0.048993 0.429392 0.377222 -0.400575
C28   C     C_3   0.950946 0.429360 0.377345 -0.399932
C29   C     C_1   0.750462 0.500590 0.499638 -0.183711
C30   C     C_3   0.082493 0.500605 0.503184 0.289722
H1    H     H_    0.932687 0.332774 0.622130 0.140133
H2    H     H_    0.075722 0.483334 0.724730 0.176531
H3    H     H_    0.541991 0.113838 0.283796 0.169459
H4    H     H_    0.542337 0.886019 0.283853 0.166469
H5    H     H_    0.392864 0.887010 0.710576 0.202762
H6    H     H_    0.484642 0.887998 0.832016 0.201620
H7    H     H_    0.392287 0.111680 0.709857 0.196776
H8    H     H_    0.483846 0.112276 0.831781 0.202371
H9    H     H_    0.585406 0.651721 0.126211 0.142703
H10   H     H_    0.073958 0.337596 0.637699 0.166899
H11   H     H_    0.585364 0.651794 0.873162 0.149057
H12   H     H_    0.327717 0.459708 0.879408 0.222575
H13   H     H_    0.351632 0.287673 0.879004 0.195632
H14   H     H_    0.327759 0.459170 0.122451 0.222696
H15   H     H_    0.352056 0.287149 0.121968 0.199049
H16   H     H_    0.072661 0.474681 0.282560 0.185057
H17   H     H_    0.072692 0.331060 0.377604 0.167408
H18   H     H_    0.927410 0.330943 0.378603 0.152832
H19   H     H_    0.927319 0.472544 0.281728 0.220979
H20   H     H_    0.072350 0.689816 0.589464 0.119958
H21   H     H_    0.075249 0.685905 0.408054 0.195282
H22   H     H_    0.926558 0.689393 0.588021 0.037887
N1    N     N_R   0.499430 0.499140 0.142800 -0.105323
N2    N     N_R   0.499430 0.499180 0.857150 -0.105282
O1    O     O_R   0.500010 0.316790 0.614690 -0.616670
O2    O     O_R   0.500000 0.316760 0.385350 -0.624325
O3    O     O_R   0.377150 0.500020 0.614720 -0.616501
O4    O     O_R   0.377140 0.499990 0.385380 -0.612917
O5    O     O_R   0.500000 0.683240 0.614650 -0.620325
O6    O     O_R   0.499990 0.683210 0.385310 -0.624765
O7    O     O_R   0.622860 0.500010 0.614620 -0.613680
O8    O     O_R   0.622850 0.499980 0.385280 -0.618436
Zn1   Zn    Zn3+2 0.500010 0.500020 0.653130 0.941126
Zn2   Zn    Zn3+2 0.499990 0.499980 0.346870 0.938650
C31   C     C_R   0.910774 0.478548 0.766801 0.147018
C32   C     C_R   0.938319 0.587965 0.834110 -0.173003
C33   C     C_R   0.899848 0.626148 0.955409 -0.133766
C34   C     C_R   0.833242 0.556543 0.011111 -0.117715
C35   C     C_R   0.805004 0.448320 0.945662 -0.135042
C36   C     C_R   0.843530 0.409276 0.824717 -0.144540
H23   H     H_    0.989794 0.644035 0.794153 0.110440
H24   H     H_    0.921788 0.709958 0.006235 0.142983
H25   H     H_    0.803545 0.586460 0.104966 0.148561
H26   H     H_    0.753140 0.394575 0.988622 0.132355
H27   H     H_    0.820196 0.325303 0.775544 0.113238
O9    O     O_3   0.921983 0.696542 0.374776 -0.609318
C37   C     C_3   0.908044 0.826035 0.394660 0.091620
H28   H     H_    0.965518 0.872418 0.437412 0.127769
H29   H     H_    0.853008 0.840927 0.464115 0.140399
C38   C     C_3   0.887692 0.886825 0.258996 -0.848627
H30   H     H_    0.830971 0.841616 0.213184 0.252978
H31   H     H_    0.874370 0.988106 0.274003 0.205450
H32   H     H_    0.942632 0.876701 0.188827 0.245753

loop_
_geom_bond_atom_site_label_1
_geom_bond_atom_site_label_2
_ccdc_geom_bond_type
C26   H2    S    
C18   C21   A    
C19   C20   A    
C2    C31   S    
C26   H10   S    
C20   H11   S    
C7    C8    T    
C37   H28   S    
C23   O5    A    
C4    H22   S    
C18   C24   S    
C24   H15   S    
C3    C28   S    
C1    O2    A    
C16   H5    S    
C21   N2    A    
C38   H30   S    
N1    Zn2   S    
N2    Zn1   S    
C15   C16   S    
C33   H24   S    
O7    Zn1   S    
O8    Zn2   S    
C18   N1    A    
C32   H23   S    
C16   C17   S    
O1    Zn1   S    
O2    Zn2   S    
C9    C10   A    
C25   O8    A    
C12   O4    A    
C3    C6    S    
C32   C33   A    
C7    C30   S    
C13   C14   A    
C27   C30   S    
C25   C29   S    
C38   H32   S    
O3    Zn1   S    
C37   H29   S    
O4    Zn2   S    
C23   O6    A    
C33   C34   A    
C11   H3    S    
O9    C37   S    
C38   H31   S    
C34   C35   A    
C17   H7    S    
C34   H25   S    
C2    H1    S    
C14   C23   S    
C28   H19   S    
C22   H13   S    
C8    C12   S    
C35   H26   S    
C2    C26   S    
C25   O7    A    
C9    C17   S    
C19   H9    S    
C12   O3    A    
C27   H16   S    
C20   N2    A    
C26   C30   S    
C24   H14   S    
C22   C24   S    
C5    H20   S    
C3    C4    S    
C36   H27   S    
C5    C30   S    
C37   C38   S    
C27   H17   S    
C28   H18   S    
C1    C10   S    
C4    C5    S    
O5    Zn1   S    
O6    Zn2   S    
C2    C3    S    
C1    O1    A    
C13   H4    S    
C16   H6    S    
C11   C13   A    
C19   N1    A    
C22   H12   S    
C17   H8    S    
C9    C15   A    
C35   C36   A    
C4    O9    S    
C10   C11   A    
C6    C29   T    
C31   C32   A    
C27   C28   S    
C14   C15   A    
C5    H21   S    
C21   C22   S    
C31   C36   A    
