data_mof_unit_10729.cif
_audit_creation_date              2012-12-10T20:28:46-0500
_audit_creation_method            fapswitch 2.2
_symmetry_space_group_name_H-M    P1
_symmetry_Int_Tables_number       1
_space_group_crystal_system       triclinic
_cell_length_a                    10.652253
_cell_length_b                    10.693957
_cell_length_c                    9.834815
_cell_angle_alpha                 89.393641
_cell_angle_beta                  88.762659
_cell_angle_gamma                 90.852454
_cell_volume                      1119.87852033

loop_
_atom_site_label
_atom_site_type_symbol
_atom_type_description
_atom_site_fract_x
_atom_site_fract_y
_atom_site_fract_z
_atom_type_partial_charge
C1    C     C_R   0.503964 0.259722 0.500207 0.909390
C2    C     C_R   0.542733 0.937039 0.374392 -0.229826
C3    C     C_R   0.526640 0.871459 0.497828 -0.099459
C4    C     C_R   0.261612 0.520005 0.501574 0.877921
C5    C     C_R   0.534242 0.934601 0.620429 0.131707
C6    C     C_3   0.451783 0.923492 0.744896 -0.495170
C7    C     C_3   0.449270 0.064718 0.744372 -0.499899
C8    C     C_R   0.462220 0.395894 0.073811 0.221772
C9    C     C_R   0.549583 0.597894 0.069740 -0.157894
C10   C     C_R   0.549922 0.597720 0.925581 -0.132846
C11   C     C_R   0.461944 0.395808 0.930972 0.258946
C12   C     C_R   0.060231 0.524333 0.629733 0.019179
C13   C     C_3   0.334527 0.335952 0.931923 -0.543372
C14   C     C_3   0.336513 0.334140 0.085773 -0.511619
C15   C     C_R   0.505084 0.740100 0.499200 0.852946
C16   C     C_R   0.740734 0.491765 0.499101 0.941661
C17   C     C_R   0.106797 0.550355 0.760144 -0.163086
C18   C     C_R   0.043994 0.504526 0.876797 -0.285033
C19   C     C_R   0.939162 0.426785 0.864240 -0.207400
C20   C     C_R   0.888017 0.408158 0.736487 0.648126
C21   C     C_R   0.940228 0.471977 0.620587 -0.036848
C22   C     C_3   0.124175 0.642712 0.263717 -0.411737
C23   C     C_R   0.128627 0.548613 0.507290 -0.145254
C24   C     C_3   0.180913 0.770024 0.302280 -0.308222
C25   C     C_3   0.248680 0.832646 0.180706 -0.871463
C26   C     C_R   0.064153 0.575394 0.386599 0.104782
C27   C     C_R   0.937083 0.546700 0.384453 -0.254366
C28   C     C_R   0.875745 0.492501 0.498431 -0.133720
C29   C     C_R   0.533072 0.062356 0.620997 0.200055
C30   C     C_R   0.525119 0.128535 0.499092 -0.109759
C31   C     C_R   0.542064 0.066382 0.375019 -0.232643
F1    F     F_    0.791715 0.324318 0.726133 -0.679793
H1    H     H_    0.501853 0.884141 0.833157 0.200616
H2    H     H_    0.190229 0.607667 0.772883 0.167616
H3    H     H_    0.080901 0.523437 0.976255 0.159574
H4    H     H_    0.896502 0.382381 0.953606 0.163253
H5    H     H_    0.884957 0.570156 0.294452 0.165591
H6    H     H_    0.545448 0.116298 0.278541 0.172853
H7    H     H_    0.546229 0.889454 0.277713 0.168427
H8    H     H_    0.358837 0.879317 0.725055 0.203071
H9    H     H_    0.327564 0.773914 0.144571 0.265001
H10   H     H_    0.182619 0.847209 0.096326 0.257682
H11   H     H_    0.287301 0.924958 0.211224 0.248942
H12   H     H_    0.354971 0.101688 0.721394 0.196024
H13   H     H_    0.104876 0.831953 0.339363 0.217759
H14   H     H_    0.249102 0.758863 0.385090 0.214011
H15   H     H_    0.195639 0.584283 0.213287 0.221220
H16   H     H_    0.052922 0.659877 0.184904 0.182704
H17   H     H_    0.497278 0.106339 0.832752 0.217659
H18   H     H_    0.587511 0.677797 0.122368 0.145715
H19   H     H_    0.588956 0.677002 0.869340 0.148267
H20   H     H_    0.263700 0.398487 0.889599 0.233286
H21   H     H_    0.333074 0.241074 0.889549 0.205738
H22   H     H_    0.264031 0.393994 0.133263 0.212673
H23   H     H_    0.341825 0.238293 0.129981 0.203917
N1    N     N_R   0.499160 0.499140 0.142800 -0.108457
N2    N     N_R   0.499160 0.499180 0.857150 -0.102889
O1    O     O_R   0.500020 0.316790 0.614690 -0.582809
O2    O     O_R   0.500000 0.316760 0.385350 -0.627872
O3    O     O_R   0.316770 0.500020 0.614690 -0.628374
O4    O     O_R   0.316760 0.499980 0.385350 -0.616241
O5    O     O_R   0.500000 0.683240 0.614650 -0.635096
O6    O     O_R   0.499980 0.683210 0.385310 -0.631321
O7    O     O_R   0.683240 0.500020 0.614650 -0.571508
O8    O     O_R   0.683230 0.499980 0.385310 -0.634187
Zn1   Zn    Zn3+2 0.500010 0.500020 0.653130 0.973708
Zn2   Zn    Zn3+2 0.499990 0.499980 0.346870 0.936374

loop_
_geom_bond_atom_site_label_1
_geom_bond_atom_site_label_2
_ccdc_geom_bond_type
C25   H10   S    
C12   C17   A    
C22   H16   S    
C4    O3    A    
C6    H1    S    
C16   C28   S    
C6    C7    S    
C7    C29   S    
C13   C14   S    
N1    Zn2   S    
C9    C10   A    
O4    Zn2   S    
C13   H21   S    
C19   C20   A    
C18   H3    S    
C31   H6    S    
N2    Zn1   S    
C24   H14   S    
C8    N1    A    
C2    C3    A    
C7    H17   S    
O3    Zn1   S    
C9    N1    A    
C7    H12   S    
C24   C25   S    
C11   C13   S    
C12   C23   A    
C25   H11   S    
C26   C27   A    
C29   C30   A    
C1    O1    A    
C27   H5    S    
C8    C11   A    
C24   H13   S    
C12   C21   A    
C22   C24   S    
C1    C30   S    
C14   H22   S    
C15   O5    A    
O1    Zn1   S    
C14   H23   S    
C5    C29   A    
C19   H4    S    
C1    O2    A    
C22   C26   S    
C5    C6    S    
O6    Zn2   S    
O8    Zn2   S    
C17   H2    S    
O5    Zn1   S    
C13   H20   S    
C10   H19   S    
C6    H8    S    
C3    C15   S    
C20   C21   A    
C10   N2    A    
C17   C18   A    
C18   C19   A    
C20   F1    S    
C23   C26   A    
C25   H9    S    
C27   C28   A    
C4    C23   S    
C15   O6    A    
C30   C31   A    
C8    C14   S    
C16   O8    A    
C16   O7    A    
O2    Zn2   S    
C11   N2    A    
C2    H7    S    
C4    O4    A    
C21   C28   A    
C22   H15   S    
C9    H18   S    
C2    C31   A    
C3    C5    A    
O7    Zn1   S    
