data_mof_unit_49906.cif
_audit_creation_date              2013-03-05T16:05:05-0500
_audit_creation_method            fapswitch 2.2
_symmetry_space_group_name_H-M    P1
_symmetry_Int_Tables_number       1
_space_group_crystal_system       triclinic
_cell_length_a                    6.924371
_cell_length_b                    23.30026
_cell_length_c                    25.795115
_cell_angle_alpha                 104.618531
_cell_angle_beta                  90.10146
_cell_angle_gamma                 90.521662
_cell_volume                      4026.8455143

loop_
_atom_site_label
_atom_site_type_symbol
_atom_site_description
_atom_site_fract_x
_atom_site_fract_y
_atom_site_fract_z
_atom_type_partial_charge
O1    O     O_R   0.505750 0.453350 0.547660 -0.592312
O2    O     O_R   0.170990 0.432220 0.437590 -0.593639
O3    O     O_R   0.005600 0.546650 0.452340 -0.604355
C1    C     C_R   0.339823 0.415922 0.417136 0.964052
O4    O     O_R   0.175720 0.446240 0.546340 -0.575737
O5    O     O_R   0.010370 0.560770 0.561860 -0.535515
C2    C     C_R   0.345013 0.433322 0.562281 1.127880
O6    O     O_R   0.500990 0.439230 0.438140 -0.608491
O7    O     O_3   0.340820 0.537560 0.504970 -0.250264
V1    V     V_3+5 0.064050 0.493030 0.499080 1.254312
O8    O     O_R   0.680940 0.567780 0.562410 -0.570959
C3    C     C_R   0.850234 0.584429 0.582671 1.075528
O9    O     O_R   0.676210 0.553760 0.453660 -0.612408
C4    C     C_R   0.845537 0.565778 0.437095 0.903901
V2    V     V_3+5 0.564640 0.506970 0.500920 1.237842
O10   O     O_3   0.837740 0.462440 0.495030 -0.271747
C5    C     C_R   0.780828 0.894032 0.130433 -0.264076
H1    H     H_    0.659167 0.921011 0.125314 0.172898
C6    C     C_R   0.764350 0.857530 0.166246 0.364989
C7    C     C_R   0.923009 0.821927 0.173175 -0.088323
C8    C     C_R   0.089964 0.822543 0.142331 -0.086319
H2    H     H_    0.211116 0.794892 0.145957 0.179788
C9    C     C_R   0.104592 0.859251 0.107137 -0.111650
H3    H     H_    0.236502 0.858829 0.084545 0.137514
C10   C     C_R   0.950338 0.895506 0.100784 -0.189460
C11   C     C_R   0.976154 0.725454 0.198119 -0.122127
H4    H     H_    0.022589 0.705468 0.157561 0.120245
C12   C     C_R   0.967988 0.690492 0.235019 -0.148388
H5    H     H_    0.008961 0.644330 0.222225 0.129331
C13   C     C_R   0.901950 0.714369 0.287470 0.079798
C14   C     C_R   0.850043 0.774408 0.302766 -0.170121
H6    H     H_    0.801735 0.794135 0.343198 0.127126
C15   C     C_R   0.862243 0.809699 0.266223 -0.019668
H7    H     H_    0.823359 0.856018 0.279255 0.129704
C16   C     C_R   0.920431 0.785240 0.213037 0.168416
C17   C     C_R   0.716334 0.675114 0.355127 -0.140295
H8    H     H_    0.593247 0.701332 0.349572 0.121127
C18   C     C_R   0.701558 0.638811 0.390847 -0.160865
H9    H     H_    0.567674 0.638251 0.412365 0.134871
C19   C     C_R   0.858633 0.604147 0.398993 -0.118246
C20   C     C_R   0.029906 0.606298 0.370124 -0.142010
H10   H     H_    0.153608 0.580096 0.375206 0.127709
C21   C     C_R   0.043305 0.641751 0.333791 -0.149609
H11   H     H_    0.176871 0.642432 0.312139 0.118103
C22   C     C_R   0.887067 0.676702 0.326051 0.120249
C23   C     C_R   0.719543 0.641809 0.672172 0.241807
C24   C     C_R   0.862018 0.634744 0.631702 -0.425864
C25   C     C_R   0.017303 0.675848 0.637861 0.499380
C26   C     C_R   0.040265 0.720527 0.686513 -0.021485
C27   C     C_R   0.894827 0.728029 0.726061 -0.050795
C28   C     C_R   0.732313 0.689606 0.718359 -0.019377
C29   C     C_R   0.206869 0.757083 0.697233 -0.163797
C30   C     C_R   0.225332 0.801492 0.744865 -0.219383
C31   C     C_R   0.078711 0.810657 0.783239 0.152866
C32   C     C_R   0.912411 0.773992 0.773842 0.100846
C33   C     C_R   0.763713 0.783237 0.812322 0.146723
C34   C     C_R   0.601079 0.745958 0.803626 -0.247845
C35   C     C_R   0.586180 0.699441 0.757540 -0.079396
C36   C     C_R   0.095781 0.855809 0.830893 -0.265050
C37   C     C_R   0.945571 0.866089 0.868641 -0.139327
C38   C     C_R   0.779749 0.829651 0.858908 -0.253740
H12   H     H_    0.327189 0.750942 0.669771 0.147484
H13   H     H_    0.355364 0.828642 0.751743 0.140018
H14   H     H_    0.223800 0.883894 0.837990 0.137690
H15   H     H_    0.663903 0.836956 0.888013 0.143944
H16   H     H_    0.485134 0.752611 0.832647 0.146814
H17   H     H_    0.457674 0.671766 0.752571 0.180661
C39   C     C_R   0.596061 0.182891 0.142314 0.327554
C40   C     C_R   0.457477 0.136072 0.130833 -0.320300
C41   C     C_R   0.301272 0.137589 0.165747 -0.156877
C42   C     C_R   0.279538 0.184123 0.211630 0.209083
C43   C     C_R   0.418963 0.230134 0.224322 0.006361
C44   C     C_R   0.578221 0.230647 0.189486 -0.184722
C45   C     C_R   0.118335 0.185358 0.244922 -0.149536
C46   C     C_R   0.094467 0.231632 0.290857 -0.193113
C47   C     C_R   0.233032 0.277126 0.304999 0.162423
C48   C     C_R   0.396328 0.276195 0.271797 0.088911
C49   C     C_R   0.536277 0.321488 0.286069 0.101259
C50   C     C_R   0.692760 0.322280 0.252178 -0.325835
C51   C     C_R   0.711826 0.279238 0.203512 0.380890
C52   C     C_R   0.211383 0.323407 0.351816 -0.202690
C53   C     C_R   0.353956 0.367930 0.366798 -0.155011
C54   C     C_R   0.515868 0.366383 0.333520 -0.194309
H18   H     H_    0.195130 0.101889 0.157171 0.155159
H19   H     H_    0.009300 0.150601 0.235143 0.133917
H20   H     H_    0.967907 0.231631 0.315507 0.146518
H21   H     H_    0.086244 0.324007 0.377140 0.165541
H22   H     H_    0.625480 0.400942 0.344148 0.133959
H23   H     H_    0.797476 0.358302 0.262401 0.171758
C55   C     C_R   0.273052 0.124756 0.885981 -0.127998
H24   H     H_    0.141091 0.112438 0.903083 0.138660
C56   C     C_R   0.259786 0.160471 0.849942 -0.136399
H25   H     H_    0.118308 0.174046 0.839924 0.109397
C57   C     C_R   0.426291 0.177359 0.826199 0.126927
C58   C     C_R   0.606943 0.157880 0.839773 -0.141834
H26   H     H_    0.738164 0.170601 0.822603 0.109938
C59   C     C_R   0.620478 0.122370 0.876187 -0.119931
H27   H     H_    0.761695 0.108107 0.885658 0.125227
C60   C     C_R   0.453444 0.105090 0.899592 -0.131411
C61   C     C_R   0.522090 0.202451 0.740169 -0.168907
H28   H     H_    0.621461 0.165672 0.731701 0.137682
C62   C     C_R   0.503571 0.236782 0.703006 -0.073811
H29   H     H_    0.589971 0.226348 0.666947 0.183425
C63   C     C_R   0.374069 0.284191 0.712217 0.185975
C64   C     C_R   0.264233 0.297164 0.759279 -0.065999
H30   H     H_    0.165223 0.334058 0.767302 0.135984
C65   C     C_R   0.281165 0.262538 0.796227 -0.177446
H31   H     H_    0.194884 0.273668 0.832286 0.133918
C66   C     C_R   0.410426 0.214724 0.787172 0.083088
C67   C     C_R   0.220078 0.310455 0.632215 0.286655
C68   C     C_R   0.217590 0.345925 0.594813 0.200676
C69   C     C_R   0.355710 0.392448 0.598711 -0.507134
C70   C     C_R   0.499546 0.400804 0.639365 0.587176
C71   C     C_R   0.496923 0.366495 0.676591 -0.182314
H32   H     H_    0.606568 0.374281 0.707711 0.175581
C72   C     C_R   0.359587 0.321554 0.673620 -0.207488
O11   O     O_R   0.308350 0.060850 0.061810 -0.578823
O12   O     O_R   0.633860 0.053770 0.953650 -0.586887
O13   O     O_R   0.798960 0.939210 0.938150 -0.605167
C73   C     C_R   0.464938 0.066102 0.937254 0.949875
O14   O     O_R   0.638360 0.067800 0.062400 -0.559725
O15   O     O_R   0.803500 0.953330 0.047670 -0.603445
C74   C     C_R   0.469634 0.085224 0.082152 1.020762
O16   O     O_R   0.303810 0.046730 0.952290 -0.601458
O17   O     O_3   0.468430 0.962490 0.995010 -0.291614
V3    V     V_3+5 0.745300 0.006960 0.000930 1.211468
O18   O     O_R   0.132880 0.946160 0.046390 -0.602876
C75   C     C_R   0.963492 0.934169 0.062929 0.952868
O19   O     O_R   0.128380 0.932130 0.937650 -0.605875
C76   C     C_R   0.958761 0.915561 0.917574 0.939733
V4    V     V_3+5 0.244670 0.992930 0.999140 1.179523
O20   O     O_3   0.971670 0.037510 0.005000 -0.236498
N1    N     N_R   0.567779 0.598584 0.667972 0.236345
O21   O     O_R   0.568082 0.563405 0.699902 -0.360048
O22   O     O_R   0.411502 0.603073 0.641334 -0.364015
O23   O     O_3   0.141765 0.671573 0.595254 -0.713663
H33   H     H_    0.184817 0.711945 0.594439 0.299278
N2    N     N_R   0.583906 0.855737 0.193459 0.214431
O24   O     O_R   0.519059 0.806189 0.201657 -0.442892
O25   O     O_R   0.473292 0.902065 0.204773 -0.417009
N3    N     N_R   0.751814 0.181603 0.105600 0.257896
O26   O     O_R   0.923079 0.166150 0.117335 -0.387837
O27   O     O_R   0.716367 0.186641 0.057387 -0.347574
N4    N     N_R   0.860666 0.288620 0.167972 0.262967
O28   O     O_R   0.037654 0.297532 0.185341 -0.381038
O29   O     O_R   0.812731 0.304087 0.124657 -0.311992
N5    N     N_R   0.087273 0.261445 0.626345 0.258342
O30   O     O_R   0.985409 0.255051 0.666870 -0.425369
O31   O     O_R   0.068789 0.222667 0.580425 -0.320339
N6    N     N_R   0.077109 0.333550 0.552278 0.268336
O32   O     O_R   0.894811 0.328808 0.562799 -0.371686
O33   O     O_R   0.132415 0.323406 0.502624 -0.389924
O34   O     O_3   0.640872 0.443767 0.645281 -0.691929
H34   H     H_    0.718687 0.433830 0.612111 0.344301

loop_
_geom_bond_atom_site_label_1
_geom_bond_atom_site_label_2
_geom_bond_distance
_ccdc_geom_bond_type
C32   C33   1.411235 A    
C65   C66   1.408693 A    
C20   H10   1.083120 S    
C13   C22   1.486930 S    
C6    C7    1.420500 A    
C34   H16   1.083884 S    
C1    O6    1.293139 A    
C71   H32   1.084235 S    
C55   H24   1.082815 S    
C30   C31   1.398915 A    
C33   C34   1.398538 A    
C64   C65   1.400891 A    
C36   H14   1.084411 S    
C56   H25   1.082823 S    
C17   H8    1.083217 S    
N5    O31   1.301140 A    
C10   C75   1.488685 S    
C70   C71   1.395976 A    
C61   C66   1.407826 A    
N3    O27   1.301474 A    
O5    C3    1.298250 A    
C18   H9    1.083036 S    
C40   C74   1.496293 S    
V2    O10   2.152405 S    
O13   C76   1.294324 A    
C2    C69   1.499449 S    
C5    H1    1.083248 S    
C23   C24   1.417749 A    
C67   C68   1.420159 A    
C69   C70   1.421013 A    
N5    O30   1.300671 A    
C5    C6    1.408906 A    
C60   C73   1.490609 S    
C63   C72   1.482547 S    
C7    C16   1.493919 S    
O8    V2    2.003056 S    
C49   C54   1.403377 A    
C57   C58   1.407971 A    
C58   H26   1.082779 S    
C39   C40   1.419660 A    
C51   N4    1.432083 S    
C9    H3    1.083115 S    
C14   C15   1.400736 A    
C41   C42   1.398190 A    
O1    V2    1.983333 S    
C41   H18   1.084644 S    
O7    V1    2.157688 S    
C54   H22   1.084574 S    
C36   C37   1.406305 A    
O9    C4    1.300723 A    
O15   C75   1.295274 A    
C20   C21   1.399662 A    
C40   C41   1.403690 A    
N3    O26   1.299671 A    
C3    C24   1.493370 S    
C61   C62   1.401352 A    
C63   C64   1.402066 A    
C59   C60   1.407486 A    
C59   H27   1.082741 S    
O12   C73   1.302037 A    
C31   C36   1.405801 A    
O14   C74   1.302199 A    
C45   C46   1.397471 A    
C39   N3    1.432053 S    
C47   C48   1.416684 A    
N4    O29   1.300961 A    
C37   C76   1.481081 S    
C11   C16   1.406125 A    
O4    C2    1.304244 A    
C49   C50   1.396366 A    
N4    O28   1.300864 A    
C39   C44   1.433061 A    
C48   C49   1.404392 A    
C23   C28   1.412669 A    
C52   C53   1.406356 A    
O16   V4    1.989137 S    
C73   O16   1.296033 A    
C37   C38   1.405649 A    
O15   V3    1.986312 S    
O2    C1    1.303237 A    
C46   C47   1.400839 A    
C43   C48   1.420023 A    
O17   V4    1.702200 S    
C46   H20   1.083646 S    
C55   C56   1.398843 A    
C24   C25   1.415108 A    
V3    O20   1.707646 S    
C13   C14   1.404596 A    
C65   H31   1.082753 S    
C26   C29   1.412415 A    
C56   C57   1.405379 A    
C27   C28   1.413635 A    
C11   H4    1.082941 S    
C1    C53   1.488480 S    
C17   C22   1.406370 A    
C28   C35   1.410267 A    
C62   C63   1.402528 A    
C21   C22   1.403845 A    
C52   H21   1.084142 S    
O3    C4    1.295217 A    
N2    O25   1.301499 A    
C19   C20   1.408708 A    
C53   C54   1.408406 A    
O6    V2    2.000647 S    
O9    V2    1.982528 S    
C21   H11   1.083324 S    
N1    O21   1.300404 A    
N6    O33   1.301394 A    
C67   N5    1.437261 S    
O2    V1    1.990125 S    
C68   N6    1.436887 S    
C67   C72   1.411780 A    
C55   C60   1.408385 A    
C29   C30   1.397137 A    
O19   C76   1.298213 A    
C31   C32   1.411094 A    
C12   H5    1.083044 S    
C68   C69   1.423239 A    
O1    C2    1.296018 A    
C25   O23   1.382114 S    
C14   H6    1.083044 S    
C70   O34   1.373875 S    
C43   C44   1.425629 A    
C47   C52   1.410655 A    
O5    V1    1.993621 S    
C42   C45   1.405621 A    
C71   C72   1.395630 A    
O8    C3    1.298084 A    
C58   C59   1.403221 A    
C12   C13   1.405729 A    
C64   H30   1.083179 S    
C57   C66   1.492395 S    
C11   C12   1.401275 A    
C27   C32   1.418314 A    
N6    O32   1.301184 A    
C5    C10   1.406932 A    
C8    C9    1.398800 A    
O11   C74   1.296549 A    
O4    V1    1.988846 S    
O3    V1    1.986490 S    
C29   H12   1.081421 S    
V4    O20   2.152382 S    
C23   N1    1.433761 S    
C18   C19   1.407239 A    
C30   H13   1.083863 S    
C34   C35   1.394908 A    
O17   V3    2.157624 S    
C6    N2    1.439648 S    
C25   C26   1.421554 A    
C17   C18   1.402547 A    
C61   H28   1.082744 S    
C15   C16   1.407431 A    
C44   C51   1.428843 A    
C15   H7    1.082943 S    
C9    C10   1.402500 A    
C45   H19   1.083779 S    
O7    V2    1.704098 S    
C62   H29   1.082915 S    
O11   V4    2.001412 S    
O18   V4    1.982595 S    
C50   H23   1.084568 S    
N2    O24   1.301256 A    
C4    C19   1.488584 S    
C50   C51   1.402341 A    
O13   V3    1.993728 S    
C38   H15   1.084526 S    
C35   H17   1.082340 S    
O14   V3    1.990170 S    
C42   C43   1.411169 A    
C7    C8    1.406566 A    
C26   C27   1.415022 A    
N1    O22   1.299911 A    
C33   C38   1.402613 A    
O23   H33   0.989500 S    
V1    O10   1.707655 S    
O12   V3    1.988938 S    
O34   H34   0.989910 S    
C8    H2    1.080543 S    
O18   C75   1.300676 A    
O19   V4    2.002911 S    
