data_mof_unit_31173.cif
_audit_creation_date              2012-12-11T15:27:08-0500
_audit_creation_method            fapswitch 2.2
_symmetry_space_group_name_H-M    P1
_symmetry_Int_Tables_number       1
_space_group_crystal_system       triclinic
_cell_length_a                    13.914995
_cell_length_b                    13.91749
_cell_length_c                    27.517507
_cell_angle_alpha                 90.061555
_cell_angle_beta                  89.977601
_cell_angle_gamma                 120.012805
_cell_volume                      4614.52901239

loop_
_atom_site_label
_atom_site_type_symbol
_atom_type_description
_atom_site_fract_x
_atom_site_fract_y
_atom_site_fract_z
_atom_type_partial_charge
C1    C     C_R   0.234481 0.787172 0.568709 0.542515
C2    C     C_R   0.212868 0.447398 0.568727 0.542369
C3    C     C_R   0.552659 0.765553 0.568715 0.542265
C4    C     C_3   0.698973 0.744096 0.783086 -0.014988
C5    C     C_3   0.255889 0.954855 0.783225 -0.015008
C6    C     C_3   0.045159 0.301035 0.783205 -0.014993
C7    C     C_3   0.661775 0.726731 0.728908 -0.208744
C8    C     C_3   0.273324 0.935171 0.729026 -0.208729
C9    C     C_3   0.064841 0.338160 0.729030 -0.208701
C10   C     C_1   0.758986 0.879316 0.852145 -0.049275
C11   C     C_1   0.120502 0.879500 0.852140 -0.049295
C12   C     C_1   0.120520 0.241049 0.852125 -0.049331
C13   C     C_1   0.634970 0.816644 0.656902 -0.073318
C14   C     C_1   0.183473 0.818566 0.656881 -0.073342
C15   C     C_1   0.181555 0.365147 0.656903 -0.073336
C16   C     C_1   0.602976 0.797608 0.615552 -0.012390
C17   C     C_1   0.202513 0.805583 0.615534 -0.012440
C18   C     C_1   0.194516 0.397130 0.615562 -0.012445
C19   C     C_R   0.072009 0.164495 0.941603 0.508261
C20   C     C_R   0.835557 0.907469 0.941627 0.510254
C21   C     C_R   0.092451 0.928020 0.941631 0.510494
C22   C     C_R   0.612038 0.805993 0.385234 0.025214
C23   C     C_R   0.195806 0.802822 0.384210 0.026138
C24   C     C_R   0.194023 0.387796 0.385263 0.025026
C25   C     C_R   0.600852 0.886810 0.359414 -0.125337
C26   C     C_R   0.122132 0.708372 0.357443 -0.124211
C27   C     C_R   0.286189 0.399690 0.359277 -0.125667
C28   C     C_R   0.628069 0.904193 0.310612 -0.123205
C29   C     C_R   0.107602 0.716782 0.308287 -0.125349
C30   C     C_R   0.276228 0.372348 0.310481 -0.123797
C31   C     C_R   0.669780 0.843303 0.287162 0.036733
C32   C     C_R   0.163449 0.820276 0.285322 0.034091
C33   C     C_R   0.173340 0.329736 0.287209 0.037246
C34   C     C_R   0.233548 0.787018 0.431357 0.541915
C35   C     C_R   0.212564 0.445867 0.431518 0.541998
C36   C     C_R   0.554069 0.766628 0.431505 0.542416
C37   C     C_R   0.690797 0.770032 0.314040 -0.118626
C38   C     C_R   0.229697 0.916244 0.312908 -0.116449
C39   C     C_R   0.078951 0.307965 0.314265 -0.118458
C40   C     C_R   0.661253 0.750794 0.362825 -0.128629
C41   C     C_R   0.246831 0.907412 0.362099 -0.128720
C42   C     C_R   0.089388 0.337721 0.363043 -0.129467
C43   C     C_R   0.659006 0.758451 0.206375 -0.126754
C44   C     C_R   0.246128 0.902875 0.205280 -0.131464
C45   C     C_R   0.098174 0.339594 0.206633 -0.130817
C46   C     C_R   0.680971 0.768614 0.156912 -0.157955
C47   C     C_R   0.234236 0.916792 0.156211 -0.138019
C48   C     C_R   0.086473 0.317912 0.157144 -0.146599
C49   C     C_R   0.747896 0.967229 0.161882 0.096796
C50   C     C_R   0.040541 0.769984 0.159954 0.086092
C51   C     C_R   0.220115 0.253388 0.161639 0.095841
C52   C     C_R   0.728183 0.956228 0.211832 -0.097951
C53   C     C_R   0.053093 0.758416 0.209245 -0.064774
C54   C     C_R   0.228681 0.272710 0.211624 -0.097509
C55   C     C_R   0.686435 0.852836 0.234409 0.014540
C56   C     C_R   0.154242 0.827273 0.232555 0.006367
C57   C     C_R   0.166063 0.313148 0.234448 0.014967
C58   C     C_R   0.729320 0.873021 0.134615 0.042437
C59   C     C_R   0.130510 0.854893 0.133555 0.030326
C60   C     C_R   0.143559 0.270840 0.134600 0.048109
C61   C     C_R   0.106655 0.221164 0.086460 0.584138
C62   C     C_R   0.778919 0.885580 0.086477 0.578638
C63   C     C_R   0.114698 0.893392 0.086350 0.570710
C64   C     C_3   0.585619 0.855682 0.738475 -0.201513
C65   C     C_3   0.144262 0.730012 0.738334 -0.201563
C66   C     C_3   0.270043 0.414505 0.738457 -0.201397
C67   C     C_3   0.785621 0.931955 0.714727 -0.225317
C68   C     C_3   0.068102 0.853804 0.714693 -0.225332
C69   C     C_3   0.146390 0.214532 0.714614 -0.225269
C70   C     C_3   0.817746 0.949062 0.769172 -0.249962
C71   C     C_3   0.050928 0.868728 0.769145 -0.249945
C72   C     C_3   0.131393 0.182355 0.769038 -0.249922
C73   C     C_1   0.792515 0.893280 0.893320 0.006105
C74   C     C_1   0.106530 0.899057 0.893320 0.005923
C75   C     C_1   0.100977 0.207538 0.893298 0.006433
C76   C     C_3   0.666585 0.832808 0.708396 0.039662
C77   C     C_3   0.167242 0.833933 0.708377 0.039731
C78   C     C_3   0.166168 0.333502 0.708393 0.039617
C79   C     C_3   0.620118 0.874258 0.792859 -0.195797
C80   C     C_3   0.125569 0.745795 0.792724 -0.195770
C81   C     C_3   0.254241 0.379949 0.792816 -0.195755
C82   C     C_3   0.723021 0.860815 0.801008 0.036279
C83   C     C_3   0.139085 0.862142 0.801000 0.036267
C84   C     C_3   0.137899 0.277023 0.800991 0.036158
Cr1   Cr    Cr6+3 0.164410 0.584450 0.499910 1.019380
Cr2   Cr    Cr6+3 0.415550 0.579960 0.499910 1.019490
Cr3   Cr    Cr6+3 0.420040 0.835590 0.499910 1.019792
Cr4   Cr    Cr6+3 0.156760 0.076070 0.017830 1.054789
Cr5   Cr    Cr6+3 0.923930 0.080690 0.017830 1.055159
Cr6   Cr    Cr6+3 0.919310 0.843240 0.017830 1.031147
H1    H     H_    0.639816 0.959184 0.803871 0.130206
H2    H     H_    0.040585 0.680542 0.803630 0.130290
H3    H     H_    0.319528 0.360283 0.803708 0.130172
H4    H     H_    0.499449 0.784471 0.735152 0.148877
H5    H     H_    0.215475 0.715076 0.735024 0.148811
H6    H     H_    0.284900 0.500621 0.735235 0.149030
H7    H     H_    0.549826 0.815585 0.815971 0.189050
H8    H     H_    0.184168 0.734103 0.815850 0.189104
H9    H     H_    0.265885 0.450189 0.816014 0.189004
H10   H     H_    0.778527 0.743443 0.784804 0.094366
H11   H     H_    0.256615 0.035085 0.785051 0.094404
H12   H     H_    0.964927 0.221494 0.784958 0.094346
H13   H     H_    0.562831 0.930574 0.375707 0.134991
H14   H     H_    0.082249 0.626251 0.373413 0.137332
H15   H     H_    0.368145 0.438412 0.375426 0.134805
H16   H     H_    0.622837 0.677066 0.222867 0.113248
H17   H     H_    0.326453 0.953550 0.222128 0.107175
H18   H     H_    0.052191 0.374797 0.223306 0.109851
H19   H     H_    0.665121 0.695529 0.136466 0.131122
H20   H     H_    0.304982 0.980460 0.136574 0.135176
H21   H     H_    0.028516 0.332923 0.136876 0.133738
H22   H     H_    0.610236 0.960581 0.290740 0.099679
H23   H     H_    0.057113 0.641242 0.287956 0.100500
H24   H     H_    0.350546 0.390841 0.290478 0.099757
H25   H     H_    0.749028 0.029368 0.233303 0.095237
H26   H     H_    0.981349 0.698744 0.229660 0.123812
H27   H     H_    0.281702 0.252628 0.232918 0.095034
H28   H     H_    0.726272 0.724749 0.296932 0.107008
H29   H     H_    0.270797 0.997553 0.296196 0.103721
H30   H     H_    0.997997 0.271785 0.297299 0.103440
H31   H     H_    0.585390 0.930285 0.724093 0.127003
H32   H     H_    0.069663 0.655199 0.723841 0.126868
H33   H     H_    0.344925 0.414867 0.723979 0.126960
H34   H     H_    0.671628 0.688906 0.382229 0.126375
H35   H     H_    0.303486 0.981270 0.382227 0.124264
H36   H     H_    0.017021 0.326807 0.382593 0.125790
H37   H     H_    0.845610 0.916654 0.694156 0.114689
H38   H     H_    0.083470 0.929136 0.694200 0.114681
H39   H     H_    0.071106 0.154512 0.694039 0.114677
H40   H     H_    0.791027 0.008864 0.699862 0.123266
H41   H     H_    0.991186 0.782315 0.699733 0.123282
H42   H     H_    0.217958 0.209239 0.699680 0.123297
H43   H     H_    0.837600 0.033601 0.780604 0.124197
H44   H     H_    0.966335 0.804034 0.780483 0.124208
H45   H     H_    0.196091 0.162486 0.780377 0.124092
H46   H     H_    0.892903 0.942485 0.774431 0.096505
H47   H     H_    0.057583 0.950480 0.774495 0.096479
H48   H     H_    0.049630 0.107203 0.774282 0.096546
H49   H     H_    0.576092 0.655018 0.724635 0.145954
H50   H     H_    0.345043 0.921237 0.724744 0.145995
H51   H     H_    0.078681 0.423769 0.724808 0.146022
H52   H     H_    0.717344 0.706812 0.707355 0.098411
H53   H     H_    0.293288 0.010717 0.707569 0.098380
H54   H     H_    0.989311 0.282489 0.707517 0.098372
O1    O     O_R   0.137310 0.468260 0.552980 -0.509217
O2    O     O_R   0.531740 0.669050 0.552980 -0.509259
O3    O     O_R   0.330950 0.862690 0.552980 -0.509295
O4    O     O_R   0.180530 0.983530 0.965090 -0.478297
O5    O     O_R   0.016470 0.197000 0.965090 -0.479890
O6    O     O_R   0.803000 0.819470 0.965090 -0.476698
O7    O     O_R   0.174120 0.688790 0.549730 -0.498349
O8    O     O_R   0.311210 0.485330 0.549730 -0.498572
O9    O     O_R   0.514670 0.825880 0.549730 -0.498640
O10   O     O_R   0.139940 0.470480 0.446230 -0.522974
O11   O     O_R   0.529520 0.669460 0.446230 -0.522021
O12   O     O_R   0.330540 0.860060 0.446230 -0.520991
O13   O     O_R   0.176560 0.690850 0.450770 -0.507519
O14   O     O_R   0.309150 0.485710 0.450770 -0.506521
O15   O     O_R   0.514290 0.823440 0.450770 -0.506713
O16   O     O_3   0.333333 0.666667 0.499990 -0.265161
O17   O     O_3   0.000000 1.000000 0.017910 -0.291624
O18   O     O_R   0.149710 0.171070 0.967700 -0.500845
O19   O     O_R   0.828930 0.978640 0.967700 -0.499342
O20   O     O_R   0.021360 0.850290 0.967700 -0.497182
O21   O     O_R   0.178510 0.985930 0.071830 -0.487974
O22   O     O_R   0.014070 0.192580 0.071830 -0.495895
O23   O     O_R   0.807420 0.821490 0.071830 -0.530923
O24   O     O_R   0.147830 0.173300 0.066650 -0.458577
O25   O     O_R   0.826700 0.974530 0.066650 -0.453294
O26   O     O_R   0.025470 0.852170 0.066650 -0.500289
N1    N     N_3   0.792581 0.074579 0.139527 -0.585634
H55   H     H_    0.810940 0.136132 0.165598 0.210548
H56   H     H_    0.730496 0.072255 0.117329 0.224480
N2    N     N_3   0.934043 0.697929 0.138843 -0.642798
H57   H     H_    0.895562 0.743945 0.130876 0.269728
H58   H     H_    0.944565 0.662836 0.107112 0.243880
N3    N     N_3   0.283958 0.210266 0.139000 -0.588009
H59   H     H_    0.328163 0.192936 0.164901 0.208982
H60   H     H_    0.342914 0.272837 0.116732 0.224273
C85   C     C_2   0.617096 0.649361 0.814785 0.565887
O27   O     O_2   0.649085 0.597265 0.839108 -0.498717
O28   O     O_R   0.505511 0.620727 0.816162 -0.728044
H61   H     H_    0.460923 0.558344 0.839877 0.338424
C86   C     C_2   0.350553 0.967570 0.814957 0.565881
O29   O     O_2   0.402641 0.051554 0.839422 -0.498790
O30   O     O_R   0.379141 0.884608 0.816199 -0.728027
H62   H     H_    0.441507 0.902313 0.839936 0.338454
C87   C     C_2   0.032412 0.382952 0.814991 0.565908
O31   O     O_2   0.948439 0.350984 0.839441 -0.498691
O32   O     O_R   0.115325 0.494559 0.816291 -0.727988
H63   H     H_    0.097578 0.539216 0.840034 0.338524

loop_
_geom_bond_atom_site_label_1
_geom_bond_atom_site_label_2
_ccdc_geom_bond_type
C58   C62   S    
C15   C18   T    
N1    H55   S    
O32   H63   S    
Cr6   O23   S    
C2    C18   S    
C53   H26   S    
C24   C42   A    
C35   O10   A    
Cr6   O6    S    
C6    C9    S    
C71   H47   S    
C28   H22   S    
C25   C28   A    
N1    H56   S    
C45   C57   A    
C12   C75   T    
C33   C39   A    
Cr3   O3    S    
C50   C59   A    
Cr1   O1    S    
Cr3   O16   S    
C37   C40   A    
Cr2   O8    S    
C4    C7    S    
C5    C83   S    
C10   C73   T    
C45   C48   A    
C15   C78   S    
Cr5   O19   S    
C27   H15   S    
C39   H30   S    
C6    C87   S    
C3    O9    A    
C86   O29   D    
C12   C84   S    
C45   H18   S    
C87   O32   S    
C61   O22   A    
C23   C26   A    
O28   H61   S    
C14   C77   S    
C36   O15   A    
C26   H14   S    
N2    H57   S    
C37   H28   S    
Cr3   O15   S    
N3    H60   S    
C22   C25   A    
C70   H43   S    
C24   C27   A    
Cr1   O16   S    
C32   C38   A    
C68   H38   S    
C5    C86   S    
C79   H1    S    
C44   C47   A    
Cr1   O10   S    
C49   C52   A    
C72   H48   S    
C62   O23   A    
C21   O20   A    
C46   C58   A    
C27   C30   A    
C70   H46   S    
C64   H4    S    
C14   C17   T    
C69   C78   S    
Cr1   O13   S    
C4    C85   S    
C80   C83   S    
C40   H34   S    
Cr2   O2    S    
Cr5   O17   S    
C9    H54   S    
C85   O28   S    
C64   H31   S    
C48   C60   A    
C39   C42   A    
C71   C83   S    
C2    O8    A    
C66   C78   S    
C5    H11   S    
C52   H25   S    
C24   C35   S    
C6    C84   S    
Cr6   O17   S    
C50   C53   A    
C21   O4    A    
C41   H35   S    
C65   C77   S    
C38   C41   A    
C49   N1    S    
C9    H51   S    
C25   H13   S    
C63   O26   A    
C81   H9    S    
C11   C83   S    
C20   O19   A    
C21   C74   S    
C10   C82   S    
C49   C58   A    
C31   C37   A    
Cr6   O20   S    
C87   O31   D    
C2    O1    A    
C19   O18   A    
C80   H2    S    
C68   H41   S    
Cr2   O11   S    
Cr1   O7    S    
C67   H37   S    
C5    C8    S    
C81   H3    S    
C44   C56   A    
C13   C76   S    
C63   O21   A    
C23   C34   S    
C22   C40   A    
Cr6   O26   S    
Cr3   O9    S    
C64   C76   S    
C65   H32   S    
Cr2   O14   S    
C72   C84   S    
C26   C29   A    
C38   H29   S    
C43   C55   A    
Cr4   O21   S    
C4    H10   S    
C8    C77   S    
C64   C79   S    
C1    O3    A    
C67   H40   S    
C69   H42   S    
C81   C84   S    
C85   O27   D    
C66   H6    S    
C30   H24   S    
C44   H17   S    
C68   C77   S    
C62   O25   A    
C29   H23   S    
C33   C57   S    
C30   C33   A    
C80   H8    S    
Cr3   O12   S    
C59   C63   S    
C79   H7    S    
C28   C31   A    
C69   C72   S    
C72   H45   S    
C11   C74   T    
C23   C41   A    
C79   C82   S    
C52   C55   A    
C7    C76   S    
C51   C60   A    
C34   O12   A    
C29   C32   A    
C47   H20   S    
C22   C36   S    
C1    C17   S    
C86   O30   S    
C8    H50   S    
C50   N2    S    
C51   C54   A    
C67   C70   S    
C19   C75   S    
C13   C16   T    
C35   O14   A    
Cr5   O25   S    
C71   H44   S    
C7    H49   S    
Cr4   O4    S    
C61   O24   A    
C68   C71   S    
Cr4   O18   S    
Cr4   O24   S    
Cr5   O5    S    
C19   O5    A    
C20   O6    A    
C20   C73   S    
C1    O7    A    
C8    H53   S    
C9    C78   S    
C6    H12   S    
C32   C56   S    
C70   C82   S    
C43   C46   A    
N2    H58   S    
Cr5   O22   S    
C42   H36   S    
C47   C59   A    
C34   O13   A    
C65   H5    S    
C48   H21   S    
C4    C82   S    
C3    O2    A    
C69   H39   S    
N3    H59   S    
C54   H27   S    
C46   H19   S    
C53   C56   A    
C65   C80   S    
C66   H33   S    
C60   C61   S    
C67   C76   S    
C31   C55   S    
O30   H62   S    
C51   N3    S    
Cr2   O16   S    
C43   H16   S    
C7    H52   S    
C3    C16   S    
Cr4   O17   S    
C36   O11   A    
C66   C81   S    
C54   C57   A    
