data_mof_unit_50481.cif
_audit_creation_date              2013-03-05T15:50:46-0500
_audit_creation_method            fapswitch 2.2
_symmetry_space_group_name_H-M    P1
_symmetry_Int_Tables_number       1
_space_group_crystal_system       triclinic
_cell_length_a                    14.310836
_cell_length_b                    14.823943
_cell_length_c                    33.237787
_cell_angle_alpha                 97.908898
_cell_angle_beta                  90.429847
_cell_angle_gamma                 118.743595
_cell_volume                      6101.44411713

loop_
_atom_site_label
_atom_site_type_symbol
_atom_site_description
_atom_site_fract_x
_atom_site_fract_y
_atom_site_fract_z
_atom_type_partial_charge
O1    O     O_R   0.318160 0.824460 0.443680 -0.522075
O2    O     O_R   0.525040 0.857250 0.449830 -0.502933
C1    C     C_R   0.616534 0.910558 0.436835 0.543509
O3    O     O_R   0.684760 0.998800 0.456360 -0.516856
O4    O     O_R   0.647540 0.166310 0.470260 -0.500094
C2    C     C_R   0.593694 0.204918 0.456440 0.545132
O5    O     O_R   0.500960 0.181750 0.467450 -0.520702
O6    O     O_R   0.331100 0.981120 0.457080 -0.499889
C3    C     C_R   0.295860 0.892784 0.434323 0.542324
O7    O     O_R   0.315560 0.821140 0.532010 -0.519399
O8    O     O_R   0.522630 0.854180 0.531710 -0.501444
C4    C     C_R   0.614113 0.905523 0.551632 0.543641
O9    O     O_R   0.682160 0.995480 0.544690 -0.518531
O10   O     O_R   0.645130 0.163230 0.552140 -0.502659
C5    C     C_R   0.589436 0.198654 0.571106 0.542789
O11   O     O_R   0.498360 0.178430 0.555780 -0.518493
O12   O     O_R   0.328690 0.978040 0.538950 -0.500545
C6    C     C_R   0.289643 0.887223 0.548749 0.545173
Cr1   Cr    Cr6+3 0.424820 0.846020 0.489780 1.009645
Cr2   Cr    Cr6+3 0.657880 0.078580 0.505700 1.013742
Cr3   Cr    Cr6+3 0.417280 0.075360 0.504550 1.013902
O13   O     O_3   0.499990 0.999990 0.500010 -0.236291
C7    C     C_R   0.736205 0.443964 0.104116 0.024041
C8    C     C_R   0.644913 0.417178 0.125713 -0.125357
C9    C     C_R   0.644504 0.394399 0.164964 -0.124188
C10   C     C_R   0.734792 0.397247 0.182954 0.028544
C11   C     C_R   0.824037 0.418615 0.160939 -0.121376
C12   C     C_R   0.824730 0.441644 0.121622 -0.122091
C13   C     C_R   0.726182 0.293637 0.237873 0.009238
C14   C     C_R   0.717124 0.282951 0.279096 -0.098156
C15   C     C_R   0.719093 0.362519 0.307925 0.013551
C16   C     C_R   0.735850 0.455675 0.296099 -0.124945
C17   C     C_R   0.744643 0.467106 0.255255 -0.132155
C18   C     C_R   0.737798 0.385992 0.225938 0.037509
C19   C     C_R   0.595212 0.326277 0.363810 0.013156
C20   C     C_R   0.566466 0.288578 0.400728 -0.105158
C21   C     C_R   0.735068 0.289340 0.409913 -0.133283
C22   C     C_R   0.764761 0.327346 0.373445 -0.136671
C23   C     C_R   0.694444 0.343158 0.349664 0.040738
C24   C     C_R   0.634059 0.265916 0.423067 0.007978
H1    H     H_    0.575587 0.418284 0.113053 0.131915
H2    H     H_    0.896310 0.462235 0.105740 0.133450
H3    H     H_    0.840662 0.339615 0.362690 0.110029
H4    H     H_    0.704081 0.211007 0.288646 0.112921
H5    H     H_    0.575127 0.377832 0.181882 0.111021
H6    H     H_    0.738602 0.517913 0.318267 0.116128
H7    H     H_    0.753885 0.538285 0.246223 0.117780
H8    H     H_    0.488426 0.270851 0.410729 0.126931
H9    H     H_    0.894401 0.421520 0.174785 0.108184
H10   H     H_    0.788969 0.273023 0.426653 0.129133
H11   H     H_    0.268103 0.803933 0.174903 0.106813
H12   H     H_    0.233136 0.726841 0.373848 0.124171
C25   C     C_R   0.246270 0.878075 0.393059 0.005698
C26   C     C_R   0.236381 0.959738 0.380129 -0.134887
C27   C     C_R   0.214099 0.957201 0.338960 -0.130441
C28   C     C_R   0.200837 0.873008 0.310101 0.052756
C29   C     C_R   0.203531 0.787222 0.322783 0.015434
C30   C     C_R   0.225869 0.790371 0.364313 -0.108019
C31   C     C_R   0.215316 0.828205 0.162211 -0.090831
C32   C     C_R   0.187061 0.805229 0.120023 -0.005770
C33   C     C_R   0.075549 0.887822 0.130776 -0.139442
C34   C     C_R   0.104022 0.909614 0.172562 -0.123754
C35   C     C_R   0.170323 0.876058 0.188428 0.023440
C36   C     C_1   0.182724 0.879953 0.231601 -0.035830
C37   C     C_1   0.190576 0.878200 0.267506 -0.028993
C38   C     C_R   0.111590 0.830530 0.104305 0.035733
H13   H     H_    0.251788 0.028467 0.401483 0.128655
H14   H     H_    0.069214 0.947171 0.192693 0.111205
H15   H     H_    0.017921 0.908253 0.119706 0.129747
H16   H     H_    0.211506 0.023069 0.329437 0.107190
H17   H     H_    0.866344 0.963413 0.122279 0.122891
H18   H     H_    0.836439 0.990313 0.194419 0.103545
H19   H     H_    0.821397 0.979497 0.326664 0.106086
H20   H     H_    0.802798 0.998702 0.400031 0.126855
C39   C     C_R   0.635387 0.880339 0.394781 0.020089
C40   C     C_R   0.548991 0.804923 0.367386 -0.129615
C41   C     C_R   0.559865 0.795029 0.325542 -0.116482
C42   C     C_R   0.657200 0.859650 0.310762 0.037410
C43   C     C_R   0.745538 0.929704 0.337908 -0.116402
C44   C     C_R   0.734860 0.939967 0.379729 -0.125798
C45   C     C_R   0.774057 0.925451 0.173825 -0.119939
C46   C     C_R   0.790653 0.910234 0.132647 -0.130461
C47   C     C_R   0.616976 0.754261 0.120847 -0.126629
C48   C     C_R   0.600495 0.769820 0.161920 -0.116673
C49   C     C_R   0.680620 0.853130 0.188677 0.037246
C50   C     C_1   0.671647 0.857450 0.231708 -0.037374
C51   C     C_1   0.664945 0.858343 0.267761 -0.036316
C52   C     C_R   0.714184 0.821787 0.106182 0.022523
H21   H     H_    0.471145 0.758417 0.377941 0.126740
H22   H     H_    0.527777 0.713684 0.173189 0.104608
H23   H     H_    0.556383 0.685761 0.101153 0.122958
H24   H     H_    0.491182 0.740217 0.304661 0.105968
H25   H     H_    0.788740 0.260318 0.691888 0.140595
H26   H     H_    0.761646 0.224661 0.617429 0.128741
C53   C     C_R   0.621496 0.245454 0.614504 0.021525
C54   C     C_R   0.554509 0.272543 0.637857 -0.123947
C55   C     C_R   0.570235 0.292359 0.680339 -0.120563
C56   C     C_R   0.653019 0.285575 0.699877 0.033414
C57   C     C_R   0.724137 0.265220 0.676944 -0.107826
C58   C     C_R   0.708854 0.245705 0.634457 -0.130837
C59   C     C_R   0.748291 0.310975 0.847635 0.216384
C60   C     C_R   0.756510 0.339209 0.890551 0.192440
C61   C     C_R   0.600131 0.362515 0.883992 -0.177694
C62   C     C_R   0.592618 0.335302 0.842006 -0.179609
C63   C     C_R   0.668747 0.314391 0.823578 -0.015646
C64   C     C_1   0.665331 0.301307 0.779879 0.037464
C65   C     C_1   0.661041 0.294020 0.743369 0.002237
C66   C     C_R   0.685616 0.371635 0.908533 -0.025149
H27   H     H_    0.486447 0.272710 0.623475 0.128010
H28   H     H_    0.529924 0.335708 0.823637 0.127475
H29   H     H_    0.543622 0.385141 0.896744 0.150808
H30   H     H_    0.515201 0.308756 0.697963 0.106893
C67   C     C_R   0.070169 0.755512 0.908858 0.014915
C68   C     C_R   0.099614 0.852631 0.897176 -0.118996
C69   C     C_R   0.124446 0.868346 0.857466 -0.117503
C70   C     C_R   0.120447 0.787357 0.829041 0.021418
C71   C     C_R   0.096855 0.692204 0.841136 -0.112989
C72   C     C_R   0.072701 0.676592 0.880974 -0.117440
C73   C     C_R   0.208022 0.787101 0.763664 0.006557
C74   C     C_R   0.207274 0.791470 0.722030 -0.144406
C75   C     C_R   0.131709 0.808799 0.702301 -0.007215
C76   C     C_R   0.053654 0.821151 0.724379 0.218687
C77   C     C_R   0.054046 0.815957 0.766141 -0.109525
C78   C     C_R   0.129658 0.798402 0.785839 0.000208
C79   C     C_R   0.182528 0.922144 0.649106 -0.074808
C80   C     C_R   0.222137 0.941879 0.611224 -0.128660
C81   C     C_R   0.177254 0.760534 0.592991 -0.126214
C82   C     C_R   0.138036 0.741074 0.630795 -0.104103
C83   C     C_R   0.144641 0.822691 0.659546 0.078027
C84   C     C_R   0.224592 0.862222 0.583720 0.017773
H31   H     H_    0.098491 0.914777 0.918169 0.133133
H32   H     H_    0.049312 0.600732 0.889109 0.180143
H33   H     H_    0.109052 0.664006 0.638675 0.115315
H34   H     H_    0.268552 0.784615 0.704971 0.117783
H35   H     H_    0.142562 0.942151 0.848408 0.125470
H36   H     H_    0.993174 0.822874 0.783382 0.157265
H37   H     H_    0.188789 0.985948 0.671335 0.125587
H38   H     H_    0.258000 0.020889 0.604800 0.127344
H39   H     H_    0.092413 0.628656 0.819250 0.146241
H40   H     H_    0.176955 0.697415 0.572148 0.129557
C85   C     C_R   0.659646 0.744965 0.912921 0.019764
C86   C     C_R   0.593167 0.653510 0.885709 -0.122470
C87   C     C_R   0.568350 0.659444 0.845790 -0.118249
C88   C     C_R   0.608793 0.756863 0.832901 0.024390
C89   C     C_R   0.667040 0.848162 0.861308 -0.103541
C90   C     C_R   0.692426 0.842225 0.900959 -0.112568
C91   C     C_R   0.584470 0.841910 0.777004 -0.088418
C92   C     C_R   0.593572 0.859650 0.736559 0.013831
C93   C     C_R   0.622241 0.798794 0.708135 0.051542
C94   C     C_R   0.636292 0.718899 0.720098 -0.083990
C95   C     C_R   0.626848 0.701960 0.760396 -0.104507
C96   C     C_R   0.602672 0.764492 0.789295 0.015948
C97   C     C_R   0.555730 0.744321 0.635202 -0.126974
C98   C     C_R   0.554838 0.769683 0.596444 -0.121839
C99   C     C_R   0.717264 0.934126 0.617346 -0.122202
C100  C     C_R   0.718126 0.908405 0.656099 -0.078727
C101  C     C_R   0.634389 0.815847 0.665623 0.038720
C102  C     C_R   0.632535 0.867167 0.587823 0.020245
H41   H     H_    0.567271 0.577593 0.894266 0.125056
H42   H     H_    0.743393 0.913785 0.921541 0.148356
H43   H     H_    0.780288 0.963433 0.679382 0.154205
H44   H     H_    0.564740 0.889535 0.799209 0.110314
H45   H     H_    0.522124 0.588048 0.824470 0.107690
H46   H     H_    0.657087 0.671262 0.698359 0.140297
H47   H     H_    0.642904 0.642833 0.769316 0.115096
H48   H     H_    0.491252 0.672100 0.642218 0.106305
H49   H     H_    0.489138 0.716025 0.574170 0.126807
H50   H     H_    0.699831 0.924255 0.852138 0.148631
H51   H     H_    0.778450 0.009479 0.611541 0.130647
O14   O     O_R   0.828710 0.851830 0.052170 -0.518015
O15   O     O_R   0.005980 0.823990 0.047210 -0.505717
C103  C     C_R   0.053149 0.781793 0.063549 0.533547
O16   O     O_R   0.031900 0.688850 0.050170 -0.516548
O17   O     O_R   0.830940 0.518420 0.048680 -0.494189
C104  C     C_R   0.743901 0.486231 0.065999 0.548840
O18   O     O_R   0.668160 0.499860 0.053480 -0.518819
O19   O     O_R   0.689170 0.693840 0.050110 -0.501565
C105  C     C_R   0.742891 0.789415 0.066349 0.539647
O20   O     O_R   0.803860 0.812940 0.962540 -0.507566
O21   O     O_R   0.982950 0.787950 0.964120 -0.501669
C106  C     C_R   0.021474 0.731915 0.947404 0.537172
O22   O     O_R   0.007050 0.649970 0.960540 -0.495339
O23   O     O_R   0.807910 0.482370 0.965590 -0.441785
C107  C     C_R   0.711518 0.435982 0.949577 0.572566
O24   O     O_R   0.643310 0.460980 0.963840 -0.526883
O25   O     O_R   0.666140 0.657800 0.967020 -0.503188
C108  C     C_R   0.710213 0.739766 0.950438 0.542130
Cr4   Cr    Cr6+3 0.903360 0.812540 0.006510 1.023441
Cr5   Cr    Cr6+3 0.914630 0.587050 0.006280 1.084587
Cr6   Cr    Cr6+3 0.673560 0.582680 0.008540 1.018793
O26   O     O_3   0.830520 0.660760 0.007110 -0.252813
C109  C     C_3   0.235451 0.751339 0.092949 -0.385037
H52   H     H_    0.306293 0.755690 0.108957 0.114750
H53   H     H_    0.176150 0.667758 0.083599 0.160856
H54   H     H_    0.262165 0.789286 0.065518 0.140493
C110  C     C_3   0.187215 0.694568 0.292328 -0.403633
H55   H     H_    0.191638 0.634156 0.307387 0.115368
H56   H     H_    0.107307 0.658766 0.275311 0.141032
H57   H     H_    0.249915 0.719828 0.270496 0.131331
N1    N     N_R   0.839297 0.339529 0.915372 0.110667
O27   O     O_R   0.937929 0.385112 0.905992 -0.292761
O28   O     O_R   0.816495 0.295797 0.947941 -0.328441
N2    N     N_R   0.819789 0.278575 0.828847 0.101890
O29   O     O_R   0.834202 0.207458 0.842361 -0.285388
O30   O     O_R   0.869618 0.318714 0.797886 -0.340623
C111  C     C_3   0.295889 0.774659 0.783044 -0.394654
H58   H     H_    0.297476 0.783174 0.816715 0.148417
H59   H     H_    0.286457 0.696890 0.770829 0.138480
H60   H     H_    0.374395 0.835644 0.775582 0.127997
N3    N     N_R   0.972952 0.836556 0.705081 0.070803
O31   O     O_R   0.939854 0.799474 0.666803 -0.336147
O32   O     O_R   0.924477 0.878951 0.726692 -0.352723
C112  C     C_3   0.718303 0.205093 0.207063 -0.398205
H61   H     H_    0.706265 0.137563 0.221620 0.125485
H62   H     H_    0.649650 0.178381 0.184166 0.147253
H63   H     H_    0.793077 0.231357 0.191392 0.131607
C113  C     C_3   0.571603 0.942393 0.724270 -0.392321
H64   H     H_    0.508235 0.907633 0.698605 0.131056
H65   H     H_    0.543985 0.977845 0.749788 0.130964
H66   H     H_    0.645451 0.005818 0.714785 0.151096
C114  C     C_3   0.516331 0.340370 0.338710 -0.401187
H67   H     H_    0.440177 0.317253 0.353276 0.115116
H68   H     H_    0.550453 0.423415 0.335171 0.131089
H69   H     H_    0.497379 0.291500 0.308171 0.143186

loop_
_geom_bond_atom_site_label_1
_geom_bond_atom_site_label_2
_geom_bond_distance
_ccdc_geom_bond_type
C42   C51   1.432555 S    
N2    O29   1.301449 A    
C41   H24   1.083715 S    
C99   C100  1.394313 A    
Cr6   O26   1.975779 S    
C97   H48   1.083424 S    
C68   H31   1.083202 S    
C53   C54   1.406533 A    
C86   H41   1.083188 S    
C27   C28   1.397759 A    
C82   C83   1.398731 A    
C45   C46   1.397131 A    
C77   C78   1.405110 A    
O4    Cr2   1.924788 S    
C25   C26   1.406152 A    
C74   C75   1.402963 A    
C113  H66   1.109575 S    
N2    O30   1.301141 A    
O8    Cr1   1.917730 S    
C10   C11   1.398437 A    
C114  H67   1.110826 S    
O15   Cr4   1.919062 S    
O14   C105  1.273690 A    
Cr4   O26   1.976440 S    
C5    C53   1.476833 S    
C38   C103  1.479520 S    
C100  C101  1.400949 A    
C21   C22   1.390192 A    
C87   C88   1.405021 A    
C98   C102  1.407149 A    
C114  H69   1.110510 S    
C19   C114  1.508183 S    
C49   C50   1.432351 S    
O4    C2    1.274194 A    
C111  H59   1.110312 S    
C90   H42   1.083477 S    
C64   C65   1.201884 T    
C80   C84   1.405209 A    
C5    O11   1.272922 A    
C106  O22   1.270824 A    
C70   C71   1.401881 A    
C61   H29   1.083067 S    
O16   Cr5   2.035567 S    
Cr5   O26   1.975024 S    
O17   C104  1.274871 A    
O21   Cr4   1.922861 S    
O18   Cr6   2.039503 S    
C33   C38   1.408524 A    
C10   C18   1.463700 S    
C67   C106  1.466849 S    
C91   C92   1.400096 A    
C15   C23   1.466598 S    
N1    O27   1.301315 A    
C7    C8    1.404785 A    
C76   N3    1.442302 S    
C81   C82   1.389826 A    
C60   C66   1.420091 A    
C61   C66   1.405632 A    
C85   C108  1.466681 S    
O22   Cr5   2.040705 S    
C1    C39   1.475423 S    
C92   C113  1.508964 S    
H25   C57   1.083688 S    
C74   H34   1.085429 S    
H18   C45   1.083593 S    
C46   C52   1.406610 A    
C40   H21   1.083143 S    
H17   C46   1.082874 S    
C33   C34   1.393119 A    
C47   C52   1.407121 A    
C95   C96   1.403576 A    
C32   C38   1.419560 A    
C31   C32   1.404765 A    
C35   C36   1.434428 S    
C114  H68   1.109194 S    
H20   C44   1.083058 S    
Cr3   O13   1.974924 S    
C99   C102  1.405330 A    
C8    H1    1.083003 S    
C14   H4    1.084252 S    
C71   H39   1.083408 S    
C3    C25   1.478685 S    
C48   H22   1.083737 S    
C110  H57   1.110553 S    
O23   Cr5   1.918770 S    
C87   H45   1.083105 S    
C62   C63   1.393114 A    
C55   C56   1.398706 A    
C20   H8    1.083593 S    
C112  H62   1.110382 S    
C59   C63   1.410913 A    
C22   C23   1.399386 A    
O1    Cr1   2.034894 S    
C66   C107  1.484112 S    
C29   C110  1.507010 S    
C59   C60   1.417592 A    
O10   Cr2   1.918836 S    
C20   C24   1.403656 A    
Cr1   O13   1.975305 S    
O1    C3    1.272978 A    
C8    C9    1.391221 A    
C53   C58   1.408949 A    
C110  H56   1.110531 S    
C59   N2    1.437816 S    
C55   H30   1.083685 S    
C111  H58   1.107688 S    
O6    C3    1.275830 A    
C26   H13   1.083045 S    
C79   H37   1.083387 S    
C9    C10   1.399229 A    
C41   C42   1.398458 A    
C13   C18   1.410998 A    
O12   Cr3   1.926787 S    
C56   C65   1.432622 S    
C43   C44   1.395006 A    
C16   C17   1.390302 A    
C19   C20   1.400866 A    
C109  H53   1.109364 S    
O25   Cr6   1.921002 S    
C19   C23   1.414559 A    
C39   C40   1.407532 A    
C109  H54   1.110589 S    
O23   C107  1.278656 A    
C82   H33   1.083547 S    
C13   C14   1.400665 A    
C60   N1    1.436360 S    
C28   C37   1.438642 S    
C99   H51   1.082972 S    
C13   C112  1.506744 S    
C47   C48   1.393900 A    
O10   C5    1.275698 A    
H26   C58   1.083030 S    
O7    Cr1   2.042501 S    
C32   C109  1.507022 S    
C54   C55   1.395782 A    
C34   C35   1.394421 A    
O12   C6    1.276948 A    
H19   C43   1.083668 S    
C73   C111  1.507883 S    
C7    C12   1.407491 A    
C40   C41   1.396115 A    
C73   C74   1.394419 A    
C52   C105  1.474755 S    
O15   C103  1.279057 A    
C75   C76   1.411311 A    
H12   C30   1.083522 S    
C85   C90   1.402465 A    
Cr2   O13   1.974765 S    
C100  H43   1.083369 S    
O19   C105  1.274916 A    
N3    O32   1.301828 A    
C85   C86   1.403677 A    
C79   C80   1.394561 A    
C17   H7    1.083750 S    
C2    C24   1.471400 S    
C98   H49   1.083064 S    
C6    C84   1.469030 S    
H11   C31   1.084670 S    
C28   C29   1.410967 A    
C1    O3    1.270460 A    
C9    H5    1.083578 S    
C89   C90   1.389993 A    
C11   C12   1.394317 A    
C47   H23   1.083159 S    
C103  O16   1.270799 A    
C50   C51   1.201657 T    
C67   C68   1.404949 A    
C63   C64   1.435920 S    
C112  H63   1.109712 S    
C33   H15   1.083329 S    
C26   C27   1.394020 A    
C80   H38   1.083101 S    
O19   Cr6   1.920699 S    
C70   C78   1.467262 S    
O9    Cr2   2.040086 S    
O2    Cr1   1.925537 S    
C42   C43   1.397526 A    
C16   H6    1.083139 S    
C15   C16   1.396893 A    
C48   C49   1.396934 A    
C7    C104  1.471047 S    
C75   C83   1.464246 S    
C110  H55   1.110820 S    
C91   H44   1.083640 S    
O6    Cr3   1.915529 S    
C25   C30   1.406181 A    
O11   Cr3   2.032132 S    
C68   C69   1.390916 A    
C2    O5    1.271451 A    
O20   Cr4   2.035380 S    
C21   C24   1.403488 A    
C94   H46   1.083618 S    
C54   H27   1.082994 S    
C31   C35   1.398112 A    
C94   C95   1.392111 A    
C57   C58   1.395663 A    
C34   H14   1.083970 S    
C77   H36   1.083979 S    
C88   C89   1.403399 A    
C4    C102  1.472217 S    
C109  H52   1.111147 S    
C91   C96   1.402408 A    
C113  H64   1.110681 S    
C81   C84   1.405344 A    
C22   H3    1.083700 S    
C88   C96   1.474425 S    
C104  O18   1.271152 A    
C95   H47   1.083115 S    
C71   C72   1.393050 A    
C36   C37   1.202817 T    
C62   H28   1.084317 S    
C21   H10   1.083109 S    
C111  H60   1.109070 S    
C29   C30   1.403935 A    
C14   C15   1.402428 A    
C69   H35   1.083460 S    
O7    C6    1.268579 A    
C112  H61   1.111111 S    
O5    Cr3   2.045201 S    
C12   H2    1.083002 S    
C17   C18   1.402780 A    
O2    C1    1.277775 A    
C73   C78   1.409993 A    
C92   C93   1.414913 A    
N3    O31   1.301272 A    
C97   C101  1.397749 A    
C113  H65   1.110803 S    
C27   H16   1.083825 S    
C72   H32   1.082961 S    
O17   Cr5   1.924453 S    
C67   C72   1.404233 A    
O3    Cr2   2.036998 S    
C79   C83   1.400968 A    
O24   Cr6   2.037412 S    
C39   C44   1.407220 A    
O20   C108  1.268127 A    
C4    O9    1.272357 A    
N1    O28   1.301376 A    
C56   C57   1.396999 A    
C81   H40   1.083136 S    
O14   Cr4   2.040403 S    
C61   C62   1.386693 A    
C76   C77   1.400887 A    
C86   C87   1.396227 A    
C107  O24   1.273332 A    
C69   C70   1.399363 A    
O25   C108  1.276854 A    
C93   C94   1.399534 A    
C93   C101  1.466452 S    
C45   C49   1.399234 A    
O21   C106  1.273064 A    
C11   H9    1.083284 S    
O8    C4    1.273457 A    
C97   C98   1.392372 A    
C89   H50   1.083124 S    
