data_mof_unit_23295.cif
_audit_creation_date              2012-10-26T19:59:12-0400
_audit_creation_method            fapswitch 2.2
_symmetry_space_group_name_H-M    P1
_symmetry_Int_Tables_number       1
_space_group_crystal_system       triclinic
_cell_length_a                    7.408804
_cell_length_b                    8.744599
_cell_length_c                    15.828784
_cell_angle_alpha                 94.099885
_cell_angle_beta                  74.633379
_cell_angle_gamma                 102.748131
_cell_volume                      964.370310662

loop_
_atom_site_label
_atom_site_type_symbol
_atom_type_description
_atom_site_fract_x
_atom_site_fract_y
_atom_site_fract_z
_atom_type_partial_charge
C1    C     C_R   0.542732 0.799442 0.503793 0.590935
C2    C     C_R   0.617692 0.514508 0.333502 0.562734
C3    C     C_R   0.308602 0.469675 0.762679 0.013870
C4    C     C_R   0.691273 0.537953 0.238015 0.013156
C5    C     C_R   0.065710 0.371096 0.893690 -0.094851
C6    C     C_R   0.926017 0.658895 0.110136 -0.095644
C7    C     C_R   0.117289 0.399910 0.804047 0.217779
C8    C     C_R   0.877551 0.621330 0.198574 0.215223
C9    C     C_R   0.440852 0.516055 0.813582 -0.134241
C10   C     C_R   0.561074 0.488109 0.186490 -0.134827
C11   C     C_R   0.390770 0.489620 0.904274 0.024754
C12   C     C_R   0.457257 0.200563 0.496237 0.589860
C13   C     C_R   0.605026 0.529768 0.097989 0.026205
C14   C     C_R   0.200600 0.412322 0.943384 -0.000840
C15   C     C_R   0.791669 0.615997 0.060222 -0.002226
C16   C     C_R   0.525160 0.533519 0.956511 0.048558
C17   C     C_R   0.468652 0.490575 0.046531 0.049872
C18   C     C_R   0.276814 0.412717 0.082355 -0.101217
C19   C     C_R   0.713192 0.620585 0.922142 -0.101600
C20   C     C_R   0.146158 0.375298 0.031731 -0.126922
C21   C     C_R   0.842881 0.660720 0.973136 -0.125449
C22   C     C_2   0.552957 0.963830 0.517418 0.182925
C23   C     C_2   0.447058 0.036187 0.482638 0.182741
C24   C     C_R   0.382314 0.486470 0.666618 0.563014
Cl1   Cl    Cl    0.053544 0.687845 0.256615 -0.525735
Cl2   Cl    Cl    0.937955 0.338834 0.747297 -0.535680
Cl3   Cl    Cl    0.688012 0.053891 0.592055 -0.494112
Cl4   Cl    Cl    0.312113 0.946172 0.407976 -0.489831
Cu1   Cu    Cu3+1 0.322120 0.483240 0.490330 1.128037
Cu2   Cu    Cu3+1 0.677880 0.516760 0.509670 1.128535
H1    H     H_    0.000500 0.316563 0.062274 0.125440
H2    H     H_    0.996149 0.385798 0.431339 0.254967
H3    H     H_    0.985218 0.727606 0.943883 0.127469
H4    H     H_    0.424283 0.418064 0.218158 0.145523
H5    H     H_    0.585033 0.568370 0.779788 0.157367
H6    H     H_    0.919485 0.314187 0.924579 0.153455
H7    H     H_    0.068966 0.724280 0.080510 0.154080
H8    H     H_    0.219933 0.380798 0.150071 0.140585
H9    H     H_    0.765386 0.663266 0.856199 0.136263
H10   H     H_    0.003849 0.614202 0.568662 0.256913
N1    N     N_2   0.945180 0.542040 0.524240 -0.202575
N2    N     N_2   0.054820 0.457960 0.475760 -0.204169
O1    O     O_R   0.384450 0.714270 0.493720 -0.490981
O2    O     O_R   0.615550 0.285730 0.506280 -0.490336
O3    O     O_R   0.684880 0.742590 0.510050 -0.451024
O4    O     O_R   0.315120 0.257410 0.489950 -0.452281
O5    O     O_R   0.265540 0.477900 0.617090 -0.468473
O6    O     O_R   0.734460 0.522100 0.382910 -0.470917
O7    O     O_R   0.565970 0.506210 0.633420 -0.498206
O8    O     O_R   0.434030 0.493790 0.366580 -0.498124

loop_
_geom_bond_atom_site_label_1
_geom_bond_atom_site_label_2
_ccdc_geom_bond_type
C2    C4    S    
C10   C13   A    
Cu2   N1    S    
Cu1   Cu2   S    
C3    C9    A    
Cu1   N2    S    
C5    C7    A    
N1    N2    D    
Cu2   O3    S    
C18   C20   A    
C13   C17   A    
Cu1   O4    S    
C4    C8    A    
C1    O3    A    
C17   C18   A    
C5    C14   A    
C6    H7    S    
C1    C22   S    
C10   H4    S    
C23   Cl4   S    
Cu1   O1    S    
C8    Cl1   S    
C9    C11   A    
C12   C23   S    
Cu2   O2    S    
C3    C24   S    
C7    Cl2   S    
C19   H9    S    
Cu1   O5    S    
C16   C19   A    
Cu2   O6    S    
H10   N1    S    
C19   C21   A    
Cu2   O7    S    
C3    C7    A    
Cu1   O8    S    
C13   C15   A    
C18   H8    S    
C22   Cl3   S    
C11   C14   A    
C21   H3    S    
C4    C10   A    
C5    H6    S    
C14   C20   A    
C15   C21   A    
C12   O4    A    
C11   C16   A    
C24   O7    A    
C9    H5    S    
H2    N2    S    
C22   C23   D    
C12   O2    A    
C6    C8    A    
C2    O8    A    
C2    O6    A    
C6    C15   A    
C24   O5    A    
C1    O1    A    
C16   C17   A    
C20   H1    S    
