data_mof_unit_12970.cif
_audit_creation_date              2012-10-26T21:10:47-0400
_audit_creation_method            fapswitch 2.2
_symmetry_space_group_name_H-M    P1
_symmetry_Int_Tables_number       1
_space_group_crystal_system       triclinic
_cell_length_a                    10.819761
_cell_length_b                    14.687979
_cell_length_c                    14.671299
_cell_angle_alpha                 65.265151
_cell_angle_beta                  103.170259
_cell_angle_gamma                 103.111253
_cell_volume                      2039.03145721

loop_
_atom_site_label
_atom_site_type_symbol
_atom_type_description
_atom_site_fract_x
_atom_site_fract_y
_atom_site_fract_z
_atom_type_partial_charge
C1    C     C_R   0.477534 0.119666 0.312154 0.543273
C2    C     C_R   0.626863 0.784086 0.971218 -0.145086
C3    C     C_R   0.426794 0.149742 0.127494 -0.146467
C4    C     C_R   0.603036 0.850776 0.870491 -0.151031
C5    C     C_R   0.500940 0.291745 0.179126 -0.138748
C6    C     C_R   0.516740 0.708334 0.820880 -0.141175
C7    C     C_R   0.501055 0.360261 0.077909 0.030206
C8    C     C_R   0.546348 0.639465 0.920753 0.030291
C9    C     C_R   0.460345 0.320802 0.000872 0.049456
C10   C     C_R   0.598456 0.678962 0.996913 0.050721
C11   C     C_R   0.537847 0.466691 0.051272 0.030258
C12   C     C_R   0.523641 0.880397 0.687758 0.544211
C13   C     C_R   0.522506 0.532746 0.947078 0.030655
C14   C     C_R   0.486482 0.490005 0.872621 -0.140641
C15   C     C_R   0.590924 0.509276 0.125004 -0.141256
C16   C     C_R   0.262654 0.000548 0.499671 0.554830
C17   C     C_R   0.737365 0.999475 0.500213 0.555177
C18   C     C_R   0.456499 0.386027 0.899355 -0.135634
C19   C     C_R   0.621606 0.613306 0.097873 -0.135546
C20   C     C_R   0.697910 0.278450 0.678781 -0.162521
C21   C     C_R   0.301103 0.721058 0.321876 -0.162039
C22   C     C_R   0.670432 0.199220 0.645459 0.042795
C23   C     C_R   0.871323 0.998176 0.501010 0.003126
C24   C     C_R   0.329280 0.800627 0.354731 0.042334
C25   C     C_R   0.522589 0.286894 0.506392 0.032961
C26   C     C_R   0.477079 0.712948 0.493866 0.032004
C27   C     C_R   0.546852 0.370843 0.535899 -0.002296
C28   C     C_R   0.452174 0.628687 0.464790 -0.002691
C29   C     C_R   0.636076 0.364105 0.624804 0.035808
C30   C     C_R   0.362641 0.635272 0.376071 0.036229
C31   C     C_R   0.485171 0.459688 0.481944 0.019423
C32   C     C_R   0.513557 0.539700 0.518942 0.019519
C33   C     C_R   0.601819 0.527782 0.608933 -0.148023
C34   C     C_R   0.128692 0.001495 0.499058 0.003292
C35   C     C_R   0.396531 0.471432 0.392170 -0.145085
C36   C     C_R   0.661898 0.442034 0.660209 -0.132694
C37   C     C_R   0.336267 0.557084 0.341006 -0.130064
C38   C     C_R   0.326741 0.946601 0.827725 -0.110334
C39   C     C_R   0.686181 0.049466 0.166382 -0.114462
C40   C     C_R   0.234594 0.935258 0.747687 -0.089094
C41   C     C_R   0.773634 0.062188 0.247994 -0.091964
C42   C     C_R   0.192093 0.020936 0.666712 0.049789
C43   C     C_R   0.808399 0.977159 0.333847 0.051020
C44   C     C_R   0.243415 0.117952 0.666260 -0.063466
C45   C     C_R   0.906972 0.989975 0.418207 -0.030358
C46   C     C_R   0.753364 0.879502 0.337782 -0.059780
C47   C     C_R   0.337256 0.129018 0.745576 -0.103426
C48   C     C_R   0.663445 0.867237 0.257054 -0.104891
C49   C     C_R   0.378705 0.043370 0.826373 -0.106747
C50   C     C_R   0.630252 0.952182 0.171205 -0.111847
C51   C     C_R   0.963170 0.005878 0.584156 -0.033910
C52   C     C_R   0.036898 0.993483 0.416075 -0.033960
C53   C     C_3   0.921272 0.007321 0.675722 -0.379871
C54   C     C_3   0.078907 0.990838 0.325069 -0.379742
C55   C     C_R   0.093085 0.009301 0.582036 -0.029888
C56   C     C_R   0.467173 0.187340 0.204446 -0.004861
C57   C     C_R   0.546766 0.812956 0.795012 -0.007131
C58   C     C_R   0.423642 0.216142 0.026202 -0.146968
Cu1   Cu    Cu3+1 0.466270 0.918260 0.475690 0.930950
Cu2   Cu    Cu3+1 0.533730 0.081740 0.524310 0.931887
H1    H     H_    0.450835 0.051944 0.888018 0.091278
H2    H     H_    0.452585 0.283677 0.442347 0.117310
H3    H     H_    0.284427 0.867909 0.311288 0.113486
H4    H     H_    0.715508 0.132023 0.688743 0.112899
H5    H     H_    0.765883 0.272167 0.747232 0.088036
H6    H     H_    0.232860 0.727192 0.253588 0.088174
H7    H     H_    0.626497 0.583465 0.642427 0.091202
H8    H     H_    0.371558 0.415641 0.358806 0.093038
H9    H     H_    0.358026 0.880327 0.890741 0.113080
H10   H     H_    0.661917 0.115099 0.099281 0.114357
H11   H     H_    0.195687 0.860034 0.749035 0.102403
H12   H     H_    0.561690 0.942650 0.108247 0.094268
H13   H     H_    0.816158 0.137863 0.243605 0.104748
H14   H     H_    0.211650 0.184703 0.604077 0.105023
H15   H     H_    0.779734 0.813232 0.403468 0.105301
H16   H     H_    0.377612 0.203920 0.744527 0.102472
H17   H     H_    0.620296 0.791919 0.260705 0.106571
H18   H     H_    0.428771 0.356569 0.839878 0.107675
H19   H     H_    0.662490 0.642581 0.156715 0.105866
H20   H     H_    0.467444 0.682260 0.761781 0.121487
H21   H     H_    0.524864 0.317898 0.240166 0.119498
H22   H     H_    0.627592 0.931603 0.851875 0.123749
H23   H     H_    0.392786 0.185652 0.967583 0.100982
H24   H     H_    0.399056 0.069186 0.145533 0.127148
H25   H     H_    0.995236 0.989995 0.744181 0.127656
H26   H     H_    0.897884 0.083417 0.657107 0.142302
H27   H     H_    0.836106 0.949008 0.697866 0.132595
H28   H     H_    0.005050 0.006965 0.256599 0.127282
H29   H     H_    0.163757 0.049293 0.302297 0.130997
H30   H     H_    0.102767 0.914644 0.344757 0.143438
H31   H     H_    0.668037 0.814650 0.029035 0.103398
H32   H     H_    0.483717 0.534753 0.792520 0.102044
H33   H     H_    0.613705 0.464511 0.204669 0.104775
H34   H     H_    0.729085 0.436470 0.728932 0.111459
H35   H     H_    0.268650 0.562453 0.272530 0.110069
H36   H     H_    0.547352 0.716264 0.557752 0.117538
N1    N     N_R   0.584450 0.204570 0.560790 -0.227926
N2    N     N_R   0.415550 0.795430 0.439210 -0.228074
O1    O     O_R   0.455540 0.022090 0.338120 -0.502116
O2    O     O_R   0.544460 0.977910 0.661880 -0.501287
O3    O     O_R   0.512510 0.160150 0.379180 -0.516261
O4    O     O_R   0.487490 0.839850 0.620820 -0.515806
O5    O     O_R   0.291160 0.930970 0.479480 -0.503686
O6    O     O_R   0.708840 0.069030 0.520520 -0.503114
O7    O     O_R   0.348130 0.069020 0.520540 -0.495158
O8    O     O_R   0.651870 0.930980 0.479460 -0.496694

loop_
_geom_bond_atom_site_label_1
_geom_bond_atom_site_label_2
_ccdc_geom_bond_type
C38   C40   A    
C8    C13   A    
C23   C45   A    
C40   H11   S    
C21   H6    S    
C27   C29   A    
Cu1   O1    S    
C14   C18   A    
C5    C56   A    
C2    C4    A    
C1    O1    A    
C47   C49   A    
C38   C49   A    
C7    C11   A    
C29   C36   A    
C17   C23   S    
C24   N2    A    
C35   C37   A    
C17   O6    A    
C47   H16   S    
C54   H30   S    
C33   C36   A    
C37   H35   S    
C9    C58   A    
C50   H12   S    
C16   C34   S    
C6    H20   S    
C4    C57   A    
C53   H26   S    
C44   C47   A    
C40   C42   A    
C38   H9    S    
Cu1   Cu2   S    
C22   N1    A    
C13   C14   A    
C41   C43   A    
C6    C57   A    
C42   C44   A    
C46   H15   S    
C52   C54   S    
C20   C29   A    
C26   H36   S    
C46   C48   A    
Cu1   O8    S    
C49   H1    S    
C27   C31   A    
C20   H5    S    
C28   C32   A    
C54   H29   S    
C39   C41   A    
Cu2   N1    S    
C5    C7    A    
C6    C8    A    
C45   C52   A    
C22   H4    S    
C30   C37   A    
C51   C53   S    
C48   H17   S    
C15   C19   A    
C12   O4    A    
C42   C55   S    
C5    H21   S    
C3    C56   A    
C16   O5    A    
C23   C51   A    
C31   C32   A    
C10   C19   A    
C18   H18   S    
C53   H27   S    
C19   H19   S    
C43   C45   S    
C14   H32   S    
C16   O7    A    
C26   N2    A    
C12   C57   S    
C25   N1    A    
C20   C22   A    
C24   H3    S    
C11   C15   A    
C31   C35   A    
Cu2   O3    S    
C2    C10   A    
C1    O3    A    
C33   H7    S    
C7    C9    A    
Cu1   O4    S    
C34   C52   A    
C1    C56   S    
C44   H14   S    
Cu2   O2    S    
C15   H33   S    
C25   C27   A    
C21   C30   A    
C26   C28   A    
Cu1   O5    S    
C32   C33   A    
C28   C30   A    
Cu2   O6    S    
C17   O8    A    
C54   H28   S    
C11   C13   A    
C35   H8    S    
C48   C50   A    
C39   H10   S    
C51   C55   A    
C25   H2    S    
C2    H31   S    
C43   C46   A    
C12   O2    A    
C41   H13   S    
C3    C58   A    
C36   H34   S    
C9    C18   A    
C34   C55   A    
C39   C50   A    
C4    H22   S    
C8    C10   A    
C21   C24   A    
C3    H24   S    
Cu1   N2    S    
C53   H25   S    
C58   H23   S    
Cu2   O7    S    
