data_mof_unit_17677.cif
_audit_creation_date              2012-12-11T15:45:04-0500
_audit_creation_method            fapswitch 2.2
_symmetry_space_group_name_H-M    P1
_symmetry_Int_Tables_number       1
_space_group_crystal_system       triclinic
_cell_length_a                    19.56965
_cell_length_b                    11.011577
_cell_length_c                    18.620045
_cell_angle_alpha                 90.345456
_cell_angle_beta                  91.02029
_cell_angle_gamma                 89.746261
_cell_volume                      4011.73735606

loop_
_atom_site_label
_atom_site_type_symbol
_atom_type_description
_atom_site_fract_x
_atom_site_fract_y
_atom_site_fract_z
_atom_type_partial_charge
C1    C     C_R   0.759272 0.537196 0.647766 0.562639
C2    C     C_R   0.241124 0.537288 0.352058 0.569983
C3    C     C_R   0.259272 0.037196 0.647766 0.562639
C4    C     C_R   0.741124 0.037288 0.352058 0.569983
C5    C     C_R   0.836421 0.104197 0.522099 -0.134214
C6    C     C_R   0.160265 0.130749 0.482744 -0.169582
C7    C     C_R   0.336421 0.604197 0.522099 -0.134214
C8    C     C_R   0.660265 0.630749 0.482744 -0.169582
C9    C     C_R   0.826269 0.079166 0.449221 -0.131848
C10   C     C_R   0.171808 0.105793 0.556277 -0.133984
C11   C     C_R   0.326269 0.579166 0.449221 -0.131849
C12   C     C_R   0.671808 0.605793 0.556277 -0.133984
C13   C     C_3   0.650975 0.182430 0.459816 0.101444
C14   C     C_3   0.356581 0.160882 0.535377 0.151943
C15   C     C_3   0.150975 0.682430 0.459816 0.101444
C16   C     C_3   0.856581 0.660882 0.535377 0.151944
C17   C     C_3   0.664580 0.230940 0.535375 0.111817
C18   C     C_3   0.342305 0.195780 0.457767 0.114810
C19   C     C_3   0.164580 0.730940 0.535375 0.111817
C20   C     C_3   0.842305 0.695780 0.457767 0.114809
C21   C     C_R   0.789417 0.174149 0.560023 -0.027566
C22   C     C_R   0.212858 0.175296 0.440407 -0.030176
C23   C     C_R   0.289417 0.674149 0.560023 -0.027565
C24   C     C_R   0.712858 0.675296 0.440407 -0.030176
C25   C     C_R   0.997799 0.342891 0.425708 -0.009236
C26   C     C_R   0.006560 0.331117 0.577432 0.005682
C27   C     C_R   0.497799 0.842891 0.425708 -0.009237
C28   C     C_R   0.506560 0.831117 0.577432 0.005682
C29   C     C_R   0.982866 0.122281 0.420826 -0.106981
C30   C     C_R   0.004565 0.107942 0.568778 -0.116139
C31   C     C_R   0.482866 0.622281 0.420825 -0.106980
C32   C     C_R   0.504565 0.607942 0.568778 -0.116139
C33   C     C_R   0.989923 0.010216 0.453176 -0.141084
C34   C     C_R   0.000764 0.002732 0.527043 -0.132413
C35   C     C_R   0.489923 0.510216 0.453176 -0.141084
C36   C     C_R   0.500764 0.502732 0.527043 -0.132413
C37   C     C_R   0.000317 0.223152 0.536460 -0.016178
C38   C     C_R   0.993072 0.229894 0.460545 -0.017947
C39   C     C_R   0.500317 0.723152 0.536460 -0.016177
C40   C     C_R   0.493072 0.729894 0.460545 -0.017947
C41   C     C_R   0.019299 0.439750 0.541800 0.060157
C42   C     C_R   0.000052 0.450283 0.468669 0.077329
C43   C     C_R   0.519299 0.939750 0.541800 0.060157
C44   C     C_R   0.500052 0.950283 0.468669 0.077329
C45   C     C_R   0.792615 0.175511 0.639726 0.570298
C46   C     C_R   0.207771 0.175131 0.360584 0.567370
C47   C     C_R   0.292615 0.675511 0.639726 0.570299
C48   C     C_R   0.707771 0.675131 0.360584 0.567370
C49   C     C_R   0.040848 0.542750 0.581194 0.282408
C50   C     C_R   0.987314 0.568701 0.441312 0.335890
C51   C     C_R   0.540848 0.042750 0.581194 0.282408
C52   C     C_R   0.487314 0.068702 0.441312 0.335891
C53   C     C_R   0.023242 0.656781 0.555787 -0.109178
C54   C     C_R   0.999837 0.669714 0.485707 -0.089479
C55   C     C_R   0.523242 0.156781 0.555787 -0.109178
C56   C     C_R   0.499837 0.169715 0.485707 -0.089479
C57   C     C_R   0.743500 0.076605 0.075407 0.038496
C58   C     C_R   0.243544 0.083424 0.920675 -0.028221
C59   C     C_R   0.243496 0.576592 0.075404 0.038520
C60   C     C_R   0.743544 0.583424 0.920675 -0.028233
C61   C     C_R   0.806026 0.106778 0.047409 0.017495
C62   C     C_R   0.194959 0.022498 0.961396 0.034725
C63   C     C_R   0.306018 0.606791 0.047409 0.017493
C64   C     C_R   0.694958 0.522501 0.961395 0.034704
C65   C     C_R   0.813775 0.112510 0.974836 0.037427
C66   C     C_R   0.192557 0.036758 0.033942 0.089154
C67   C     C_R   0.313768 0.612528 0.974837 0.037418
C68   C     C_R   0.692555 0.536762 0.033941 0.089176
C69   C     C_R   0.693619 0.081002 0.953444 0.183131
C70   C     C_R   0.282703 0.185456 0.028649 0.225326
C71   C     C_R   0.193619 0.580969 0.953439 0.183139
C72   C     C_R   0.782706 0.685451 0.028650 0.225324
C73   C     C_R   0.686183 0.072028 0.028194 -0.050770
C74   C     C_R   0.281146 0.176094 0.953530 -0.054501
C75   C     C_R   0.186183 0.571988 0.028189 -0.050746
C76   C     C_R   0.781149 0.676090 0.953531 -0.054489
C77   C     C_3   0.877148 0.062677 0.060448 -0.219606
C78   C     C_3   0.177826 0.890122 0.966472 -0.138577
C79   C     C_3   0.377145 0.562723 0.060450 -0.219499
C80   C     C_3   0.677826 0.390124 0.966472 -0.138579
C81   C     C_3   0.884791 0.064050 0.979171 0.131139
C82   C     C_3   0.174151 0.907674 0.046958 0.098174
C83   C     C_3   0.384791 0.564110 0.979174 0.131166
C84   C     C_3   0.674149 0.407677 0.046957 0.098179
C85   C     C_R   0.759934 0.094265 0.926009 0.037521
C86   C     C_R   0.239284 0.109456 0.070157 0.019602
C87   C     C_R   0.259932 0.594263 0.926008 0.037517
C88   C     C_R   0.739284 0.609455 0.070157 0.019631
C89   C     C_R   0.972301 0.343974 0.647851 0.593819
C90   C     C_R   0.028214 0.347078 0.352877 0.572348
C91   C     C_R   0.472301 0.843974 0.647851 0.593822
C92   C     C_R   0.528214 0.847078 0.352877 0.572348
C93   C     C_R   0.019949 0.335951 0.067622 -0.076490
C94   C     C_R   0.012524 0.346260 0.917408 -0.036491
C95   C     C_R   0.519954 0.835953 0.067620 -0.076506
C96   C     C_R   0.512528 0.846261 0.917407 -0.036507
C97   C     C_R   0.015754 0.445087 0.031575 -0.004849
C98   C     C_R   0.014685 0.452178 0.959396 0.059158
C99   C     C_R   0.515771 0.945093 0.031574 -0.004837
C100  C     C_R   0.514695 0.952182 0.959394 0.059136
C101  C     C_R   0.034384 0.236946 0.949972 0.221731
C102  C     C_R   0.034850 0.229504 0.025546 0.233274
C103  C     C_R   0.534388 0.736946 0.949971 0.221728
C104  C     C_R   0.534853 0.729505 0.025545 0.233281
C105  C     C_3   0.981561 0.563991 0.044345 0.152590
C106  C     C_3   0.981665 0.576508 0.963181 0.153633
C107  C     C_3   0.481556 0.063979 0.044346 0.152607
C108  C     C_3   0.481657 0.076499 0.963183 0.153647
C109  C     C_R   0.759999 0.533072 0.851050 0.544273
C110  C     C_R   0.237831 0.530093 0.147427 0.547915
C111  C     C_R   0.259999 0.033072 0.851049 0.544274
C112  C     C_R   0.737832 0.030096 0.147428 0.547905
C113  C     C_R   0.773412 0.125627 0.852349 0.535052
C114  C     C_R   0.225382 0.131807 0.145307 0.562284
C115  C     C_R   0.273412 0.625625 0.852348 0.535050
C116  C     C_R   0.725382 0.631807 0.145307 0.562316
C117  C     C_R   0.972964 0.347773 0.851081 0.558152
C118  C     C_R   0.033481 0.345793 0.144064 0.544710
C119  C     C_R   0.472963 0.847774 0.851082 0.558163
C120  C     C_R   0.533482 0.845793 0.144063 0.544700
C121  C     C_R   0.765364 0.112362 0.413633 0.010139
C122  C     C_R   0.237707 0.115809 0.586794 0.007208
C123  C     C_R   0.265364 0.612362 0.413633 0.010139
C124  C     C_R   0.737707 0.615810 0.586794 0.007209
C125  C     C_R   0.724529 0.196578 0.447990 -0.024612
C126  C     C_R   0.283660 0.185283 0.548933 -0.006834
C127  C     C_R   0.224529 0.696578 0.447990 -0.024612
C128  C     C_R   0.783661 0.685283 0.548933 -0.006833
C129  C     C_R   0.738203 0.233068 0.519483 0.013177
C130  C     C_R   0.270754 0.216927 0.477322 0.041849
C131  C     C_R   0.238203 0.733068 0.519483 0.013177
C132  C     C_R   0.770754 0.716927 0.477322 0.041849
Cr1   Cr    Cr6+3 0.885860 0.491680 0.749630 1.051593
Cr2   Cr    Cr6+3 0.114140 0.491680 0.250370 1.078979
Cr3   Cr    Cr6+3 0.385860 0.991680 0.749630 1.051580
Cr4   Cr    Cr6+3 0.614140 0.991680 0.250370 1.078969
Cr5   Cr    Cr6+3 0.730490 0.332970 0.748720 1.035565
Cr6   Cr    Cr6+3 0.269510 0.332970 0.251280 1.007411
Cr7   Cr    Cr6+3 0.230490 0.832970 0.748720 1.035573
Cr8   Cr    Cr6+3 0.769510 0.832970 0.251280 1.007408
Cr9   Cr    Cr6+3 0.887570 0.179310 0.750150 1.028132
Cr10  Cr    Cr6+3 0.112430 0.179310 0.249850 1.002826
Cr11  Cr    Cr6+3 0.387570 0.679310 0.750150 1.028105
Cr12  Cr    Cr6+3 0.612430 0.679310 0.249850 1.002833
H1    H     H_    0.031844 0.735490 0.589356 0.118458
H2    H     H_    0.991625 0.758889 0.465919 0.122755
H3    H     H_    0.531844 0.235490 0.589356 0.118457
H4    H     H_    0.491625 0.258889 0.465919 0.122755
H5    H     H_    0.881051 0.970940 0.084325 0.215586
H6    H     H_    0.220997 0.831591 0.949680 0.172791
H7    H     H_    0.381060 0.470983 0.084323 0.215605
H8    H     H_    0.720998 0.331595 0.949681 0.172794
O1    O     O_R   0.957020 0.451640 0.669920 -0.441879
O2    O     O_R   0.042980 0.451640 0.330080 -0.426352
O3    O     O_R   0.457020 0.951640 0.669920 -0.441879
O4    O     O_R   0.542980 0.951640 0.330080 -0.426350
O5    O     O_R   0.736470 0.210100 0.823360 -0.511317
O6    O     O_R   0.263530 0.210100 0.176640 -0.492596
O7    O     O_R   0.236470 0.710100 0.823360 -0.511310
O8    O     O_R   0.763530 0.710100 0.176640 -0.492602
O9    O     O_R   0.831960 0.093290 0.830130 -0.470956
O10   O     O_R   0.168040 0.093290 0.169870 -0.502733
O11   O     O_R   0.331960 0.593290 0.830130 -0.470977
O12   O     O_R   0.668040 0.593290 0.169870 -0.502721
O13   O     O_R   0.945600 0.250580 0.824860 -0.505520
O14   O     O_R   0.054400 0.250580 0.175140 -0.509677
O15   O     O_R   0.445600 0.750580 0.824860 -0.505522
O16   O     O_R   0.554400 0.750580 0.175140 -0.509673
O17   O     O_3   0.834640 0.334650 0.749500 -0.292680
O18   O     O_3   0.165360 0.334650 0.250500 -0.290454
O19   O     O_3   0.334640 0.834650 0.749500 -0.292673
O20   O     O_3   0.665360 0.834650 0.250500 -0.290452
O21   O     O_R   0.821450 0.543440 0.674610 -0.470516
O22   O     O_R   0.178550 0.543440 0.325390 -0.456365
O23   O     O_R   0.321450 0.043440 0.674610 -0.470517
O24   O     O_R   0.678550 0.043440 0.325390 -0.456365
O25   O     O_R   0.715320 0.458650 0.668100 -0.491117
O26   O     O_R   0.284680 0.458650 0.331900 -0.547958
O27   O     O_R   0.215320 0.958650 0.668100 -0.491116
O28   O     O_R   0.784680 0.958650 0.331900 -0.547958
O29   O     O_R   0.737170 0.209590 0.674530 -0.488219
O30   O     O_R   0.262830 0.209590 0.325470 -0.506349
O31   O     O_R   0.237170 0.709590 0.674530 -0.488218
O32   O     O_R   0.762830 0.709590 0.325470 -0.506349
O33   O     O_R   0.832710 0.092740 0.669580 -0.522193
O34   O     O_R   0.167290 0.092740 0.330420 -0.522996
O35   O     O_R   0.332710 0.592740 0.669580 -0.522197
O36   O     O_R   0.667290 0.592740 0.330420 -0.522995
O37   O     O_R   0.946290 0.250060 0.676040 -0.549090
O38   O     O_R   0.053710 0.250060 0.323960 -0.543824
O39   O     O_R   0.446290 0.750060 0.676040 -0.549090
O40   O     O_R   0.553710 0.750060 0.323960 -0.543824
O41   O     O_R   0.956270 0.452200 0.830470 -0.478519
O42   O     O_R   0.043730 0.452200 0.169530 -0.463408
O43   O     O_R   0.456270 0.952200 0.830470 -0.478526
O44   O     O_R   0.543730 0.952200 0.169530 -0.463414
O45   O     O_R   0.820760 0.543950 0.823440 -0.491250
O46   O     O_R   0.179240 0.543950 0.176560 -0.504264
O47   O     O_R   0.320760 0.043950 0.823440 -0.491267
O48   O     O_R   0.679240 0.043950 0.176560 -0.504287
O49   O     O_R   0.714570 0.459210 0.828640 -0.521986
O50   O     O_R   0.285430 0.459210 0.171360 -0.508887
O51   O     O_R   0.214570 0.959210 0.828640 -0.521983
O52   O     O_R   0.785430 0.959210 0.171360 -0.508883
H9    H     H_    0.876277 0.056463 0.550441 0.178586
H10   H     H_    0.113323 0.103392 0.457322 0.164798
H11   H     H_    0.376277 0.556463 0.550441 0.178586
H12   H     H_    0.613323 0.603392 0.457322 0.164798
O53   O     O_3   0.636200 0.070608 0.909961 -0.736262
H13   H     H_    0.649911 0.054563 0.859882 0.339316
O54   O     O_3   0.328888 0.265286 0.058761 -0.672259
H14   H     H_    0.353657 0.221737 0.097697 0.325482
O55   O     O_3   0.136205 0.570550 0.909953 -0.736269
H15   H     H_    0.149919 0.554512 0.859875 0.339315
O56   O     O_3   0.828893 0.765275 0.058762 -0.672320
H16   H     H_    0.853657 0.721727 0.097701 0.325478
H17   H     H_    0.636681 0.050633 0.048702 0.202424
H18   H     H_    0.314324 0.232456 0.922176 0.186941
H19   H     H_    0.136684 0.550567 0.048695 0.202404
H20   H     H_    0.814329 0.732449 0.922177 0.186982
H21   H     H_    0.907255 0.133845 0.088802 0.079287
H22   H     H_    0.127511 0.868439 0.940966 0.151640
H23   H     H_    0.407243 0.633900 0.088808 0.079265
H24   H     H_    0.627512 0.368439 0.940964 0.151649
H25   H     H_    0.921544 0.129215 0.957869 0.171802
H26   H     H_    0.122127 0.894794 0.068975 0.169491
H27   H     H_    0.421528 0.629306 0.957874 0.171697
H28   H     H_    0.622124 0.394797 0.068972 0.169483
O57   O     O_3   0.889527 0.947004 0.949666 -0.659911
H29   H     H_    0.937904 0.921832 0.956709 0.342479
O58   O     O_3   0.226414 0.845368 0.083816 -0.730632
H30   H     H_    0.215611 0.851895 0.135542 0.336283
O59   O     O_3   0.389550 0.447069 0.949669 -0.659895
H31   H     H_    0.437965 0.422019 0.956597 0.342506
O60   O     O_3   0.726412 0.345375 0.083818 -0.730616
H32   H     H_    0.715582 0.351834 0.135542 0.336270
O61   O     O_3   0.048071 0.133186 0.910685 -0.670883
H33   H     H_    0.057663 0.156963 0.860624 0.324586
O62   O     O_3   0.049186 0.117294 0.054720 -0.673087
H34   H     H_    0.019546 0.104639 0.096281 0.323192
O63   O     O_3   0.548069 0.633184 0.910684 -0.670932
H35   H     H_    0.557663 0.656960 0.860623 0.324587
O64   O     O_3   0.549181 0.617292 0.054719 -0.673084
H36   H     H_    0.519537 0.604645 0.096279 0.323197
O65   O     O_3   0.024801 0.648126 0.078572 -0.712405
H37   H     H_    0.998218 0.724901 0.081151 0.317118
O66   O     O_3   0.915101 0.579221 0.935611 -0.700852
H38   H     H_    0.915070 0.642493 0.897908 0.337386
O67   O     O_3   0.524783 0.148138 0.078572 -0.712408
H39   H     H_    0.498188 0.224903 0.081149 0.317148
O68   O     O_3   0.415090 0.079185 0.935616 -0.700847
H40   H     H_    0.415051 0.142462 0.897914 0.337392
H41   H     H_    0.930524 0.554834 0.069215 0.147414
H42   H     H_    0.015316 0.650725 0.943845 0.168917
H43   H     H_    0.430520 0.054794 0.069217 0.147408
H44   H     H_    0.515296 0.150734 0.943847 0.168923
H45   H     H_    0.861215 0.018524 0.423701 0.197622
H46   H     H_    0.132481 0.062397 0.586353 0.186220
H47   H     H_    0.361215 0.518524 0.423701 0.197623
H48   H     H_    0.632480 0.562397 0.586353 0.186219
O69   O     O_3   0.132271 0.558955 0.458370 -0.708470
H49   H     H_    0.161615 0.512475 0.492738 0.323687
O70   O     O_3   0.874405 0.537496 0.543556 -0.711844
H50   H     H_    0.842253 0.486568 0.514612 0.313375
O71   O     O_3   0.632272 0.058955 0.458370 -0.708469
H51   H     H_    0.661615 0.012475 0.492738 0.323687
O72   O     O_3   0.374405 0.037496 0.543556 -0.711844
H52   H     H_    0.342253 0.986568 0.514612 0.313375
H53   H     H_    0.619120 0.239773 0.423345 0.140944
H54   H     H_    0.389996 0.223775 0.566712 0.170035
H55   H     H_    0.119120 0.739773 0.423345 0.140944
H56   H     H_    0.889996 0.723775 0.566712 0.170036
O73   O     O_3   0.638235 0.347372 0.547831 -0.736165
H57   H     H_    0.637186 0.391784 0.501696 0.317701
O74   O     O_3   0.373289 0.304694 0.439380 -0.768085
H58   H     H_    0.373312 0.306985 0.386187 0.339536
O75   O     O_3   0.138235 0.847372 0.547831 -0.736164
H59   H     H_    0.137186 0.891784 0.501696 0.317701
O76   O     O_3   0.873289 0.804695 0.439380 -0.768085
H60   H     H_    0.873312 0.806985 0.386188 0.339536
H61   H     H_    0.654050 0.167661 0.579243 0.192708
H62   H     H_    0.346925 0.120904 0.417909 0.179950
H63   H     H_    0.154050 0.667661 0.579243 0.192708
H64   H     H_    0.846924 0.620904 0.417909 0.179950
H65   H     H_    0.985362 0.930921 0.419550 0.124322
H66   H     H_    0.004281 0.916109 0.552779 0.142560
H67   H     H_    0.485361 0.430922 0.419550 0.124322
H68   H     H_    0.504281 0.416109 0.552779 0.142559
H69   H     H_    0.968615 0.123284 0.364443 0.132430
H70   H     H_    0.015048 0.097560 0.625609 0.138204
H71   H     H_    0.468615 0.623284 0.364443 0.132429
H72   H     H_    0.515048 0.597560 0.625609 0.138202
O77   O     O_3   0.956924 0.584645 0.374455 -0.701039
H73   H     H_    0.962231 0.670453 0.359802 0.308586
O78   O     O_3   0.076197 0.528380 0.645799 -0.705898
H74   H     H_    0.081444 0.608586 0.669763 0.321447
O79   O     O_3   0.456924 0.084645 0.374455 -0.701039
H75   H     H_    0.462231 0.170453 0.359802 0.308587
O80   O     O_3   0.576197 0.028380 0.645799 -0.705898
H76   H     H_    0.581444 0.108585 0.669763 0.321445

loop_
_geom_bond_atom_site_label_1
_geom_bond_atom_site_label_2
_ccdc_geom_bond_type
C82   O58   S    
C109  O45   A    
C20   O76   S    
C105  H41   S    
C2    C123  S    
C120  O44   A    
C48   O36   A    
Cr3   O47   S    
C94   C117  S    
C95   C99   A    
C29   C33   A    
C35   C36   A    
C70   C74   A    
C9    C121  A    
Cr7   O19   S    
C87   C115  S    
Cr10  O18   S    
C97   C105  S    
C122  C126  A    
Cr7   O7    S    
C81   O57   S    
O65   H37   S    
Cr12  O12   S    
C20   C132  S    
C41   C49   A    
O68   H40   S    
C84   O60   S    
C47   O31   A    
C111  O51   A    
C48   O32   A    
C30   C34   A    
C91   O39   A    
C60   C76   A    
Cr6   O26   S    
C11   H47   S    
C25   C42   A    
C43   C44   A    
C6    C10   A    
O57   H29   S    
C66   C82   S    
C78   C82   S    
C75   H19   S    
C16   C20   S    
Cr9   O17   S    
Cr8   O32   S    
C46   O34   A    
C57   C61   A    
C33   H65   S    
C125  C129  A    
C35   H67   S    
C18   C130  S    
C112  O52   A    
C119  O15   A    
C120  O16   A    
Cr11  O15   S    
Cr1   O45   S    
Cr2   O22   S    
C25   C90   S    
C10   C122  A    
C14   C126  S    
C17   O73   S    
Cr4   O44   S    
C19   H63   S    
C59   C63   A    
C98   C106  S    
C110  O50   A    
C60   C64   A    
C1    C124  S    
Cr6   O50   S    
C45   O33   A    
C49   C53   A    
Cr8   O28   S    
C107  H43   S    
C49   O78   S    
C119  O43   A    
C115  O11   A    
Cr6   O30   S    
C127  C131  A    
Cr4   O48   S    
C117  O41   A    
C113  O9    A    
C61   C65   A    
Cr2   O42   S    
C72   O56   S    
C5    C21   A    
C126  C130  A    
C113  O5    A    
Cr1   O21   S    
C112  O48   A    
C6    C22   A    
Cr4   O24   S    
C67   C83   S    
C97   C98   A    
C53   C54   A    
C5    C9    A    
C82   H26   S    
C1    O21   A    
C102  O62   S    
C64   C68   A    
Cr8   O52   S    
O69   H49   S    
C31   H71   S    
Cr5   O29   S    
O63   H35   S    
C57   C73   A    
C60   C109  S    
C55   H3    S    
C27   C44   A    
C83   O59   S    
C61   C77   S    
C18   H62   S    
C29   C38   A    
C107  C108  S    
C106  O66   S    
O59   H31   S    
C51   C55   A    
C44   C52   A    
O75   H59   S    
C33   C34   A    
C21   C45   S    
C100  C108  S    
C23   C47   S    
C62   C66   A    
C101  O61   S    
C24   C48   S    
Cr7   O27   S    
C7    H11   S    
C39   C40   A    
C121  C125  A    
O77   H73   S    
C15   O69   S    
C13   H53   S    
C25   C38   A    
Cr10  O14   S    
Cr6   O6    S    
C123  C127  A    
C27   C40   A    
C8    C12   A    
C105  O65   S    
C74   H18   S    
O53   H13   S    
C23   C131  A    
C21   C129  A    
C78   H22   S    
C42   C50   A    
C47   O35   A    
C93   C97   A    
C69   C85   A    
C14   O72   S    
C58   C74   A    
C90   O38   A    
Cr11  O39   S    
C62   C78   S    
C66   C86   A    
O72   H52   S    
C32   C36   A    
C79   H23   S    
C104  O64   S    
Cr9   O13   S    
Cr5   O5    S    
C46   O30   A    
C85   C113  S    
C13   C125  S    
Cr8   O8    S    
Cr5   O49   S    
C7    C23   A    
C34   H66   S    
C8    C24   A    
C28   C91   S    
C6    H10   S    
Cr9   O33   S    
Cr1   O41   S    
Cr2   O18   S    
C15   C127  S    
C2    O26   A    
C22   C130  A    
C70   C86   A    
C58   C62   A    
C55   C56   A    
C101  C102  A    
C9    H45   S    
C110  O46   A    
C41   C42   A    
C106  H42   S    
C96   C119  S    
O62   H34   S    
C80   C84   S    
C56   H4    S    
C51   O80   S    
C45   O29   A    
O70   H50   S    
O55   H15   S    
C15   C19   S    
C50   C54   A    
C116  O8    A    
C114  O10   A    
C94   C98   A    
O64   H36   S    
Cr10  O38   S    
C31   C40   A    
C80   H8    S    
C32   C39   A    
Cr11  O11   S    
Cr1   O17   S    
C114  O6    A    
C16   O70   S    
Cr4   O20   S    
C117  O13   A    
O60   H32   S    
C69   C73   A    
Cr3   O19   S    
C90   O2    A    
C72   C76   A    
C124  C128  A    
C17   H61   S    
C108  H44   S    
C64   C80   S    
C4    O28   A    
C16   H56   S    
C58   C111  S    
C68   C84   S    
Cr9   O37   S    
C77   H5    S    
O78   H74   S    
C63   C79   S    
Cr12  O40   S    
C28   C39   A    
C71   O55   S    
C30   C37   A    
C115  O7    A    
O80   H76   S    
C80   H24   S    
C24   C132  A    
C65   C81   S    
O54   H14   S    
C77   C81   S    
C53   H1    S    
O67   H39   S    
C71   C87   A    
C3    O23   A    
C22   C46   S    
C31   C35   A    
C29   H69   S    
C11   C123  A    
C13   O71   S    
C93   C102  A    
Cr10  O10   S    
C14   H54   S    
C26   C37   A    
C13   C17   S    
C95   C120  S    
C99   C107  S    
C105  C106  S    
Cr12  O20   S    
C28   C43   A    
C54   H2    S    
C50   O77   S    
C109  O49   A    
O76   H60   S    
Cr11  O19   S    
Cr7   O51   S    
C79   C83   S    
C43   C51   A    
Cr2   O2    S    
C76   H20   S    
C4    C121  S    
C118  O42   A    
Cr3   O43   S    
C4    O24   A    
C96   C103  A    
C103  C104  A    
C89   O37   A    
C20   H64   S    
C92   O40   A    
Cr9   O9    S    
Cr6   O18   S    
O79   H75   S    
C14   C18   S    
O56   H16   S    
C83   H27   S    
C26   C89   S    
C7    C11   A    
C37   C38   A    
C81   H25   S    
Cr12  O16   S    
Cr1   O1    S    
Cr4   O4    S    
C57   C112  S    
C96   C100  A    
C59   C110  S    
Cr3   O3    S    
C8    H12   S    
C3    O27   A    
C111  O47   A    
C1    O25   A    
C94   C101  A    
C10   H46   S    
O71   H51   S    
Cr5   O17   S    
C3    C122  S    
Cr8   O20   S    
C70   O54   S    
C15   H55   S    
C128  C132  A    
C72   C88   A    
C19   C131  S    
Cr10  O34   S    
C63   C67   A    
C107  O67   S    
C108  O68   S    
C17   C129  S    
C118  O14   A    
Cr3   O23   S    
C52   O79   S    
C88   C116  S    
C91   O3    A    
C89   O1    A    
C99   C100  A    
C12   C124  A    
O73   H57   S    
C73   H17   S    
C27   C92   S    
C92   O4    A    
C16   C128  S    
C32   H72   S    
C77   H21   S    
O74   H58   S    
C68   C88   A    
C69   O53   S    
C93   C118  S    
C84   H28   S    
C59   C75   A    
Cr7   O31   S    
C95   C104  A    
C78   H6    S    
C79   H7    S    
C18   O74   S    
Cr12  O36   S    
Cr2   O46   S    
C19   O75   S    
Cr11  O35   S    
C116  O12   A    
O66   H38   S    
C65   C85   A    
C67   C87   A    
C86   C114  S    
C2    O22   A    
C71   C75   A    
C103  O63   S    
C30   H70   S    
C5    H9    S    
Cr5   O25   S    
O58   H30   S    
C36   H68   S    
C12   H48   S    
O61   H33   S    
C52   C56   A    
C26   C41   A    
