data_mof_unit_44357.cif
_audit_creation_date              2012-10-26T20:19:35-0400
_audit_creation_method            fapswitch 2.2
_symmetry_space_group_name_H-M    P1
_symmetry_Int_Tables_number       1
_space_group_crystal_system       triclinic
_cell_length_a                    10.757583
_cell_length_b                    10.789435
_cell_length_c                    9.608814
_cell_angle_alpha                 89.84647
_cell_angle_beta                  89.854097
_cell_angle_gamma                 92.284485
_cell_volume                      1114.38382966

loop_
_atom_site_label
_atom_site_type_symbol
_atom_type_description
_atom_site_fract_x
_atom_site_fract_y
_atom_site_fract_z
_atom_type_partial_charge
C1    C     C_R   0.494716 0.262661 0.500215 0.542001
C2    C     C_R   0.400943 0.062034 0.589730 0.029839
C3    C     C_R   0.484825 0.128567 0.500563 0.000160
C4    C     C_R   0.260189 0.501517 0.500093 0.540910
C5    C     C_R   0.562273 0.066641 0.409719 -0.151383
C6    C     C_R   0.562015 0.938916 0.409774 -0.153299
C7    C     C_R   0.485685 0.870703 0.502104 0.016353
C8    C     C_R   0.662516 0.666680 0.142977 -0.095400
C9    C     C_R   0.741232 0.749119 0.070634 -0.182112
C10   C     C_R   0.740361 0.750255 0.927279 -0.180383
C11   C     C_R   0.660816 0.668904 0.855466 -0.106690
C12   C     C_3   0.878197 0.497140 0.501569 0.063371
C13   C     C_R   0.578207 0.583666 0.924881 0.139467
C14   C     C_R   0.579034 0.582741 0.074312 0.155640
C15   C     C_R   0.424407 0.421582 0.074313 -0.012764
C16   C     C_R   0.494747 0.737085 0.500358 0.535710
C17   C     C_R   0.424644 0.421432 0.926501 -0.012960
C18   C     C_R   0.739935 0.497269 0.500278 0.545304
C19   C     C_3   0.071787 0.528031 0.648950 -0.186698
C20   C     C_3   0.929745 0.505736 0.653888 0.161653
C21   C     C_3   0.072534 0.601817 0.397069 -0.116270
C22   C     C_3   0.068761 0.373609 0.451754 -0.245880
C23   C     C_3   0.930415 0.610166 0.416173 -0.286195
C24   C     C_3   0.122159 0.502660 0.499985 0.009933
C25   C     C_3   0.860110 0.410673 0.861002 0.009990
C26   C     C_3   0.852864 0.287026 0.939339 -0.263318
C27   C     C_3   0.765610 0.292608 0.064639 -0.466172
C28   C     C_1   0.133507 0.726011 0.408767 0.176177
C29   C     C_3   0.925858 0.376933 0.434665 -0.206618
C30   C     C_R   0.311595 0.122323 0.671026 -0.109476
C31   C     C_R   0.230634 0.054989 0.758733 -0.123161
C32   C     C_R   0.234873 0.926618 0.765144 -0.114367
C33   C     C_R   0.319054 0.864722 0.682644 -0.073195
C34   C     C_R   0.403296 0.931012 0.593244 0.050109
Cu1   Cu    Cu3+1 0.499990 0.499990 0.640660 0.902860
Cu2   Cu    Cu3+1 0.500010 0.500010 0.359340 0.914640
H1    H     H_    0.096478 0.625392 0.679348 0.077671
H2    H     H_    0.624694 0.893134 0.339979 0.114460
H3    H     H_    0.362435 0.357184 0.129744 0.116382
H4    H     H_    0.114998 0.466936 0.727253 0.156068
H5    H     H_    0.672021 0.672381 0.252501 0.176861
H6    H     H_    0.804110 0.811945 0.126574 0.114422
H7    H     H_    0.802980 0.813570 0.870928 0.114788
H8    H     H_    0.671259 0.674379 0.745850 0.179588
H9    H     H_    0.362800 0.356971 0.871847 0.108899
H10   H     H_    0.889193 0.587367 0.706288 0.079966
H11   H     H_    0.906149 0.697052 0.470716 0.100751
H12   H     H_    0.902755 0.374914 0.322310 0.103285
H13   H     H_    0.111127 0.346693 0.350993 0.112006
H14   H     H_    0.091625 0.301510 0.529686 0.140563
H15   H     H_    0.880363 0.292860 0.482850 0.157888
H16   H     H_    0.765787 0.446973 0.856423 0.183529
H17   H     H_    0.923103 0.477040 0.918588 0.106795
H18   H     H_    0.817788 0.211806 0.869032 0.190708
H19   H     H_    0.947571 0.264147 0.974782 0.141714
H20   H     H_    0.785591 0.378277 0.125539 0.155969
H21   H     H_    0.777220 0.210437 0.132514 0.136613
H22   H     H_    0.667494 0.292660 0.028952 0.166345
H23   H     H_    0.090584 0.570444 0.288791 0.123767
H24   H     H_    0.886999 0.612699 0.311334 0.116716
H25   H     H_    0.625447 0.117668 0.340313 0.123873
H26   H     H_    0.300502 0.221244 0.665218 0.123690
H27   H     H_    0.162955 0.102544 0.820292 0.107604
H28   H     H_    0.170401 0.874359 0.831678 0.104646
H29   H     H_    0.312495 0.764768 0.686175 0.150803
N1    N     N_R   0.501200 0.501210 0.147910 -0.244172
N2    N     N_R   0.501250 0.501290 0.852040 -0.249641
N3    N     N_1   0.179804 0.824385 0.414772 -0.311469
O1    O     O_R   0.499990 0.319640 0.618810 -0.499468
O2    O     O_R   0.500000 0.319660 0.381240 -0.502530
O3    O     O_R   0.317680 0.499970 0.618790 -0.526053
O4    O     O_R   0.317700 0.499990 0.381210 -0.498102
O5    O     O_R   0.500000 0.680340 0.618760 -0.535501
O6    O     O_R   0.500010 0.680360 0.381190 -0.505341
O7    O     O_R   0.682300 0.500010 0.618790 -0.510440
O8    O     O_R   0.682320 0.500030 0.381210 -0.537830
O9    O     O_3   0.902567 0.391380 0.724154 -0.573605

loop_
_geom_bond_atom_site_label_1
_geom_bond_atom_site_label_2
_ccdc_geom_bond_type
C18   O7    A    
C22   C29   S    
C12   C29   S    
C19   C20   S    
C9    H6    S    
C26   H19   S    
C33   H29   S    
C12   C23   S    
Cu1   O7    S    
C26   C27   S    
C20   O9    S    
C16   O6    A    
C28   N3    T    
C25   H17   S    
C21   H23   S    
C13   N2    A    
C5    C6    A    
C4    C24   S    
Cu2   N1    S    
C19   H1    S    
Cu1   Cu2   S    
C8    C9    A    
C18   O8    A    
C6    H2    S    
Cu2   O8    S    
C9    C10   A    
C22   H14   S    
C2    C34   A    
Cu1   O3    S    
C13   C14   A    
C26   H18   S    
Cu2   O2    S    
C19   H4    S    
C23   H24   S    
C17   N2    A    
C23   H11   S    
C29   H12   S    
C16   O5    A    
C31   H27   S    
C8    H5    S    
C32   H28   S    
C27   H21   S    
C27   H20   S    
C25   C26   S    
C15   N1    A    
C1    O1    A    
C1    C3    S    
C31   C32   A    
Cu1   N2    S    
C12   C20   S    
C33   C34   A    
C14   N1    A    
C5    H25   S    
C11   H8    S    
C15   H3    S    
Cu2   O6    S    
C22   H13   S    
C7    C16   S    
C21   C28   S    
C21   C23   S    
C7    C34   A    
C25   O9    S    
C4    O4    A    
C29   H15   S    
C15   C17   A    
Cu1   O5    S    
C8    C14   A    
C10   H7    S    
C17   H9    S    
C3    C5    A    
C27   H22   S    
C6    C7    A    
C1    O2    A    
C2    C30   A    
C32   C33   A    
C30   H26   S    
C2    C3    A    
C25   H16   S    
C11   C13   A    
C30   C31   A    
C19   C24   S    
C22   C24   S    
C10   C11   A    
Cu1   O1    S    
C21   C24   S    
C12   C18   S    
C4    O3    A    
C20   H10   S    
Cu2   O4    S    
