data_mof_unit_27895.cif
_audit_creation_date              2013-03-05T16:15:16-0500
_audit_creation_method            fapswitch 2.2
_symmetry_space_group_name_H-M    P1
_symmetry_Int_Tables_number       1
_space_group_crystal_system       triclinic
_cell_length_a                    27.808853
_cell_length_b                    10.633099
_cell_length_c                    9.405273
_cell_angle_alpha                 90.35163
_cell_angle_beta                  90.468696
_cell_angle_gamma                 89.939145
_cell_volume                      2780.93864796

loop_
_atom_site_label
_atom_site_type_symbol
_atom_site_description
_atom_site_fract_x
_atom_site_fract_y
_atom_site_fract_z
_atom_type_partial_charge
O1    O     O_R   0.500020 0.316850 0.620870 -0.564584
O2    O     O_R   0.499980 0.683150 0.379130 -0.564516
O3    O     O_R   0.500000 0.316860 0.379090 -0.597489
O4    O     O_R   0.500000 0.683140 0.620910 -0.597439
C1    C     C_R   0.500119 0.259557 0.499482 0.852103
C2    C     C_R   0.499881 0.740443 0.500518 0.852244
O5    O     O_R   0.430270 0.500020 0.620880 -0.578979
O6    O     O_R   0.569730 0.499980 0.379120 -0.579227
O7    O     O_R   0.430250 0.500030 0.379090 -0.595159
O8    O     O_R   0.569750 0.499970 0.620910 -0.594878
C3    C     C_R   0.407481 0.499936 0.499420 0.816916
C4    C     C_R   0.592518 0.500007 0.500578 0.817002
Cu1   Cu    Cu3+1 0.500010 0.499990 0.643150 0.952508
Cu2   Cu    Cu3+1 0.499990 0.500010 0.356850 0.952352
C5    C     C_R   0.178114 0.387893 0.502334 0.523306
C6    C     C_R   0.821910 0.612340 0.509036 0.523266
O9    O     O_2   0.203084 0.279030 0.506301 -0.529109
O10   O     O_2   0.796964 0.721125 0.516203 -0.529561
N1    N     N_R   0.202096 0.499832 0.496758 -0.472814
N2    N     N_R   0.797903 0.500340 0.503147 -0.472780
C7    C     C_R   0.178049 0.611942 0.493952 0.520835
C8    C     C_R   0.821925 0.388415 0.494470 0.520973
C9    C     C_R   0.278513 0.496640 0.364006 0.185251
C10   C     C_R   0.721498 0.496045 0.635850 0.185474
C11   C     C_R   0.329152 0.496805 0.367647 -0.195720
C12   C     C_R   0.670858 0.496161 0.632236 -0.196801
C13   C     C_R   0.328889 0.502441 0.625497 -0.206606
C14   C     C_R   0.671100 0.504025 0.374555 -0.204772
C15   C     C_R   0.278890 0.502471 0.623551 -0.120852
C16   C     C_R   0.721099 0.504197 0.376478 -0.121157
C17   C     C_R   0.253640 0.499661 0.494349 0.311856
C18   C     C_R   0.746360 0.500257 0.505583 0.311639
C19   C     C_R   0.101961 0.500079 0.499321 -0.043636
C20   C     C_R   0.898038 0.500349 0.500555 -0.043611
C21   C     C_R   0.127647 0.385884 0.503323 -0.020242
C22   C     C_R   0.872378 0.614453 0.508077 -0.020016
C23   C     C_R   0.102578 0.272448 0.508644 -0.146346
C24   C     C_R   0.897477 0.727871 0.515525 -0.146438
C25   C     C_R   0.127581 0.614178 0.494951 -0.018348
C26   C     C_R   0.872393 0.386283 0.493412 -0.018591
C27   C     C_R   0.354471 0.499735 0.497667 -0.077539
C28   C     C_R   0.645529 0.500065 0.502312 -0.078171
H1    H     H_    0.347455 0.504697 0.727175 0.162972
H2    H     H_    0.652525 0.507163 0.272956 0.163624
H3    H     H_    0.259508 0.504746 0.722900 0.139400
H4    H     H_    0.740471 0.507412 0.277182 0.139708
H5    H     H_    0.121500 0.183415 0.513600 0.187344
H6    H     H_    0.878587 0.816828 0.523029 0.187337
C29   C     C_R   0.974457 0.384056 0.495871 0.043545
C30   C     C_R   0.025531 0.616472 0.498952 0.043669
C31   C     C_R   0.974429 0.616514 0.504111 0.043732
C32   C     C_R   0.025583 0.383960 0.500799 0.043657
C33   C     C_R   0.949194 0.500309 0.500155 0.065987
C34   C     C_R   0.050806 0.500174 0.499714 0.065952
C35   C     C_R   0.947427 0.271471 0.485801 -0.205314
C36   C     C_R   0.052525 0.729149 0.492216 -0.205007
C37   C     C_R   0.897500 0.272853 0.484966 -0.146516
C38   C     C_R   0.102444 0.727727 0.490615 -0.146542
O11   O     O_2   0.796994 0.279675 0.487502 -0.534284
O12   O     O_2   0.202957 0.720722 0.489800 -0.534540
C39   C     C_R   0.052651 0.271210 0.507772 -0.204865
C40   C     C_R   0.947395 0.729176 0.513945 -0.204761
H7    H     H_    0.650746 0.493063 0.729863 0.161066
H8    H     H_    0.349273 0.494544 0.269961 0.161311
H9    H     H_    0.878609 0.183936 0.477564 0.187510
H10   H     H_    0.121303 0.816700 0.485561 0.187314
H11   H     H_    0.963600 0.179874 0.476101 0.135105
H12   H     H_    0.036327 0.820897 0.485761 0.134789
H13   H     H_    0.036510 0.179567 0.514952 0.134836
H14   H     H_    0.963562 0.820798 0.522913 0.134933
C41   C     C_3   0.539876 0.042211 0.569155 -0.281235
C42   C     C_3   0.460125 0.957790 0.430845 -0.281486
C43   C     C_3   0.538538 0.957788 0.435899 0.461541
C44   C     C_3   0.461463 0.042212 0.564102 0.461283
H15   H     H_    0.572784 0.078743 0.622673 0.157876
H16   H     H_    0.427217 0.921261 0.377327 0.158100
C45   C     C_3   0.499526 0.876990 0.501784 -0.066459
C46   C     C_3   0.500476 0.123010 0.498216 -0.066480
C47   C     C_3   0.499892 0.960310 0.636791 -0.256407
C48   C     C_3   0.500109 0.039691 0.363209 -0.256440
H17   H     H_    0.498763 0.926324 0.748102 0.155667
H18   H     H_    0.501238 0.073677 0.251898 0.155648
C49   C     C_3   0.524943 0.592972 0.051899 -0.028973
C50   C     C_3   0.475056 0.407028 0.948101 -0.029248
C51   C     C_3   0.481691 0.603076 0.949640 -0.038591
C52   C     C_3   0.518308 0.396924 0.050360 -0.038876
H19   H     H_    0.466192 0.689729 0.902421 0.115026
H20   H     H_    0.533808 0.310270 0.097578 0.115295
H21   H     H_    0.545957 0.671088 0.100621 0.142288
H22   H     H_    0.454043 0.328910 0.899382 0.142683
N3    N     N_3   0.500040 0.499970 0.858290 -0.158276
N4    N     N_3   0.499960 0.500030 0.141710 -0.158250
C53   C     C_3   0.543297 0.489865 0.950690 -0.043501
C54   C     C_3   0.456702 0.510135 0.049312 -0.043744
H23   H     H_    0.579829 0.481153 0.905081 0.113582
H24   H     H_    0.420170 0.518862 0.094931 0.113655
C55   C     C_3   0.750247 0.491423 0.774245 -0.371352
C56   C     C_3   0.720802 0.485984 0.910793 -0.861161
H25   H     H_    0.697966 0.571246 0.921560 0.254432
H26   H     H_    0.698102 0.400093 0.911815 0.251916
H27   H     H_    0.745587 0.482420 0.003835 0.250311
H28   H     H_    0.773991 0.407317 0.771737 0.219951
H29   H     H_    0.773621 0.575994 0.780779 0.222088
C57   C     C_3   0.249773 0.493248 0.225500 -0.372047
C58   C     C_3   0.279229 0.489310 0.088839 -0.859916
H30   H     H_    0.301980 0.574714 0.080419 0.249396
H31   H     H_    0.302014 0.403482 0.085465 0.257093
H32   H     H_    0.254448 0.486696 0.995714 0.250212
H33   H     H_    0.226145 0.409026 0.225776 0.221497
H34   H     H_    0.226283 0.577772 0.221196 0.220642
O13   O     O_3   0.579055 0.908215 0.368624 -0.726096
H35   H     H_    0.597564 0.982186 0.336280 0.320922
O14   O     O_3   0.420946 0.091785 0.631376 -0.725735
H36   H     H_    0.402438 0.017813 0.663719 0.320863

loop_
_geom_bond_atom_site_label_1
_geom_bond_atom_site_label_2
_geom_bond_distance
_ccdc_geom_bond_type
C57   H34   1.111250 S    
C13   C15   1.390374 A    
O13   H35   0.991193 S    
C12   H7    1.079729 S    
N1    C17   1.433726 S    
C41   C47   1.555587 S    
C55   C56   1.530162 S    
C51   N3    1.481528 S    
C5    N1    1.366470 A    
C49   N4    1.481265 S    
C58   H31   1.110901 S    
C19   C25   1.408603 A    
O1    C1    1.290771 A    
C6    N2    1.366494 A    
C21   C23   1.395152 A    
C10   C12   1.408358 A    
C32   C39   1.416501 A    
C57   H33   1.111330 S    
C52   H20   1.110414 S    
C49   C53   1.537070 S    
C40   H14   1.075951 S    
C14   C28   1.402114 A    
O4    Cu1   1.959929 S    
C4    C28   1.474119 S    
C38   H10   1.083685 S    
C50   N3    1.481278 S    
C23   H5    1.083684 S    
C24   H6    1.083688 S    
C55   H28   1.111342 S    
C42   H16   1.110189 S    
C51   H19   1.110414 S    
C53   H23   1.109558 S    
Cu1   Cu2   2.692726 S    
Cu1   N3    2.023446 S    
O2    C2    1.290773 A    
C31   C40   1.416557 A    
C50   H22   1.110582 S    
C5    C21   1.403742 A    
C57   C58   1.530137 S    
C32   C34   1.421691 A    
C43   O13   1.397868 S    
C45   C47   1.543804 S    
C49   H21   1.110582 S    
C58   H32   1.110257 S    
C10   C55   1.523006 S    
C16   C18   1.398680 A    
C7    O12   1.349768 S    
C42   C44   1.537368 S    
C11   C27   1.406279 A    
C8    O11   1.349767 S    
C47   H17   1.110317 S    
C2    C45   1.451922 S    
C29   C35   1.416491 A    
C25   C38   1.395140 A    
C14   H2    1.083204 S    
C30   C36   1.416550 A    
C15   H3    1.082669 S    
C31   C33   1.421771 A    
C11   H8    1.079764 S    
C9    C17   1.412691 A    
O5    C3    1.301829 A    
O7    Cu2   1.952337 S    
C10   C18   1.412708 A    
C42   C45   1.541714 S    
C52   C53   1.536817 S    
N3    C53   1.482433 S    
C51   C54   1.536828 S    
C13   C27   1.402111 A    
C35   H11   1.076034 S    
C9    C57   1.522981 S    
C7    C25   1.403741 A    
O6    C4    1.301809 A    
C29   C32   1.422129 A    
C8    C26   1.403724 A    
N4    C54   1.482439 S    
C30   C31   1.422320 A    
C6    O10   1.349768 S    
C50   C54   1.537078 S    
C54   H24   1.109591 S    
O7    C3    1.301330 A    
Cu2   N4    2.023446 S    
C55   H29   1.111242 S    
O3    Cu2   1.959928 S    
O8    C4    1.301347 A    
C48   H18   1.110318 S    
C49   C51   1.537954 S    
N2    C8    1.366477 A    
C56   H26   1.110902 S    
C44   C47   1.536633 S    
C35   C37   1.388430 A    
C20   C26   1.408646 A    
O4    C2    1.289114 A    
O1    Cu1   1.957310 S    
C30   C34   1.421783 A    
C12   C28   1.406255 A    
C41   C43   1.537371 S    
O14   H36   0.991193 S    
N2    C18   1.433729 S    
C39   H13   1.076030 S    
C19   C34   1.422599 A    
C5    O9    1.349764 S    
O6    Cu2   1.948963 S    
C26   C37   1.395154 A    
N1    C7    1.366503 A    
C16   H4    1.082705 S    
C37   H9    1.083682 S    
O3    C1    1.289114 A    
O8    Cu1   1.952337 S    
C23   C39   1.388437 A    
C56   H27   1.110287 S    
C58   H30   1.110920 S    
C22   C24   1.395136 A    
C15   C17   1.398660 A    
C36   H12   1.075950 S    
C6    C22   1.403759 A    
C41   H15   1.110191 S    
C44   O14   1.397867 S    
C29   C33   1.421698 A    
C14   C16   1.390379 A    
C19   C21   1.408659 A    
C43   C48   1.536635 S    
C36   C38   1.388455 A    
C3    C27   1.474122 S    
C46   C48   1.543803 S    
C9    C11   1.408360 A    
O2    Cu2   1.957309 S    
C13   H1    1.083201 S    
O5    Cu1   1.948963 S    
C20   C22   1.408615 A    
C20   C33   1.422600 A    
C42   C48   1.555584 S    
C56   H25   1.110924 S    
C44   C46   1.522699 S    
C43   C45   1.522701 S    
C50   C52   1.537954 S    
C52   N4    1.481521 S    
C1    C46   1.451915 S    
C41   C46   1.541714 S    
C24   C40   1.388462 A    
