data_mof_unit_49377.cif
_audit_creation_date              2012-12-10T18:48:23-0500
_audit_creation_method            fapswitch 2.2
_symmetry_space_group_name_H-M    P1
_symmetry_Int_Tables_number       1
_space_group_crystal_system       triclinic
_cell_length_a                    10.637844
_cell_length_b                    9.939096
_cell_length_c                    11.514833
_cell_angle_alpha                 91.201173
_cell_angle_beta                  91.437875
_cell_angle_gamma                 89.389553
_cell_volume                      1216.75637472

loop_
_atom_site_label
_atom_site_type_symbol
_atom_type_description
_atom_site_fract_x
_atom_site_fract_y
_atom_site_fract_z
_atom_type_partial_charge
C1    C     C_R   0.260798 0.500678 0.499610 0.785569
C2    C     C_R   0.937031 0.543355 0.601621 -0.039480
C3    C     C_R   0.931965 0.457876 0.397738 -0.049700
C4    C     C_R   0.067539 0.552229 0.598494 -0.031165
C5    C     C_R   0.871871 0.498772 0.500224 -0.212175
C6    C     C_R   0.127959 0.502445 0.498938 -0.210765
C7    C     C_R   0.582466 0.073034 0.569876 0.288134
C8    C     C_R   0.413925 0.927090 0.432034 0.291639
C9    C     C_R   0.423949 0.071377 0.423483 0.392176
C10   C     C_R   0.576819 0.928885 0.575260 0.319796
C11   C     C_2   0.133454 0.398559 0.297983 0.584626
C12   C     C_R   0.739149 0.499441 0.500074 0.807733
C13   C     C_2   0.867561 0.572776 0.710691 0.437157
C14   C     C_2   0.856703 0.427333 0.289259 0.460439
C15   C     C_2   0.142143 0.613467 0.697164 0.564303
C16   C     C_3   0.790564 0.119230 0.600831 0.122840
C17   C     C_3   0.883954 0.185425 0.685491 -0.722889
C18   C     C_3   0.284702 0.802970 0.300927 0.188824
C19   C     C_3   0.152161 0.825251 0.250757 -0.833320
C20   C     C_3   0.379143 0.089904 0.226505 0.134777
C21   C     C_3   0.406392 0.199942 0.142093 -0.765031
C22   C     C_3   0.593812 0.888916 0.769483 0.114730
C23   C     C_R   0.501646 0.499462 0.282189 0.849028
C24   C     C_3   0.678423 0.830884 0.864839 -0.758384
C25   C     C_R   0.500703 0.501180 0.717892 0.866808
C26   C     C_1   0.504458 0.500660 0.161738 -0.209476
C27   C     C_1   0.502309 0.503569 0.838462 -0.187308
C28   C     C_1   0.505192 0.502984 0.059494 0.025093
C29   C     C_1   0.503994 0.504131 0.940787 0.026897
C30   C     C_R   0.062948 0.453405 0.399141 -0.057892
H1    H     H_    0.222007 0.442806 0.275209 -0.008879
H2    H     H_    0.292334 0.693602 0.311673 0.178416
H3    H     H_    0.356741 0.828865 0.237569 0.076977
H4    H     H_    0.146527 0.787280 0.159403 0.229533
H5    H     H_    0.083503 0.769660 0.302341 0.261643
H6    H     H_    0.125212 0.933337 0.253833 0.279325
H7    H     H_    0.292994 0.040938 0.192179 0.183318
H8    H     H_    0.460545 0.018275 0.222038 0.072260
H9    H     H_    0.504940 0.232897 0.155637 0.244191
H10   H     H_    0.396896 0.159857 0.051534 0.202405
H11   H     H_    0.339198 0.284976 0.152688 0.274431
H12   H     H_    0.771261 0.608392 0.706425 0.100606
H13   H     H_    0.498820 0.843955 0.774654 0.159905
H14   H     H_    0.584990 0.998676 0.788561 0.172635
H15   H     H_    0.776015 0.867478 0.856486 0.276673
H16   H     H_    0.643239 0.862906 0.951219 0.201780
H17   H     H_    0.678412 0.719572 0.859672 0.254695
H18   H     H_    0.767756 0.375643 0.293125 0.054595
H19   H     H_    0.232762 0.570978 0.722547 0.009550
H20   H     H_    0.802530 0.161785 0.513222 0.148019
H21   H     H_    0.814595 0.010110 0.596362 0.176687
H22   H     H_    0.881329 0.135793 0.770917 0.257753
H23   H     H_    0.980475 0.176425 0.651366 0.214789
H24   H     H_    0.859530 0.293255 0.697645 0.262067
N1    N     N_R   0.500000 0.857200 0.500000 -0.182787
N2    N     N_R   0.500000 0.142800 0.500000 -0.179522
O1    O     O_R   0.316770 0.614620 0.499990 -0.590748
O2    O     O_2   0.914761 0.550462 0.806204 -0.533904
O3    O     O_2   0.891082 0.464743 0.194944 -0.525544
O4    O     O_2   0.105302 0.715274 0.747465 -0.538251
O5    O     O_3   0.667160 0.144295 0.639641 -0.569179
O6    O     O_3   0.296092 0.871023 0.409921 -0.558478
O7    O     O_3   0.355815 0.142601 0.339969 -0.543497
O8    O     O_3   0.645902 0.860630 0.659311 -0.580636
O9    O     O_R   0.683230 0.385380 0.500010 -0.607996
O10   O     O_R   0.683230 0.614620 0.500010 -0.578449
O11   O     O_R   0.316770 0.385380 0.499990 -0.571199
O12   O     O_R   0.500020 0.614670 0.334450 -0.640685
O13   O     O_R   0.499980 0.385330 0.665550 -0.562634
O14   O     O_R   0.499980 0.614670 0.665550 -0.598803
O15   O     O_R   0.500020 0.385330 0.334450 -0.580996
O16   O     O_2   0.095757 0.300439 0.242364 -0.538978
Zn1   Zn    Zn3+2 0.500000 0.653120 0.500000 0.994236
Zn2   Zn    Zn3+2 0.500000 0.346880 0.500000 1.021695

loop_
_geom_bond_atom_site_label_1
_geom_bond_atom_site_label_2
_ccdc_geom_bond_type
C23   O12   A    
O15   Zn2   S    
C2    C4    A    
C10   N1    A    
C1    O1    A    
C7    C10   A    
C20   H8    S    
C15   O4    D    
C13   H12   S    
C22   H13   S    
C21   H9    S    
C16   H21   S    
C17   H22   S    
C24   H16   S    
O14   Zn1   S    
C11   H1    S    
O13   Zn2   S    
C9    N2    A    
C19   H5    S    
C26   C28   T    
C20   H7    S    
C24   H17   S    
N2    Zn2   S    
C16   C17   S    
C3    C14   S    
C27   C29   T    
C7    N2    A    
C20   O7    S    
C21   H11   S    
C24   H15   S    
C3    C30   A    
C28   C29   S    
C1    O11   A    
C16   H20   S    
C22   H14   S    
C19   H6    S    
C15   H19   S    
C4    C15   S    
C13   O2    D    
C25   C27   S    
C18   H3    S    
C22   C24   S    
C2    C5    A    
C18   H2    S    
C16   O5    S    
C21   H10   S    
C22   O8    S    
C1    C6    S    
N1    Zn1   S    
C17   H23   S    
C25   O13   A    
C20   C21   S    
C8    N1    A    
C23   O15   A    
C4    C6    A    
C18   C19   S    
C12   O9    A    
C23   C26   S    
O1    Zn1   S    
O11   Zn2   S    
C2    C13   S    
C14   H18   S    
C11   O16   D    
C7    O5    S    
C18   O6    S    
C25   O14   A    
C14   O3    D    
O12   Zn1   S    
C9    O7    S    
O10   Zn1   S    
C12   O10   A    
C17   H24   S    
C6    C30   A    
C10   O8    S    
O9    Zn2   S    
C11   C30   S    
C8    O6    S    
C8    C9    A    
C3    C5    A    
C19   H4    S    
C5    C12   S    
