data_mof_unit_63424.cif
_audit_creation_date              2012-12-10T21:16:37-0500
_audit_creation_method            fapswitch 2.2
_symmetry_space_group_name_H-M    P1
_symmetry_Int_Tables_number       1
_space_group_crystal_system       triclinic
_cell_length_a                    17.462842
_cell_length_b                    16.835831
_cell_length_c                    10.652865
_cell_angle_alpha                 90.023917
_cell_angle_beta                  91.088423
_cell_angle_gamma                 89.999001
_cell_volume                      3131.39245797

loop_
_atom_site_label
_atom_site_type_symbol
_atom_type_description
_atom_site_fract_x
_atom_site_fract_y
_atom_site_fract_z
_atom_type_partial_charge
C1    C     C_R   0.353010 0.500000 0.497662 0.887812
C2    C     C_3   0.576484 0.502490 0.934427 -0.387723
C3    C     C_R   0.845621 0.573028 0.436784 0.113257
C4    C     C_R   0.845615 0.426944 0.436694 0.113235
C5    C     C_R   0.768175 0.571994 0.464403 -0.181556
C6    C     C_R   0.768169 0.427988 0.464312 -0.181510
C7    C     C_R   0.729333 0.499994 0.478533 -0.130872
C8    C     C_R   0.884749 0.499984 0.424360 0.079778
C9    C     C_1   0.965531 0.499979 0.414333 -0.056735
C10   C     C_1   0.033577 0.499975 0.415451 -0.058244
C11   C     C_R   0.152564 0.572107 0.440995 -0.136870
C12   C     C_R   0.152529 0.427850 0.441452 -0.136980
C13   C     C_R   0.230666 0.572224 0.467071 -0.148566
C14   C     C_R   0.230631 0.427762 0.467527 -0.149316
C15   C     C_R   0.270190 0.499999 0.480127 -0.023476
C16   C     C_R   0.491620 0.499976 0.257973 0.920132
C17   C     C_R   0.114053 0.499971 0.427977 0.161607
C18   C     C_R   0.448657 0.832216 0.422212 -0.336610
C19   C     C_R   0.448513 0.167728 0.422537 -0.336397
C20   C     C_R   0.450271 0.748165 0.423080 0.184307
C21   C     C_R   0.450140 0.251779 0.423341 0.183731
C22   C     C_R   0.548790 0.749381 0.578502 0.369947
C23   C     C_R   0.548874 0.250669 0.578389 0.369949
C24   C     C_R   0.548897 0.833689 0.579728 -0.000495
C25   C     C_R   0.548993 0.166357 0.579627 -0.000450
C26   C     C_R   0.498112 0.876047 0.500211 0.047195
C27   C     C_R   0.498099 0.123947 0.500307 0.047291
C28   C     C_1   0.496631 0.963615 0.498293 -0.024978
C29   C     C_1   0.496632 0.036379 0.498333 -0.025029
C30   C     C_R   0.646988 0.499999 0.497472 0.930802
C31   C     C_R   0.498176 0.500002 0.742558 0.897158
C32   C     C_3   0.447952 0.575938 0.067298 0.145716
C33   C     C_3   0.450252 0.422571 0.067355 0.142360
C34   C     C_3   0.448806 0.573509 0.923561 -0.407644
C35   C     C_3   0.453276 0.423688 0.923802 -0.405422
C36   C     C_3   0.573255 0.501336 0.078151 -0.545224
C37   C     C_3   0.488611 0.499921 0.121164 0.035015
C38   C     C_3   0.494370 0.499961 0.878581 0.048978
H1    H     H_    0.481014 0.629197 0.098508 0.134646
H2    H     H_    0.483672 0.370153 0.101005 0.134890
H3    H     H_    0.259931 0.628622 0.476647 0.155505
H4    H     H_    0.259865 0.371375 0.477486 0.155294
H5    H     H_    0.408784 0.862934 0.359969 0.166309
H6    H     H_    0.408545 0.136968 0.360470 0.166373
H7    H     H_    0.389569 0.571078 0.883320 0.208284
H8    H     H_    0.394699 0.421087 0.880971 0.207357
H9    H     H_    0.475269 0.629494 0.889476 0.195814
H10   H     H_    0.484275 0.369621 0.892304 0.198162
H11   H     H_    0.603478 0.554627 0.116414 0.196811
H12   H     H_    0.604588 0.448204 0.114424 0.196697
H13   H     H_    0.606417 0.557201 0.903192 0.218075
H14   H     H_    0.610036 0.450559 0.901319 0.215056
H15   H     H_    0.738324 0.628061 0.473747 0.196245
H16   H     H_    0.738312 0.371925 0.473580 0.196274
H17   H     H_    0.122051 0.627998 0.432962 0.135810
H18   H     H_    0.121988 0.371955 0.433779 0.135902
N1    N     N_R   0.500030 0.707230 0.500030 -0.125164
N2    N     N_R   0.500030 0.292770 0.500030 -0.125089
O1    O     O_R   0.389130 0.566570 0.500000 -0.606284
O2    O     O_R   0.389130 0.433430 0.500000 -0.606420
O3    O     O_R   0.500000 0.566540 0.314800 -0.611947
O4    O     O_R   0.500000 0.433460 0.314800 -0.612266
O5    O     O_R   0.610900 0.566520 0.500010 -0.593600
O6    O     O_R   0.610900 0.433480 0.500010 -0.593575
O7    O     O_R   0.500030 0.566540 0.685210 -0.598352
O8    O     O_R   0.500030 0.433460 0.685210 -0.598603
Zn1   Zn    Zn3+2 0.500020 0.588860 0.500010 1.000755
Zn2   Zn    Zn3+2 0.500020 0.411140 0.500010 1.000825
N3    N     N_3   0.399606 0.705696 0.341414 -0.358795
H19   H     H_    0.343613 0.721695 0.363477 0.181492
H20   H     H_    0.409652 0.725930 0.250455 0.196684
N4    N     N_3   0.399389 0.294173 0.341791 -0.358532
H21   H     H_    0.343421 0.278344 0.364262 0.181339
H22   H     H_    0.409205 0.273582 0.250939 0.197983
Br1   Br    Br    0.618595 0.695916 0.691135 -0.510670
Br2   Br    Br    0.618743 0.304203 0.690928 -0.510460
N5    N     N_3   0.600863 0.875122 0.662511 -0.408472
H23   H     H_    0.635569 0.911780 0.608463 0.194813
H24   H     H_    0.568888 0.911180 0.721874 0.192731
N6    N     N_3   0.601069 0.124975 0.662234 -0.408498
H25   H     H_    0.635702 0.088285 0.608064 0.194795
H26   H     H_    0.569176 0.088951 0.721718 0.192773
Br3   Br    Br    0.343381 0.594869 0.123168 -0.501651
Br4   Br    Br    0.345017 0.402549 0.118929 -0.501936
N7    N     N_3   0.882447 0.649167 0.424665 -0.439620
H27   H     H_    0.856887 0.678129 0.347827 0.186251
H28   H     H_    0.940419 0.644089 0.404277 0.192552
N8    N     N_3   0.882434 0.350801 0.424482 -0.439587
H29   H     H_    0.856882 0.321846 0.347593 0.186261
H30   H     H_    0.940410 0.355870 0.404126 0.192587

loop_
_geom_bond_atom_site_label_1
_geom_bond_atom_site_label_2
_ccdc_geom_bond_type
C23   N2    A    
O8    Zn2   S    
C30   O6    A    
C3    N7    S    
C25   N6    S    
N8    H30   S    
C18   C26   A    
C23   Br2   S    
C4    C8    A    
C22   N1    A    
C13   H3    S    
C11   H17   S    
N5    H23   S    
O6    Zn2   S    
C5    H15   S    
C28   C29   T    
C19   C21   A    
C6    H16   S    
C1    O1    A    
C27   C29   S    
C10   C17   S    
C32   H1    S    
N3    H20   S    
O3    Zn1   S    
O1    Zn1   S    
C11   C17   A    
C8    C9    S    
O7    Zn1   S    
C12   C17   A    
C1    C15   S    
C19   C27   A    
C9    C10   T    
C16   C37   S    
C14   H4    S    
N5    H24   S    
C7    C30   S    
C30   O5    A    
C16   O4    A    
C22   Br1   S    
N1    Zn1   S    
C35   H10   S    
N7    H28   S    
O5    Zn1   S    
C33   H2    S    
C21   N4    S    
C35   C38   S    
N4    H22   S    
C3    C8    A    
C1    O2    A    
C5    C7    A    
N4    H21   S    
N7    H27   S    
C33   C37   S    
C32   C34   S    
C2    C38   S    
N2    Zn2   S    
C34   H7    S    
C32   C37   S    
C12   H18   S    
C2    H14   S    
C4    C6    A    
C12   C14   A    
C13   C15   A    
C22   C24   A    
C20   N3    S    
C16   O3    A    
C36   H12   S    
C19   H6    S    
C2    C36   S    
C31   O7    A    
C32   Br3   S    
C36   C37   S    
C34   C38   S    
C31   O8    A    
C24   C26   A    
N6    H25   S    
C3    C5    A    
C6    C7    A    
C4    N8    S    
C25   C27   A    
C26   C28   S    
C31   C38   S    
O4    Zn2   S    
C21   N2    A    
C18   H5    S    
C11   C13   A    
C33   C35   S    
N6    H26   S    
C18   C20   A    
C23   C25   A    
N3    H19   S    
C33   Br4   S    
C2    H13   S    
C24   N5    S    
N8    H29   S    
O2    Zn2   S    
C14   C15   A    
C34   H9    S    
C20   N1    A    
C35   H8    S    
C36   H11   S    
