data_mof_unit_32013.cif
_audit_creation_date              2012-10-26T21:05:38-0400
_audit_creation_method            fapswitch 2.2
_symmetry_space_group_name_H-M    P1
_symmetry_Int_Tables_number       1
_space_group_crystal_system       triclinic
_cell_length_a                    13.055345
_cell_length_b                    9.097237
_cell_length_c                    7.784545
_cell_angle_alpha                 90.012227
_cell_angle_beta                  95.87231
_cell_angle_gamma                 89.998003
_cell_volume                      919.699757352

loop_
_atom_site_label
_atom_site_type_symbol
_atom_type_description
_atom_site_fract_x
_atom_site_fract_y
_atom_site_fract_z
_atom_type_partial_charge
C1    C     C_R   0.500024 0.220023 0.499994 0.563799
C2    C     C_R   0.863205 0.439003 0.694948 -0.095091
C3    C     C_R   0.132776 0.451240 0.584274 0.211995
C4    C     C_R   0.867021 0.570977 0.423602 0.257263
C5    C     C_R   0.026158 0.476108 0.577994 -0.023296
C6    C     C_R   0.974287 0.548920 0.431322 0.054645
C7    C     C_1   0.500033 0.065363 0.499988 -0.024163
C8    C     C_1   0.500032 0.934631 0.500013 -0.030278
C9    C     C_R   0.500015 0.779976 0.500010 0.543915
C10   C     C_R   0.300212 0.498231 0.468889 0.574812
C11   C     C_R   0.699581 0.504033 0.531533 0.530706
C12   C     C_R   0.811661 0.506707 0.550690 -0.069808
C13   C     C_R   0.188103 0.506534 0.452854 -0.009682
C14   C     C_R   0.030806 0.598216 0.296166 0.280478
C15   C     C_R   0.969337 0.428829 0.713911 0.256095
C16   C     C_R   0.137306 0.577319 0.309979 -0.181643
Cu1   Cu    Cu3+1 0.500010 0.500000 0.669080 1.059734
Cu2   Cu    Cu3+1 0.499990 0.500000 0.330920 1.059180
H1    H     H_    0.820726 0.394198 0.795530 0.188202
H2    H     H_    0.181148 0.618572 0.209268 0.119366
H3    H     H_    0.760863 0.710069 0.338906 0.328181
H4    H     H_    0.218123 0.428061 0.796027 0.329615
H5    H     H_    0.032416 0.692866 0.070833 0.312780
H6    H     H_    0.066025 0.445137 0.914351 0.331075
N1    N     N_1   0.499980 0.500000 0.076820 -0.072192
N2    N     N_1   0.500020 0.500000 0.923180 -0.074338
O1    O     O_R   0.500000 0.288400 0.642760 -0.488876
O2    O     O_3   0.181444 0.361513 0.709508 -0.634312
O3    O     O_3   0.981422 0.665934 0.151551 -0.599911
O4    O     O_3   0.014356 0.372041 0.867127 -0.617960
O5    O     O_R   0.500000 0.711600 0.357240 -0.504111
O6    O     O_R   0.500000 0.288400 0.357240 -0.493322
O7    O     O_R   0.500000 0.711600 0.642760 -0.496186
O8    O     O_R   0.349000 0.500000 0.619590 -0.501185
O9    O     O_R   0.651000 0.500000 0.380410 -0.478296
O10   O     O_R   0.348990 0.500000 0.334020 -0.513178
O11   O     O_R   0.651010 0.500000 0.665980 -0.504286
O12   O     O_3   0.817984 0.655937 0.292807 -0.589728

loop_
_geom_bond_atom_site_label_1
_geom_bond_atom_site_label_2
_ccdc_geom_bond_type
C10   O10   A    
C11   C12   S    
C11   O11   A    
C4    C12   A    
Cu2   O9    S    
C3    C13   A    
C16   H2    S    
C2    C12   A    
C11   O9    A    
Cu1   Cu2   S    
N1    N2    T    
C7    C8    T    
C10   O8    A    
H4    O2    S    
C9    O7    A    
C2    C15   A    
Cu2   N1    S    
Cu1   O7    S    
Cu1   N2    S    
H5    O3    S    
C3    O2    S    
C4    O12   S    
H6    O4    S    
C5    C6    A    
C14   C16   A    
C5    C15   A    
C6    C14   A    
Cu1   O8    S    
C9    O5    A    
C14   O3    S    
Cu1   O1    S    
Cu2   O6    S    
C15   O4    S    
C4    C6    A    
C13   C16   A    
C1    O1    A    
Cu1   O11   S    
Cu2   O5    S    
C2    H1    S    
C1    C7    S    
Cu2   O10   S    
C1    O6    A    
H3    O12   S    
C8    C9    S    
C3    C5    A    
C10   C13   S    
