data_mof_unit_22728.cif
_audit_creation_date              2013-03-05T16:33:33-0500
_audit_creation_method            fapswitch 2.2
_symmetry_space_group_name_H-M    P1
_symmetry_Int_Tables_number       1
_space_group_crystal_system       triclinic
_cell_length_a                    10.782364
_cell_length_b                    10.879295
_cell_length_c                    9.590218
_cell_angle_alpha                 90.620014
_cell_angle_beta                  90.497213
_cell_angle_gamma                 91.163292
_cell_volume                      1124.63364833

loop_
_atom_site_label
_atom_site_type_symbol
_atom_site_description
_atom_site_fract_x
_atom_site_fract_y
_atom_site_fract_z
_atom_type_partial_charge
O1    O     O_R   0.500000 0.319640 0.618810 -0.581318
O2    O     O_R   0.500010 0.319680 0.381230 -0.517772
C1    C     C_R   0.502609 0.262780 0.499122 0.894286
O3    O     O_R   0.319650 0.499970 0.618810 -0.603816
O4    O     O_R   0.319660 0.500010 0.381230 -0.522365
C2    C     C_R   0.262741 0.503894 0.499777 0.890293
Cu1   Cu    Cu3+1 0.499990 0.499980 0.640670 1.042661
Cu2   Cu    Cu3+1 0.500010 0.500020 0.359330 1.116226
O5    O     O_R   0.499990 0.680320 0.618770 -0.559859
O6    O     O_R   0.500000 0.680360 0.381190 -0.563769
O7    O     O_R   0.680340 0.499990 0.618770 -0.575385
O8    O     O_R   0.680350 0.500030 0.381190 -0.579392
C3    C     C_R   0.501531 0.737430 0.500483 0.892575
C4    C     C_R   0.737297 0.502056 0.500689 0.868655
C5    C     C_R   0.063961 0.454054 0.605908 -0.149990
C6    C     C_R   0.129679 0.515431 0.502019 -0.093345
C7    C     C_R   0.064336 0.590952 0.408010 0.353684
C8    C     C_R   0.934007 0.586391 0.408757 -0.224789
H1    H     H_    0.882365 0.641864 0.336512 0.198213
C9    C     C_R   0.870396 0.511720 0.503938 -0.075764
C10   C     C_R   0.936466 0.454778 0.609234 -0.006615
C11   C     C_3   0.927747 0.325762 0.662678 0.681043
C12   C     C_3   0.070051 0.324132 0.657096 0.044955
H2    H     H_    0.116559 0.317260 0.760687 0.129715
C13   C     C_R   0.459489 0.064935 0.612187 -0.092676
C14   C     C_R   0.501135 0.129564 0.495879 -0.201396
C15   C     C_R   0.532160 0.062203 0.373804 0.347357
C16   C     C_R   0.525612 0.933662 0.375283 -0.135078
H3    H     H_    0.550776 0.883738 0.282030 0.222273
C17   C     C_R   0.499342 0.870595 0.499003 -0.083105
C18   C     C_R   0.465553 0.938925 0.615761 -0.054053
C19   C     C_3   0.500374 0.937791 0.768513 0.457857
C20   C     C_3   0.486212 0.078368 0.766259 0.663869
C21   C     C_R   0.608604 0.506305 0.074227 0.141141
N1    N     N_R   0.500790 0.500930 0.147930 -0.247574
C22   C     C_R   0.395217 0.469091 0.070908 0.428035
C23   C     C_R   0.394935 0.474861 0.923093 -0.061109
H4    H     H_    0.310483 0.452426 0.866197 0.166609
N2    N     N_R   0.500790 0.500890 0.852020 -0.210398
C24   C     C_R   0.608704 0.504986 0.927548 0.210626
C25   C     C_3   0.709451 0.600113 0.920831 -0.430147
C26   C     C_3   0.709681 0.602430 0.079881 0.205153
H5    H     H_    0.796063 0.563182 0.876517 0.194340
H6    H     H_    0.677110 0.684786 0.871367 0.264234
H7    H     H_    0.797032 0.568628 0.126350 0.173981
N3    N     N_R   0.127253 0.672418 0.313574 0.157689
O9    O     O_R   0.225680 0.734337 0.354501 -0.325863
O10   O     O_R   0.075502 0.700153 0.195220 -0.258893
N4    N     N_R   0.628353 0.901577 0.798695 0.062742
O11   O     O_R   0.702269 0.867469 0.699509 -0.393894
O12   O     O_R   0.674253 0.920188 0.923242 -0.230087
O13   O     O_3   0.382759 0.118742 0.840475 -0.592225
H8    H     H_    0.374325 0.207274 0.819555 0.347697
O14   O     O_3   0.594717 0.147191 0.801346 -0.622719
H9    H     H_    0.658974 0.130191 0.730585 0.343286
N5    N     N_R   0.288223 0.415245 0.134576 0.139816
O15   O     O_R   0.298443 0.310494 0.197311 -0.255050
O16   O     O_R   0.178337 0.451020 0.097961 -0.334432
O17   O     O_3   0.672701 0.715044 0.137805 -0.647099
H10   H     H_    0.591702 0.736534 0.095522 0.368500
O18   O     O_3   0.878289 0.318538 0.797954 -0.679262
H11   H     H_    0.924631 0.377888 0.859315 0.318048
O19   O     O_3   0.866320 0.245030 0.568725 -0.654576
H12   H     H_    0.874543 0.161533 0.607938 0.374079
N6    N     N_R   0.118230 0.238130 0.552926 0.146264
O20   O     O_R   0.088151 0.246094 0.421544 -0.232433
O21   O     O_R   0.188210 0.149059 0.593083 -0.305652
N7    N     N_R   0.581864 0.121062 0.252726 0.156176
O22   O     O_R   0.682717 0.188403 0.263492 -0.283125
O23   O     O_R   0.539685 0.090658 0.129445 -0.212573
N8    N     N_R   0.409196 0.872614 0.855115 0.153214
O24   O     O_R   0.414059 0.884373 0.990159 -0.255306
O25   O     O_R   0.323399 0.801760 0.798817 -0.302389

loop_
_geom_bond_atom_site_label_1
_geom_bond_atom_site_label_2
_geom_bond_distance
_ccdc_geom_bond_type
C26   O17   1.406257 S    
C13   C18   1.374566 A    
O4    Cu2   1.957718 S    
C12   H2    1.112880 S    
Cu1   O5    1.975441 S    
C23   H4    1.079789 S    
C22   N5    1.428079 S    
O2    C1    1.295209 A    
C1    C14   1.449055 S    
C11   O18   1.409299 S    
C25   C26   1.525236 S    
C18   C19   1.509355 S    
C21   C26   1.495265 S    
C17   C18   1.392558 A    
Cu2   O8    1.953948 S    
C19   C20   1.540432 S    
C12   N6    1.466911 S    
C5    C12   1.503797 S    
C7    C8    1.405208 A    
C13   C14   1.397506 A    
C7    N3    1.438601 S    
O17   H10   0.993001 S    
C23   N2    1.360901 A    
O1    Cu1   1.970886 S    
C10   C11   1.500903 S    
N5    O15   1.300627 A    
C20   O13   1.403809 S    
Cu1   O7    1.957717 S    
C25   H5    1.110226 S    
C16   H3    1.080787 S    
C14   C15   1.420485 A    
O4    C2    1.297336 A    
C20   O14   1.412360 S    
O3    Cu1   1.953948 S    
C21   C24   1.406609 A    
C16   C17   1.405106 A    
C22   C23   1.419626 A    
C25   H6    1.102194 S    
O8    C4    1.295210 A    
N6    O20   1.302550 A    
C19   N8    1.468908 S    
C8    C9    1.402813 A    
N5    O16   1.301190 A    
O18   H11   0.993212 S    
C21   N1    1.366313 A    
O7    C4    1.293098 A    
N3    O10   1.301530 A    
C19   N4    1.469965 S    
Cu1   Cu2   2.698119 S    
C26   H7    1.109617 S    
O19   H12   0.992238 S    
C2    C6    1.443067 S    
C5    C6    1.395734 A    
N2    C24   1.364955 A    
C4    C9    1.436885 S    
C3    C17   1.449635 S    
C5    C10   1.375526 A    
N8    O24   1.300528 A    
C9    C10   1.389223 A    
O3    C2    1.292843 A    
N4    O11   1.302009 A    
C13   C20   1.507928 S    
C15   C16   1.399014 A    
N8    O25   1.301872 A    
C8    H1    1.081804 S    
Cu1   N2    2.026752 S    
O14   H9    0.992668 S    
C24   C25   1.487357 S    
O5    C3    1.299356 A    
C15   N7    1.434754 S    
N4    O12   1.301171 A    
C11   O19   1.403879 S    
N3    O9    1.300826 A    
N7    O23   1.300056 A    
N6    O21   1.299774 A    
Cu2   N1    2.027592 S    
Cu2   O6    1.970886 S    
O2    Cu2   1.975439 S    
C11   C12   1.536223 S    
N1    C22   1.387530 A    
C6    C7    1.418723 A    
O13   H8    0.991783 S    
N7    O22   1.301533 A    
O1    C1    1.298792 A    
O6    C3    1.295570 A    
