data_mof_unit_64155.cif
_audit_creation_date              2012-12-11T18:28:54-0500
_audit_creation_method            fapswitch 2.2
_symmetry_space_group_name_H-M    P1
_symmetry_Int_Tables_number       1
_space_group_crystal_system       triclinic
_cell_length_a                    8.194785
_cell_length_b                    14.249459
_cell_length_c                    17.335751
_cell_angle_alpha                 95.827392
_cell_angle_beta                  96.53271
_cell_angle_gamma                 91.994141
_cell_volume                      1998.57932379

loop_
_atom_site_label
_atom_site_type_symbol
_atom_type_description
_atom_site_fract_x
_atom_site_fract_y
_atom_site_fract_z
_atom_type_partial_charge
Ba1   Ba    Ba6+2 0.833220 0.541860 0.459910 1.690794
Ba2   Ba    Ba6+2 0.356600 0.458220 0.540090 1.676955
Br1   Br    Br    0.483209 0.328324 0.219078 -0.506305
Br2   Br    Br    0.144769 0.126770 0.871526 -0.345727
Br3   Br    Br    0.692170 0.094592 0.843642 -0.378461
C1    C     C_3   0.593714 0.882016 0.243613 -0.315495
C2    C     C_3   0.333861 0.582137 0.219469 -0.078143
C3    C     C_2   0.289400 0.546661 0.133880 -0.046976
C4    C     C_3   0.039841 0.742092 0.238223 0.323494
C5    C     C_2   0.148450 0.492187 0.112665 -0.054211
C6    C     C_2   0.057997 0.455634 0.175335 -0.081765
C7    C     C_1   0.119729 0.469029 0.250111 0.042595
C8    C     C_R   0.872485 0.467928 0.862506 -0.066038
C9    C     C_R   0.825983 0.447731 0.783137 0.006305
C10   C     C_R   0.069971 0.533880 0.753865 0.000697
C11   C     C_R   0.116656 0.555768 0.836177 -0.093136
C12   C     C_3   0.575720 0.787848 0.276748 0.375058
C13   C     C_R   0.023385 0.514339 0.890541 -0.030785
C14   C     C_2   0.084353 0.463443 0.028683 -0.017124
C15   C     C_2   0.068183 0.530596 0.977264 -0.121744
C16   C     C_3   0.005221 0.770763 0.156060 -0.301930
C17   C     C_R   0.927798 0.476191 0.729276 -0.300408
C18   C     C_R   0.707742 0.937874 0.541887 -0.023265
C19   C     C_R   0.512833 0.800579 0.497108 0.045811
C20   C     C_R   0.362665 0.765807 0.455565 -0.287975
C21   C     C_R   0.251008 0.827044 0.423607 0.013883
C22   C     C_R   0.295467 0.922425 0.425300 -0.138257
C23   C     C_3   0.414116 0.261504 0.302398 0.555345
C24   C     C_R   0.449487 0.957959 0.462480 -0.006000
C25   C     C_R   0.558260 0.898083 0.500954 -0.034103
C26   C     C_R   0.642507 0.092868 0.503377 -0.033126
C27   C     C_R   0.752031 0.033811 0.542136 -0.013572
C28   C     C_3   0.207836 0.752380 0.623601 0.232477
C29   C     C_R   0.686495 0.189686 0.505358 0.019138
C30   C     C_R   0.835154 0.226641 0.546221 -0.295084
C31   C     C_R   0.948395 0.167399 0.579511 0.012363
C32   C     C_R   0.906393 0.071206 0.578829 -0.119670
C33   C     C_R   0.492722 0.053574 0.463452 -0.044039
C34   C     C_3   0.312795 0.173580 0.265380 -0.299189
C35   C     C_3   0.268012 0.856648 0.641449 -0.346222
C36   C     C_3   0.980567 0.249006 0.377780 0.310790
C37   C     C_3   0.929390 0.144278 0.359926 -0.385017
C38   C     C_3   0.735629 0.675271 0.690898 0.294468
C39   C     C_3   0.781637 0.709685 0.776891 -0.322657
C40   C     C_2   0.210740 0.904473 0.714779 1.022718
C41   C     C_2   0.054108 0.359947 0.007269 0.898362
C42   C     C_2   0.395916 0.574861 0.075316 0.881843
C43   C     C_2   0.247374 0.629293 0.865403 0.908304
C44   C     C_3   0.177021 0.264970 0.764701 0.301427
C45   C     C_3   0.239482 0.245105 0.847182 0.196266
C46   C     C_3   0.645941 0.211950 0.718022 0.322159
C47   C     C_3   0.609967 0.111564 0.736966 0.182606
C48   C     C_2   0.254713 0.522881 0.274459 -0.196601
H1    H     H_    0.648807 0.792455 0.335088 0.076608
H2    H     H_    0.644481 0.614958 0.685803 0.078778
H3    H     H_    0.724102 0.898324 0.236419 0.153799
H4    H     H_    0.892734 0.758056 0.784348 0.171868
H5    H     H_    0.807071 0.649290 0.811079 0.050349
H6    H     H_    0.678985 0.748019 0.800094 0.164664
H7    H     H_    0.443928 0.776044 0.283749 -0.089366
H8    H     H_    0.550933 0.939154 0.283935 0.055040
H9    H     H_    0.338314 0.309337 0.336529 -0.013691
H10   H     H_    0.278082 0.131427 0.311661 0.038284
H11   H     H_    0.200621 0.193169 0.229608 0.144237
H12   H     H_    0.404598 0.861011 0.647835 0.095733
H13   H     H_    0.386239 0.129024 0.227233 0.150790
H14   H     H_    0.518227 0.879488 0.185956 0.148057
H15   H     H_    0.055727 0.718597 0.114165 0.077296
H16   H     H_    0.232241 0.334379 0.755039 0.043772
H17   H     H_    0.041470 0.268846 0.759727 -0.028783
H18   H     H_    0.208488 0.303897 0.888677 0.025929
H19   H     H_    0.374708 0.240694 0.854317 0.148380
H20   H     H_    0.780173 0.223061 0.717454 -0.041510
H21   H     H_    0.581538 0.218051 0.658953 0.023826
H22   H     H_    0.668448 0.060536 0.697282 0.013790
H23   H     H_    0.224212 0.895834 0.591456 -0.008669
H24   H     H_    0.475682 0.094962 0.728332 0.124948
H25   H     H_    0.979347 0.671270 0.239559 0.065683
H26   H     H_    0.096411 0.603509 0.000747 0.116445
H27   H     H_    0.942448 0.415127 0.158451 0.119127
H28   H     H_    0.786437 0.451097 0.902599 0.144318
H29   H     H_    0.293425 0.538783 0.336486 0.069838
H30   H     H_    0.888685 0.460084 0.667491 0.077613
H31   H     H_    0.327153 0.691594 0.453017 0.066589
H32   H     H_    0.174637 0.738813 0.251811 -0.058859
H33   H     H_    0.208555 0.969078 0.399120 0.071017
H34   H     H_    0.885450 0.285740 0.407842 0.020822
H35   H     H_    0.994763 0.025757 0.605285 0.088421
H36   H     H_    0.868133 0.300980 0.547008 0.061570
H37   H     H_    0.792296 0.895289 0.573219 0.092130
H38   H     H_    0.406358 0.096620 0.433328 0.084039
H39   H     H_    0.870697 0.773269 0.139398 0.164328
H40   H     H_    0.064333 0.841411 0.153008 0.135317
H41   H     H_    0.297078 0.713907 0.590543 0.014199
H42   H     H_    0.087296 0.748036 0.587309 0.055529
H43   H     H_    0.970935 0.873769 0.678390 0.254256
H44   H     H_    0.908404 0.251640 0.950866 0.373242
H45   H     H_    0.098162 0.256192 0.416538 0.047116
H46   H     H_    0.513128 0.534524 0.982011 0.323380
H47   H     H_    0.485358 0.672846 0.872721 0.311070
H48   H     H_    0.802081 0.135094 0.330091 0.161696
H49   H     H_    0.936646 0.109742 0.414558 0.057745
H50   H     H_    0.010623 0.107609 0.321146 0.121541
H51   H     H_    0.847265 0.651954 0.665560 -0.008476
O1    O     O_2   0.840370 0.437300 0.310630 -0.408947
O2    O     O_2   0.282504 0.170461 0.567610 -0.497200
O3    O     O_3   0.223559 0.192894 0.711463 -0.584392
O4    O     O_3   0.112450 0.444030 0.408320 -0.513458
O5    O     O_3   0.560770 0.615000 0.535160 -0.484264
O6    O     O_2   0.387340 0.269270 0.471720 -0.488346
O7    O     O_3   0.555584 0.232656 0.345521 -0.642991
O8    O     O_2   0.485249 0.449441 0.780997 -0.446122
O9    O     O_3   0.589023 0.277364 0.773923 -0.583354
O10   O     O_3   0.597270 0.610320 0.351390 -0.489667
O11   O     O_2   0.669099 0.532150 0.214965 -0.430519
O12   O     O_3   0.668503 0.749941 0.653464 -0.630390
O13   O     O_3   0.999658 0.286877 0.307836 -0.618984
O14   O     O_3   0.632845 0.715583 0.226400 -0.569272
O15   O     O_2   0.802370 0.730760 0.528330 -0.482371
O16   O     O_3   0.016680 0.660770 0.388810 -0.493168
O17   O     O_2   0.916932 0.830857 0.435237 -0.495014
O18   O     O_2   0.312272 0.939465 0.767781 -0.494199
O19   O     O_R   0.043938 0.908988 0.723790 -0.684259
O20   O     O_2   0.146864 0.305802 0.038455 -0.533086
O21   O     O_R   0.917189 0.323137 0.956716 -0.759863
O22   O     O_2   0.447447 0.656811 0.078081 -0.590954
O23   O     O_3   0.978046 0.809023 0.291110 -0.596594
O24   O     O_R   0.438000 0.507257 0.017532 -0.724731
O25   O     O_2   0.213916 0.700130 0.905382 -0.575989
O26   O     O_R   0.407706 0.618679 0.847423 -0.722214
O27   O     O_2   0.349330 0.562730 0.689420 -0.427720
O28   O     O_3   0.077250 0.556050 0.591680 -0.508525
O29   O     O_3   0.592420 0.389760 0.648620 -0.496029
O30   O     O_3   0.192081 0.712867 0.693109 -0.627554
O31   O     O_3   0.628930 0.385070 0.464840 -0.448785
O32   O     O_3   0.173020 0.339310 0.611190 -0.487432
P1    P     P_3+3 0.017810 0.410420 0.324030 1.019515
P2    P     P_3+3 0.635890 0.718430 0.552520 0.969463
P3    P     P_3+3 0.041663 0.782414 0.385836 0.939403
P4    P     P_3+3 0.171880 0.589650 0.675980 1.013318
P5    P     P_3+3 0.155634 0.217253 0.616681 0.952734
P6    P     P_3+3 0.559327 0.607022 0.250912 1.042042
P7    P     P_3+3 0.564420 0.267138 0.446143 0.949655
P8    P     P_3+3 0.623305 0.391697 0.748746 0.985607

loop_
_geom_bond_atom_site_label_1
_geom_bond_atom_site_label_2
_ccdc_geom_bond_type
Ba2   O5    S    
O17   P3    D    
C22   C24   A    
C36   C37   S    
C41   O21   S    
C14   C15   D    
C46   H21   S    
C45   H18   S    
C47   H22   S    
C43   O26   S    
C28   H41   S    
C11   C43   S    
C14   C41   S    
C2    C3    S    
C44   O3    S    
C40   O19   S    
C34   H11   S    
C21   C22   A    
C4    O23   S    
C8    C13   A    
C42   O22   D    
O10   P6    S    
C1    H8    S    
Br1   C23   S    
C29   C30   A    
O30   P4    S    
O4    P1    S    
H47   O26   S    
C39   H6    S    
C10   C11   A    
C8    H28   S    
Ba1   Ba2   S    
Ba1   O15   S    
C45   H19   S    
C38   H51   S    
O27   P4    D    
C32   H35   S    
Ba1   O5    S    
C28   O30   S    
C10   C17   A    
C30   C31   A    
C39   H5    S    
C24   C33   A    
C20   H31   S    
Ba2   O28   S    
Br3   C47   S    
O3    P5    S    
C5    C14   S    
C7    C48   D    
C15   H26   S    
O7    P7    S    
C4    H32   S    
Ba1   O28   S    
O31   P7    S    
O11   P6    D    
C44   H16   S    
C8    C9    A    
C37   H50   S    
C41   O20   D    
O23   P3    S    
C28   H42   S    
O12   P2    S    
C23   O7    S    
C35   C40   S    
C36   H34   S    
C9    P8    S    
C29   P7    S    
C26   C29   A    
C28   C35   S    
C46   C47   S    
Ba2   O29   S    
C18   C25   A    
C42   O24   S    
C19   C20   A    
H44   O21   S    
C21   P3    S    
C6    H27   S    
Ba1   O4    S    
C23   C34   S    
C19   P2    S    
C20   C21   A    
C33   H38   S    
Ba2   O32   S    
C35   H23   S    
Br2   C45   S    
C48   H29   S    
Ba1   O16   S    
C22   H33   S    
C38   C39   S    
C24   C25   A    
C38   O12   S    
C26   C27   A    
C39   H4    S    
Ba2   O27   S    
C18   H37   S    
O16   P3    S    
C46   O9    S    
C27   C32   A    
C12   O14   S    
C30   H36   S    
C38   H2    S    
C1    H14   S    
C44   H17   S    
C16   H15   S    
C9    C17   A    
C34   H13   S    
C43   O25   D    
Ba1   O10   S    
C2    C48   S    
C47   H24   S    
C37   H48   S    
Ba1   P1    S    
O2    P5    D    
C10   P4    S    
C1    C12   S    
Ba2   O6    S    
O29   P8    S    
H43   O19   S    
C36   H45   S    
O15   P2    D    
C3    C5    D    
O13   P1    S    
C46   H20   S    
C1    H3    S    
O14   P6    S    
C6    C7    D    
O9    P8    S    
H46   O24   S    
C40   O18   D    
O28   P4    S    
C34   H10   S    
Ba2   O31   S    
C26   C33   A    
C35   H12   S    
Ba2   P4    S    
C18   C27   A    
O8    P8    D    
C3    C42   S    
C37   H49   S    
C17   H30   S    
C4    C16   S    
C16   H40   S    
C31   C32   A    
Ba2   O4    S    
O32   P5    S    
C13   C15   S    
C4    H25   S    
O6    P7    D    
C19   C25   A    
C5    C6    S    
C12   H7    S    
O1    P1    D    
C31   P5    S    
C11   C13   A    
C44   C45   S    
C7    P1    S    
O5    P2    S    
C36   O13   S    
Ba1   O31   S    
C12   H1    S    
C2    P6    S    
Ba1   P2    S    
Ba1   O1    S    
C16   H39   S    
C23   H9    S    
