data_mof_unit_48017.cif
_audit_creation_date              2012-12-11T15:41:22-0500
_audit_creation_method            fapswitch 2.2
_symmetry_space_group_name_H-M    P1
_symmetry_Int_Tables_number       1
_space_group_crystal_system       triclinic
_cell_length_a                    14.887725
_cell_length_b                    15.041181
_cell_length_c                    14.884846
_cell_angle_alpha                 109.219877
_cell_angle_beta                  108.996044
_cell_angle_gamma                 109.514694
_cell_volume                      2587.22194071

loop_
_atom_site_label
_atom_site_type_symbol
_atom_type_description
_atom_site_fract_x
_atom_site_fract_y
_atom_site_fract_z
_atom_type_partial_charge
C1    C     C_R   0.194860 0.993245 0.903322 -0.157554
C2    C     C_R   0.799625 0.901743 0.379696 0.205597
C3    C     C_R   0.275005 0.251427 0.816601 -0.199567
C4    C     C_R   0.702550 0.801528 0.321567 -0.236008
C5    C     C_R   0.283426 0.317141 0.915155 0.078960
C6    C     C_R   0.689865 0.711395 0.238551 0.106397
C7    C     C_R   0.190544 0.291175 0.928084 -0.158049
C8    C     C_R   0.776946 0.719476 0.218056 -0.155663
C9    C     C_R   0.091291 0.199518 0.845311 -0.144051
C10   C     C_R   0.873068 0.818171 0.274816 -0.177636
C11   C     C_R   0.084202 0.131829 0.749852 -0.163822
C12   C     C_R   0.749786 0.935557 0.027017 -0.126027
C13   C     C_R   0.884388 0.909013 0.354286 -0.111135
C14   C     C_R   0.394340 0.511617 0.016729 -0.235530
C15   C     C_R   0.574344 0.515526 0.156489 -0.247299
C16   C     C_R   0.797370 0.216080 0.305584 -0.155677
C17   C     C_R   0.262385 0.781742 0.689094 -0.134818
C18   C     C_R   0.492862 0.609280 0.086915 0.057066
C19   C     C_R   0.482175 0.416667 0.072781 0.064538
C20   C     C_R   0.582472 0.612554 0.163110 0.037822
C21   C     C_R   0.388156 0.415062 0.005144 0.041514
C22   C     C_R   0.978266 0.509173 0.414603 0.070105
C23   C     C_R   0.853140 0.312398 0.309037 0.074394
C24   C     C_R   0.132483 0.478359 0.551592 0.063162
C25   C     C_R   0.075072 0.596128 0.500205 -0.245532
C26   C     C_R   0.035528 0.389171 0.462156 -0.247431
C27   C     C_R   0.150187 0.582684 0.572372 0.058879
C28   C     C_R   0.957201 0.404524 0.395767 0.058290
C29   C     C_R   0.596697 0.159507 0.620423 -0.168618
C30   C     C_R   0.397977 0.054675 0.429036 -0.162064
C31   C     C_R   0.595418 0.157837 0.526394 -0.163137
C32   C     C_R   0.399011 0.057410 0.523186 -0.186894
C33   C     C_R   0.496668 0.094203 0.427511 0.141240
C34   C     C_R   0.231389 0.678993 0.676364 0.068747
C35   C     C_R   0.498720 0.099833 0.616009 0.138456
C36   C     C_R   0.964702 0.841990 0.943184 -0.174061
C37   C     C_R   0.872148 0.939540 0.841635 -0.173386
C38   C     C_R   0.873710 0.845175 0.945664 -0.167653
C39   C     C_R   0.962096 0.934602 0.837598 -0.171834
C40   C     C_R   0.406950 0.973868 0.222149 -0.125330
C41   C     C_R   0.591168 0.095003 0.790513 -0.135751
C42   C     C_R   0.835395 0.905388 0.906081 0.148086
C43   C     C_R   0.015936 0.896959 0.898988 0.144067
C44   C     C_R   0.587860 0.313520 0.061392 -0.128066
C45   C     C_R   0.497560 0.050543 0.324437 0.041037
C46   C     C_R   0.408956 0.702559 0.005448 -0.132614
C47   C     C_R   0.589848 0.065432 0.313469 -0.138024
C48   C     C_R   0.410045 0.006077 0.701659 -0.164200
C49   C     C_R   0.406537 0.216829 0.982051 -0.129662
C50   C     C_R   0.590560 0.789254 0.091193 -0.147617
C51   C     C_R   0.796434 0.303617 0.210458 -0.128711
C52   C     C_R   0.252532 0.686961 0.777604 -0.117606
C53   C     C_R   0.195664 0.903716 0.995515 -0.138503
C54   C     C_R   0.749438 0.026268 0.934067 -0.127238
C55   C     C_R   0.131024 0.930946 0.932316 0.055480
C56   C     C_R   0.500385 0.066989 0.698483 0.051878
C57   C     C_R   0.775995 0.950053 0.949701 0.040516
C58   C     C_3   0.170914 0.080771 0.632817 -0.476454
C59   C     C_3   0.108831 0.959543 0.597827 -0.234586
C60   C     C_3   0.100784 0.885947 0.492361 -0.935962
C61   C     C_3   0.806973 0.997968 0.464612 -0.460743
C62   C     C_3   0.906778 0.107527 0.509575 -0.273288
C63   C     C_3   0.906556 0.201546 0.590040 -0.907243
C64   C     C_1   0.899667 0.533314 0.356011 0.009057
C65   C     C_1   0.210503 0.460948 0.621050 0.016572
C66   C     C_R   0.492978 0.319928 0.047275 0.052136
C67   C     C_R   0.499262 0.697792 0.063575 0.072557
C68   C     C_R   0.176611 0.155094 0.735209 0.208436
H1    H     H_    0.167516 0.016952 0.843278 0.101889
H2    H     H_    0.643822 0.516751 0.211412 0.148333
H3    H     H_    0.085404 0.675479 0.515867 0.137660
H4    H     H_    0.020134 0.308237 0.445762 0.129987
H5    H     H_    0.674971 0.199035 0.692672 0.108111
H6    H     H_    0.319807 0.011485 0.355770 0.107496
H7    H     H_    0.672620 0.197241 0.529818 0.109189
H8    H     H_    0.321379 0.016417 0.518422 0.122012
H9    H     H_    0.999959 0.805824 0.985407 0.105938
H10   H     H_    0.839332 0.979629 0.803343 0.104036
H11   H     H_    0.825992 0.191750 0.364246 0.104821
H12   H     H_    0.760919 0.884147 0.060434 0.095316
H13   H     H_    0.257022 0.804899 0.627020 0.105087
H14   H     H_    0.842050 0.810397 0.988984 0.108823
H15   H     H_    0.994664 0.969699 0.795225 0.110659
H16   H     H_    0.321877 0.942052 0.200171 0.092873
H17   H     H_    0.674767 0.154308 0.822109 0.082711
H18   H     H_    0.670993 0.379369 0.107588 0.106483
H19   H     H_    0.325539 0.655519 0.985685 0.086745
H20   H     H_    0.673728 0.118099 0.376243 0.098705
H21   H     H_    0.327823 0.986367 0.654280 0.109545
H22   H     H_    0.323598 0.190251 0.964972 0.131134
H23   H     H_    0.346484 0.272919 0.806026 0.124717
H24   H     H_    0.674997 0.818335 0.143073 0.124314
H25   H     H_    0.824965 0.355167 0.178227 0.098131
H26   H     H_    0.234103 0.622190 0.797055 0.104727
H27   H     H_    0.168784 0.843742 0.019556 0.083765
H28   H     H_    0.759678 0.057865 0.880552 0.092060
H29   H     H_    0.005969 0.061006 0.688367 0.109063
H30   H     H_    0.959639 0.984194 0.394543 0.102791
H31   H     H_    0.097452 0.921462 0.437623 0.260274
H32   H     H_    0.170720 0.871089 0.508877 0.236269
H33   H     H_    0.025933 0.805766 0.448859 0.265010
H34   H     H_    0.634848 0.795076 0.336813 0.125836
H35   H     H_    0.149564 0.944492 0.663799 0.189039
H36   H     H_    0.023980 0.935423 0.582273 0.198477
H37   H     H_    0.131225 0.094752 0.565757 0.178892
H38   H     H_    0.254797 0.102678 0.645639 0.190487
H39   H     H_    0.838437 0.212711 0.547465 0.245426
H40   H     H_    0.898629 0.186710 0.656124 0.262008
H41   H     H_    0.984427 0.277287 0.627092 0.256179
H42   H     H_    0.981970 0.106736 0.552223 0.205910
H43   H     H_    0.909906 0.121390 0.441834 0.182657
H44   H     H_    0.732037 0.002586 0.427275 0.197394
H45   H     H_    0.195301 0.341934 0.002603 0.121118
H46   H     H_    0.807899 0.983032 0.533162 0.186909
H47   H     H_    0.767982 0.650859 0.153733 0.121464
H48   H     H_    0.019703 0.180044 0.855579 0.118108
H49   H     H_    0.938246 0.824794 0.255438 0.123810
H50   H     H_    0.323471 0.506456 0.959040 0.131384
N1    N     N_R   0.293810 0.002730 0.945950 -0.039934
N2    N     N_R   0.443210 0.997250 0.791090 -0.034942
N3    N     N_R   0.443180 0.152110 0.945950 -0.042701
N4    N     N_R   0.556820 0.847890 0.054050 -0.040633
N5    N     N_R   0.706170 0.208950 0.152090 -0.040003
N6    N     N_R   0.293830 0.791050 0.847910 -0.043336
N7    N     N_R   0.293800 0.945910 0.002760 -0.036656
N8    N     N_R   0.706200 0.054090 0.997240 -0.041096
N9    N     N_1   0.838181 0.554451 0.310140 -0.109930
N10   N     N_1   0.272855 0.446836 0.676701 -0.085771
N11   N     N_R   0.706190 0.997270 0.054050 -0.040398
N12   N     N_R   0.706160 0.152130 0.208910 -0.036931
N13   N     N_R   0.293840 0.847870 0.791090 -0.042385
N14   N     N_R   0.443140 0.945920 0.152090 -0.040504
N15   N     N_R   0.556860 0.054080 0.847910 -0.036148
N16   N     N_R   0.556830 0.208940 0.002760 -0.041597
N17   N     N_R   0.443170 0.791060 0.997240 -0.038773
N18   N     N_R   0.556790 0.002750 0.208910 -0.038087
Ni1   Ni    Ni4+2 0.369690 0.999990 0.869700 0.208888
Ni2   Ni    Ni4+2 0.630310 0.000010 0.130300 0.215720
Ni3   Ni    Ni4+2 0.369670 0.869670 0.000000 0.210446
Ni4   Ni    Ni4+2 0.630330 0.130330 0.000000 0.211052

loop_
_geom_bond_atom_site_label_1
_geom_bond_atom_site_label_2
_ccdc_geom_bond_type
C51   N5    A    
C47   N18   A    
C17   N13   A    
C33   C45   S    
C14   C18   A    
N6    Ni3   S    
C44   C66   A    
C3    C68   A    
C50   N4    A    
C24   C27   A    
C48   C56   A    
C49   H22   S    
C60   H31   S    
C41   N15   A    
C48   N2    A    
N7    Ni3   S    
N14   Ni3   S    
N17   Ni3   S    
C54   N8    A    
N8    Ni4   S    
C59   H36   S    
C14   C21   A    
C19   C21   A    
C24   C26   A    
C38   C42   A    
C36   H9    S    
N16   Ni4   S    
C30   H6    S    
C29   H5    S    
C13   H30   S    
C26   H4    S    
C19   C66   S    
C3    H23   S    
N2    N15   A    
C1    N1    A    
N3    Ni1   S    
C37   C42   A    
C2    C13   A    
C40   H16   S    
C8    H47   S    
C46   N17   A    
C23   C51   A    
C62   H43   S    
C14   H50   S    
C22   C25   A    
C4    H34   S    
C31   C33   A    
C52   H26   S    
C25   H3    S    
N3    N16   A    
C16   N12   A    
C50   C67   A    
C54   H28   S    
C2    C61   S    
C53   C55   A    
C40   N14   A    
C59   C60   S    
C22   C28   A    
C38   H14   S    
C40   C45   A    
C44   H18   S    
C42   C57   S    
C45   C47   A    
C27   C34   S    
C44   N16   A    
C15   C20   A    
C12   N11   A    
N11   Ni2   S    
N1    Ni1   S    
C32   C35   A    
N4    Ni2   S    
N18   Ni2   S    
C49   C66   A    
C5    C7    A    
C39   C43   A    
N8    N11   A    
C3    C5    A    
C58   C59   S    
N5    Ni4   S    
C1    H1    S    
N6    N13   A    
C58   H38   S    
C63   H41   S    
C15   C19   A    
C65   N10   T    
C41   C56   A    
C62   C63   S    
N13   Ni1   S    
C53   H27   S    
C31   H7    S    
C62   H42   S    
N14   N18   A    
C64   N9    T    
C49   N3    A    
C23   C28   S    
C9    C11   A    
C53   N7    A    
C24   C65   S    
C51   H25   S    
C12   C57   A    
N1    N7    A    
C58   C68   S    
C16   C23   A    
C48   H21   S    
N5    N12   A    
C4    C6    A    
C17   C34   A    
C63   H39   S    
C60   H33   S    
N12   Ni2   S    
C41   H17   S    
C11   C68   A    
C46   H19   S    
C50   H24   S    
C7    C9    A    
C15   H2    S    
C30   C33   A    
C35   C56   S    
C9    H48   S    
C34   C52   A    
C8    C10   A    
C60   H32   S    
C10   C13   A    
C32   H8    S    
C18   C20   A    
C6    C8    A    
C43   C55   S    
C25   C27   A    
C6    C20   S    
C37   H10   S    
C29   C35   A    
C26   C28   A    
C11   H29   S    
C16   H11   S    
C59   H35   S    
C47   H20   S    
C58   H37   S    
C36   C38   A    
C1    C55   A    
C39   H15   S    
C46   C67   A    
C29   C31   A    
C10   H49   S    
C30   C32   A    
C52   N6    A    
C7    H45   S    
C2    C4    A    
C12   H12   S    
C17   H13   S    
C61   C62   S    
N4    N17   A    
C22   C64   S    
C5    C21   S    
N15   Ni4   S    
C37   C39   A    
C61   H46   S    
C18   C67   S    
C36   C43   A    
N2    Ni1   S    
C63   H40   S    
C61   H44   S    
C54   C57   A    
