data_mof_unit_7786.cif
_audit_creation_date              2012-12-10T18:58:38-0500
_audit_creation_method            fapswitch 2.2
_symmetry_space_group_name_H-M    P1
_symmetry_Int_Tables_number       1
_space_group_crystal_system       triclinic
_cell_length_a                    10.678819
_cell_length_b                    9.809224
_cell_length_c                    17.497565
_cell_angle_alpha                 90.644451
_cell_angle_beta                  90.890445
_cell_angle_gamma                 90.738175
_cell_volume                      1832.39259554

loop_
_atom_site_label
_atom_site_type_symbol
_atom_type_description
_atom_site_fract_x
_atom_site_fract_y
_atom_site_fract_z
_atom_type_partial_charge
C1    C     C_R   0.260326 0.499127 0.499523 0.829494
C2    C     C_R   0.739664 0.500883 0.500043 0.839620
C3    C     C_1   0.402366 0.513728 0.964778 -0.031635
C4    C     C_1   0.406969 0.512140 0.032613 -0.029122
C5    C     C_R   0.062479 0.438348 0.437401 -0.026260
C6    C     C_R   0.937585 0.561632 0.561615 -0.021406
C7    C     C_R   0.931925 0.443615 0.435565 -0.043659
C8    C     C_R   0.067956 0.557994 0.563081 -0.051302
C9    C     C_R   0.499134 0.499180 0.352553 0.853331
C10   C     C_R   0.495337 0.500881 0.647055 0.855376
C11   C     C_R   0.872358 0.502947 0.498739 -0.215885
C12   C     C_R   0.127640 0.497348 0.500346 -0.214264
C13   C     C_R   0.476783 0.623604 0.852137 -0.140442
C14   C     C_R   0.409627 0.388045 0.150668 -0.142776
C15   C     C_R   0.478292 0.623406 0.149018 -0.156192
C16   C     C_R   0.373470 0.403502 0.841296 -0.149080
C17   C     C_R   0.506046 0.620343 0.774957 0.139276
C18   C     C_R   0.440125 0.379206 0.228148 0.140492
C19   C     C_R   0.510179 0.619574 0.226452 0.138351
C20   C     C_R   0.400218 0.395963 0.763606 0.121725
C21   C     C_R   0.469971 0.504127 0.729619 -0.085873
C22   C     C_R   0.485778 0.498139 0.268277 -0.093786
C23   C     C_R   0.587654 0.074094 0.541537 -0.050698
C24   C     C_R   0.412116 0.925874 0.458675 -0.052693
C25   C     C_R   0.411818 0.069932 0.458944 -0.060001
C26   C     C_R   0.587580 0.929979 0.541592 -0.063665
C27   C     C_R   0.412304 0.515914 0.884545 0.063563
C28   C     C_R   0.426166 0.509617 0.112507 0.057530
H1    H     H_    0.506812 0.709333 0.887964 0.143735
H2    H     H_    0.374512 0.299177 0.119231 0.147978
H3    H     H_    0.495916 0.714931 0.116406 0.145646
H4    H     H_    0.324250 0.320450 0.868780 0.147597
H5    H     H_    0.657541 0.130518 0.574768 0.143591
H6    H     H_    0.341999 0.869453 0.425621 0.141611
H7    H     H_    0.340842 0.122905 0.426662 0.160730
H8    H     H_    0.657364 0.876786 0.574851 0.171193
N1    N     N_R   0.500000 0.857200 0.500000 -0.088177
N2    N     N_R   0.500000 0.142800 0.500000 -0.087753
O1    O     O_R   0.316770 0.614620 0.500000 -0.611354
O2    O     O_R   0.683230 0.385380 0.500000 -0.611267
O3    O     O_R   0.683230 0.614620 0.500000 -0.604223
O4    O     O_R   0.316770 0.385380 0.500000 -0.612697
O5    O     O_R   0.500010 0.614710 0.389120 -0.613305
O6    O     O_R   0.499990 0.385290 0.610880 -0.614846
O7    O     O_R   0.499990 0.614710 0.610880 -0.611661
O8    O     O_R   0.500010 0.385290 0.389120 -0.614255
Zn1   Zn    Zn3+2 0.500000 0.653120 0.500000 0.960846
Zn2   Zn    Zn3+2 0.500000 0.346880 0.500000 0.954936
C29   C     C_3   0.576761 0.741634 0.744096 -0.823728
H9    H     H_    0.610520 0.812103 0.790335 0.229456
H10   H     H_    0.660028 0.707072 0.713021 0.257567
H11   H     H_    0.514910 0.801084 0.705739 0.257716
C30   C     C_3   0.423406 0.241344 0.264536 -0.818496
H12   H     H_    0.389558 0.162276 0.222919 0.225692
H13   H     H_    0.514352 0.205935 0.288064 0.256730
H14   H     H_    0.353031 0.247140 0.310065 0.263759
C31   C     C_3   0.573562 0.745027 0.261027 -0.828006
H15   H     H_    0.605225 0.816965 0.216468 0.227748
H16   H     H_    0.507405 0.801026 0.297832 0.253407
H17   H     H_    0.658093 0.715756 0.294473 0.243542
C32   C     C_3   0.350092 0.273269 0.719256 -0.824339
H18   H     H_    0.288786 0.207780 0.754596 0.231388
H19   H     H_    0.292844 0.306530 0.669505 0.241191
H20   H     H_    0.428625 0.209063 0.699921 0.256220
C33   C     C_2   0.133341 0.379816 0.372747 0.497526
H21   H     H_    0.200870 0.442756 0.343082 0.007596
O9    O     O_2   0.122631 0.259114 0.355882 -0.529126
C34   C     C_2   0.867184 0.617374 0.627043 0.500085
H22   H     H_    0.806525 0.550402 0.659235 -0.004822
O10   O     O_2   0.871106 0.739190 0.642062 -0.531175
C35   C     C_2   0.855718 0.400340 0.366578 0.454906
H23   H     H_    0.767468 0.449605 0.354242 0.029269
O11   O     O_2   0.887778 0.308573 0.323876 -0.510754
C36   C     C_2   0.143684 0.605499 0.631364 0.454328
H24   H     H_    0.232004 0.557542 0.644736 0.034428
O12   O     O_2   0.111089 0.699884 0.672084 -0.510452

loop_
_geom_bond_atom_site_label_1
_geom_bond_atom_site_label_2
_ccdc_geom_bond_type
C32   H20   S    
C15   C19   A    
C26   N1    A    
C15   H3    S    
C25   N2    A    
C16   H4    S    
C23   N2    A    
C14   C18   A    
N2    Zn2   S    
N1    Zn1   S    
C13   C17   A    
C8    C12   A    
C29   H11   S    
C14   C28   A    
C30   H14   S    
C16   C27   A    
C6    C34   S    
C24   N1    A    
O3    Zn1   S    
C9    O8    A    
O7    Zn1   S    
O4    Zn2   S    
C30   H12   S    
C24   C25   A    
C7    C11   A    
C6    C11   A    
C26   H8    S    
C15   C28   A    
C1    C12   S    
C36   O12   D    
C10   O7    A    
C2    C11   S    
C8    C36   S    
C16   C20   A    
C4    C28   S    
C14   H2    S    
C33   H21   S    
C31   H15   S    
C3    C27   S    
C30   H13   S    
C10   C21   S    
C7    C35   S    
C32   H18   S    
C31   H16   S    
O8    Zn2   S    
C9    C22   S    
C9    O5    A    
C5    C33   S    
C25   H7    S    
C36   H24   S    
C1    O1    A    
C2    O3    A    
C10   O6    A    
C3    C4    T    
C2    O2    A    
C1    O4    A    
C35   H23   S    
C19   C22   A    
C20   C21   A    
C23   H5    S    
C5    C12   A    
C34   O10   D    
C29   H9    S    
C23   C26   A    
C17   C29   S    
C20   C32   S    
C5    C7    A    
O2    Zn2   S    
C13   C27   A    
C31   H17   S    
C6    C8    A    
C18   C30   S    
C29   H10   S    
C18   C22   A    
O1    Zn1   S    
O5    Zn1   S    
C35   O11   D    
C19   C31   S    
C32   H19   S    
C24   H6    S    
O6    Zn2   S    
C13   H1    S    
C34   H22   S    
C33   O9    D    
C17   C21   A    
