data_mof_unit_10601.cif
_audit_creation_date              2012-12-10T19:00:16-0500
_audit_creation_method            fapswitch 2.2
_symmetry_space_group_name_H-M    P1
_symmetry_Int_Tables_number       1
_space_group_crystal_system       triclinic
_cell_length_a                    9.551208
_cell_length_b                    10.869634
_cell_length_c                    13.431534
_cell_angle_alpha                 91.055043
_cell_angle_beta                  72.777413
_cell_angle_gamma                 90.877762
_cell_volume                      1331.61576831

loop_
_atom_site_label
_atom_site_type_symbol
_atom_type_description
_atom_site_fract_x
_atom_site_fract_y
_atom_site_fract_z
_atom_type_partial_charge
C1    C     C_R   0.501145 0.737798 0.501188 0.834774
C2    C     C_R   0.436553 0.495748 0.977671 0.036461
C3    C     C_R   0.460368 0.541988 0.875715 0.056122
C4    C     C_R   0.540727 0.524255 0.031855 0.071660
C5    C     C_R   0.663912 0.600101 0.984505 0.131310
C6    C     C_R   0.675453 0.655723 0.889784 -0.326198
C7    C     C_R   0.569500 0.633999 0.838768 0.224770
C8    C     C_R   0.525024 0.482075 0.132782 -0.232171
C9    C     C_R   0.748597 0.586398 0.137245 -0.204219
C10   C     C_R   0.372442 0.496165 0.814436 -0.100099
C11   C     C_R   0.373045 0.934033 0.516529 0.077230
C12   C     C_R   0.421285 0.502473 0.700087 0.846589
C13   C     C_R   0.501873 0.871453 0.509942 -0.179740
C14   C     C_R   0.625464 0.940046 0.519314 0.239220
C15   C     C_R   0.620721 0.068902 0.518943 -0.258223
C16   C     C_R   0.495683 0.129595 0.511123 -0.150825
C17   C     C_R   0.369270 0.060554 0.517791 0.129158
C18   C     C_3   0.268300 0.061261 0.451616 -0.477833
C19   C     C_3   0.273129 0.921942 0.450025 -0.435426
C20   C     C_R   0.961931 0.467298 0.412227 0.254016
C21   C     C_R   0.892217 0.544296 0.583030 -0.070651
C22   C     C_R   0.040801 0.544466 0.583028 -0.098082
C23   C     C_R   0.498715 0.262396 0.501470 0.814467
C24   C     C_R   0.109346 0.467225 0.412220 0.274850
C25   C     C_3   0.134202 0.345701 0.357240 -0.520952
C26   C     C_3   0.975998 0.346646 0.356190 -0.500774
C27   C     C_R   0.578430 0.501576 0.300095 0.786277
C28   C     C_R   0.769379 0.626707 0.035997 -0.177572
C29   C     C_R   0.622757 0.518388 0.187232 -0.050808
C30   C     C_R   0.245674 0.426984 0.861036 -0.210860
C31   C     C_R   0.212355 0.393992 0.964588 -0.145956
C32   C     C_R   0.308371 0.424102 0.021535 -0.168244
Cu1   Cu    Cu3+1 0.359330 0.500020 0.500010 0.938867
Cu2   Cu    Cu3+1 0.640670 0.499980 0.499990 0.950677
H1    H     H_    0.825660 0.614934 0.178513 0.148355
H2    H     H_    0.717796 0.121327 0.519150 0.177863
H3    H     H_    0.158662 0.097011 0.495416 0.189724
H4    H     H_    0.319698 0.102133 0.373811 0.194617
H5    H     H_    0.166761 0.878078 0.491982 0.201762
H6    H     H_    0.328112 0.882045 0.371549 0.197428
H7    H     H_    0.809969 0.578146 0.651130 0.151992
H8    H     H_    0.068504 0.578871 0.650922 0.141730
H9    H     H_    0.213659 0.350939 0.278521 0.181345
H10   H     H_    0.156395 0.273573 0.407101 0.213371
H11   H     H_    0.964452 0.355387 0.276664 0.193585
H12   H     H_    0.762270 0.722414 0.858432 0.137524
H13   H     H_    0.907844 0.272860 0.404021 0.211943
H14   H     H_    0.864137 0.683925 0.999921 0.133677
H15   H     H_    0.434561 0.424650 0.173356 0.128822
H16   H     H_    0.175422 0.393384 0.816009 0.154812
H17   H     H_    0.277599 0.390397 0.099734 0.117425
H18   H     H_    0.114827 0.339597 0.999666 0.140432
N1    N     N_R   0.852320 0.499070 0.499340 -0.186543
N2    N     N_R   0.148230 0.499110 0.499340 -0.185850
O1    O     O_R   0.381190 0.680360 0.500000 -0.580901
O2    O     O_R   0.618780 0.680320 0.499990 -0.555200
O3    O     O_R   0.323230 0.500000 0.650990 -0.598661
O4    O     O_R   0.560820 0.499960 0.650980 -0.566832
O5    O     O_R   0.381220 0.319680 0.500010 -0.577586
O6    O     O_R   0.618810 0.319640 0.500000 -0.589310
O7    O     O_R   0.439180 0.500040 0.349020 -0.581390
O8    O     O_R   0.676770 0.500000 0.349010 -0.588334
N3    N     N_2   0.563173 0.715095 0.758119 -0.414464
H19   H     H_    0.662261 0.755443 0.719790 0.269645
C33   C     C_3   0.446766 0.804277 0.790324 -0.698801
H20   H     H_    0.448131 0.863873 0.724059 0.228936
H21   H     H_    0.462191 0.863460 0.854718 0.225913
H22   H     H_    0.338162 0.757413 0.816361 0.225934
N4    N     N_2   0.757107 0.880324 0.520206 -0.395288
H23   H     H_    0.822037 0.853188 0.447411 0.257693
C34   C     C_3   0.837937 0.931117 0.587404 -0.741512
H24   H     H_    0.909404 0.858970 0.602974 0.220612
H25   H     H_    0.761944 0.962230 0.663230 0.239795
H26   H     H_    0.907928 0.009405 0.549018 0.217923

loop_
_geom_bond_atom_site_label_1
_geom_bond_atom_site_label_2
_ccdc_geom_bond_type
Cu1   O1    S    
N3    C33   S    
Cu2   O2    S    
C27   C29   S    
C31   H18   S    
C4    C8    A    
C25   H9    S    
C22   N2    A    
C23   O5    A    
C11   C19   S    
C5    C6    A    
C8    C29   A    
C19   H5    S    
C18   H3    S    
C3    C7    A    
C30   C31   A    
C24   N2    A    
C15   C16   A    
Cu2   O8    S    
C2    C32   A    
C18   C19   S    
N4    C34   S    
C27   O7    A    
C26   H11   S    
C11   C17   A    
C20   C24   A    
C16   C17   A    
C33   H21   S    
C9    C29   A    
C12   O4    A    
C30   H16   S    
Cu1   O5    S    
C13   C14   A    
Cu2   O6    S    
C25   H10   S    
Cu1   Cu2   S    
C23   O6    A    
C24   C25   S    
C34   H25   S    
C4    C5    A    
C25   C26   S    
C2    C4    A    
C32   H17   S    
C27   O8    A    
C5    C28   A    
C10   C30   A    
C31   C32   A    
C33   H22   S    
C17   C18   S    
C7    N3    S    
C10   C12   S    
C26   H13   S    
C21   H7    S    
C12   O3    A    
C16   C23   S    
C14   N4    S    
C1    C13   S    
C15   H2    S    
C9    H1    S    
Cu1   N2    S    
C28   H14   S    
Cu1   O3    S    
C6    H12   S    
C1    O2    A    
C20   N1    A    
C34   H26   S    
C6    C7    A    
C2    C3    A    
C18   H4    S    
C34   H24   S    
C3    C10   A    
C21   N1    A    
C11   C13   A    
C22   H8    S    
C20   C26   S    
C1    O1    A    
N4    H23   S    
C19   H6    S    
N3    H19   S    
Cu2   N1    S    
Cu1   O7    S    
C33   H20   S    
Cu2   O4    S    
C14   C15   A    
C21   C22   A    
C8    H15   S    
C9    C28   A    
