data_mof_unit_32967.cif
_audit_creation_date              2012-12-10T19:43:27-0500
_audit_creation_method            fapswitch 2.2
_symmetry_space_group_name_H-M    P1
_symmetry_Int_Tables_number       1
_space_group_crystal_system       triclinic
_cell_length_a                    10.892787
_cell_length_b                    10.755439
_cell_length_c                    9.642864
_cell_angle_alpha                 89.982843
_cell_angle_beta                  90.842395
_cell_angle_gamma                 93.150986
_cell_volume                      1127.89614565

loop_
_atom_site_label
_atom_site_type_symbol
_atom_type_description
_atom_site_fract_x
_atom_site_fract_y
_atom_site_fract_z
_atom_type_partial_charge
C1    C     C_R   0.496318 0.262727 0.499994 0.787974
C2    C     C_R   0.192045 0.538704 0.966451 -0.239398
C3    C     C_R   0.932744 0.541071 0.385696 -0.254076
C4    C     C_R   0.870622 0.500921 0.504367 -0.078913
C5    C     C_R   0.937163 0.460555 0.621033 0.003152
C6    C     C_R   0.064668 0.466632 0.616947 -0.250428
C7    C     C_R   0.127457 0.503001 0.496954 -0.082537
C8    C     C_R   0.059397 0.536883 0.378450 0.010652
C9    C     C_R   0.880524 0.464708 0.871394 -0.134310
C10   C     C_R   0.821881 0.410212 0.986153 -0.108058
C11   C     C_R   0.759253 0.293746 0.973847 -0.083070
C12   C     C_R   0.262143 0.500521 0.498720 0.765891
C13   C     C_R   0.755723 0.231072 0.846770 -0.094734
C14   C     C_R   0.814850 0.284852 0.731927 -0.098594
C15   C     C_R   0.877250 0.402341 0.743556 0.119921
C16   C     C_R   0.293079 0.117946 0.627868 -0.198407
C17   C     C_R   0.197617 0.047306 0.689740 -0.119617
C18   C     C_R   0.198561 0.918027 0.691238 -0.140666
C19   C     C_R   0.294440 0.858487 0.629851 -0.185532
C20   C     C_R   0.392518 0.928147 0.566906 0.100269
C21   C     C_R   0.392083 0.059582 0.566440 0.099385
C22   C     C_R   0.488661 0.128444 0.499838 -0.098662
C23   C     C_R   0.496990 0.736947 0.499956 0.765414
C24   C     C_R   0.580064 0.068764 0.430119 -0.208385
C25   C     C_R   0.580170 0.940511 0.429983 -0.207493
C26   C     C_R   0.489087 0.870348 0.499922 -0.086286
C27   C     C_R   0.656019 0.673957 0.145619 -0.165417
C28   C     C_R   0.731838 0.759401 0.074681 -0.217956
C29   C     C_R   0.731863 0.759157 0.931674 -0.214390
C30   C     C_R   0.656070 0.673431 0.858681 -0.134455
C31   C     C_R   0.574187 0.587548 0.926384 0.220093
C32   C     C_R   0.574318 0.587486 0.075729 0.210490
C33   C     C_R   0.437954 0.410234 0.072734 -0.039855
C34   C     C_R   0.737117 0.499580 0.501341 0.771047
C35   C     C_R   0.439594 0.409340 0.925163 -0.079023
C36   C     C_R   0.197024 0.650049 0.041821 -0.130428
C37   C     C_R   0.155574 0.651189 0.178125 -0.113218
C38   C     C_R   0.110238 0.540144 0.238838 0.086494
C39   C     C_R   0.104946 0.429009 0.163388 -0.117299
C40   C     C_R   0.145693 0.426873 0.026876 0.048081
Cu1   Cu    Cu3+1 0.499990 0.499990 0.640660 0.921428
Cu2   Cu    Cu3+1 0.500010 0.500010 0.359340 0.936856
H1    H     H_    0.226903 0.540412 0.862421 0.161680
H2    H     H_    0.713228 0.252281 0.062672 0.126297
H3    H     H_    0.706963 0.140976 0.837134 0.126582
H4    H     H_    0.811157 0.235730 0.633765 0.102186
H5    H     H_    0.653040 0.122004 0.377799 0.144729
H6    H     H_    0.286964 0.217947 0.626189 0.131026
H7    H     H_    0.121719 0.092901 0.735135 0.163214
H8    H     H_    0.123823 0.863502 0.738485 0.135575
H9    H     H_    0.289289 0.757888 0.630070 0.150808
H10   H     H_    0.653220 0.895720 0.377530 0.135174
H11   H     H_    0.385784 0.337129 0.126522 0.148607
H12   H     H_    0.233196 0.735374 0.994407 0.147595
H13   H     H_    0.668771 0.676721 0.254923 0.193198
H14   H     H_    0.793496 0.824110 0.131431 0.153107
H15   H     H_    0.793717 0.823492 0.876684 0.150860
H16   H     H_    0.669419 0.674702 0.749809 0.196360
H17   H     H_    0.391202 0.334372 0.869377 0.132533
H18   H     H_    0.158545 0.737671 0.235883 0.128265
H19   H     H_    0.068453 0.344127 0.211946 0.164579
H20   H     H_    0.882026 0.569167 0.294429 0.151718
H21   H     H_    0.114624 0.434260 0.704777 0.137330
H22   H     H_    0.927464 0.555703 0.881757 0.137887
H23   H     H_    0.824253 0.458639 0.084398 0.134368
N1    N     N_R   0.501190 0.501210 0.147910 -0.199512
N2    N     N_R   0.501230 0.501290 0.852040 -0.200479
O1    O     O_R   0.499990 0.319640 0.618810 -0.579555
O2    O     O_R   0.500000 0.319660 0.381240 -0.578514
O3    O     O_R   0.319640 0.500000 0.618780 -0.608412
O4    O     O_R   0.319650 0.500020 0.381210 -0.558674
O5    O     O_R   0.500000 0.680340 0.618760 -0.602847
O6    O     O_R   0.500010 0.680360 0.381190 -0.586590
O7    O     O_R   0.680350 0.499980 0.618790 -0.585904
O8    O     O_R   0.680360 0.500000 0.381220 -0.608359
C41   C     C_2   0.141546 0.307673 0.949738 0.302514
H24   H     H_    0.184731 0.301544 0.850115 0.044806
O9    O     O_2   0.090196 0.213652 0.997382 -0.558095

loop_
_geom_bond_atom_site_label_1
_geom_bond_atom_site_label_2
_ccdc_geom_bond_type
C16   C21   A    
C9    H22   S    
Cu1   Cu2   S    
C19   C20   A    
C16   H6    S    
C28   H14   S    
C7    C8    A    
C14   H4    S    
C31   N2    A    
Cu2   O8    S    
C37   C38   A    
C36   C37   A    
C41   O9    D    
C5    C6    A    
C27   H13   S    
C10   H23   S    
C1    O1    A    
C35   H17   S    
C18   C19   A    
C23   C26   S    
Cu1   O7    S    
C16   C17   A    
C9    C10   A    
C34   O8    A    
C1    C22   S    
C21   C22   A    
C8    C38   S    
C23   O6    A    
C33   N1    A    
Cu1   O1    S    
C33   H11   S    
C7    C12   S    
C39   H19   S    
C4    C34   S    
C38   C39   A    
C41   H24   S    
Cu1   N2    S    
C3    C8    A    
C17   H7    S    
C39   C40   A    
C25   C26   A    
Cu2   O2    S    
C1    O2    A    
C40   C41   S    
C6    H21   S    
C29   C30   A    
C19   H9    S    
C31   C32   A    
C35   N2    A    
C2    H1    S    
C17   C18   A    
C11   H2    S    
C24   C25   A    
C34   O7    A    
Cu1   O5    S    
C12   O4    A    
C29   H15   S    
C22   C24   A    
C3    C4    A    
C18   H8    S    
C32   N1    A    
C3    H20   S    
C2    C36   A    
C12   O3    A    
C28   C29   A    
Cu2   O6    S    
C27   C32   A    
C24   H5    S    
C23   O5    A    
C4    C5    A    
C6    C7    A    
C9    C15   A    
C25   H10   S    
C13   H3    S    
C11   C13   A    
C30   C31   A    
C20   C26   A    
C30   H16   S    
Cu2   O4    S    
C33   C35   A    
C5    C15   S    
C37   H18   S    
C36   H12   S    
C10   C11   A    
C2    C40   A    
C20   C21   A    
C27   C28   A    
Cu2   N1    S    
C14   C15   A    
C13   C14   A    
Cu1   O3    S    
