data_mof_unit_38500.cif
_audit_creation_date              2012-12-10T16:54:04-0500
_audit_creation_method            fapswitch 2.2
_symmetry_space_group_name_H-M    P1
_symmetry_Int_Tables_number       1
_space_group_crystal_system       triclinic
_cell_length_a                    9.729262
_cell_length_b                    10.913078
_cell_length_c                    13.404975
_cell_angle_alpha                 90.427636
_cell_angle_beta                  71.740983
_cell_angle_gamma                 90.428029
_cell_volume                      1351.56900119

loop_
_atom_site_label
_atom_site_type_symbol
_atom_type_description
_atom_site_fract_x
_atom_site_fract_y
_atom_site_fract_z
_atom_type_partial_charge
C1    C     C_R   0.501521 0.734412 0.498899 0.802374
C2    C     C_R   0.446724 0.497492 0.974931 0.005879
C3    C     C_R   0.467730 0.448669 0.872539 -0.010987
C4    C     C_R   0.549833 0.471693 0.027664 0.113006
C5    C     C_R   0.665470 0.390925 0.980229 0.048210
C6    C     C_R   0.676685 0.335657 0.884188 -0.238445
C7    C     C_R   0.576971 0.359977 0.832391 0.271901
C8    C     C_R   0.535802 0.515618 0.129505 -0.252072
C9    C     C_R   0.742204 0.395806 0.135964 0.296528
C10   C     C_R   0.369718 0.480708 0.818021 -0.142197
C11   C     C_2   0.618232 0.066782 0.467793 -0.067367
C12   C     C_R   0.420791 0.491717 0.700888 0.861389
C13   C     C_2   0.502327 0.135222 0.476855 -0.262949
C14   C     C_2   0.612004 0.935447 0.446461 0.070351
C15   C     C_2   0.502453 0.866058 0.509106 0.077734
C16   C     C_2   0.059039 0.589873 0.535077 0.189313
C17   C     C_2   0.922088 0.597019 0.505835 -0.042823
C18   C     C_R   0.501503 0.265882 0.493989 0.902825
C19   C     C_R   0.578606 0.495597 0.299698 0.807191
C20   C     C_R   0.761536 0.356219 0.033671 -0.202910
C21   C     C_R   0.625518 0.473729 0.185687 -0.093894
C22   C     C_R   0.227171 0.514999 0.878493 0.094192
C23   C     C_R   0.205873 0.564508 0.979439 0.301608
C24   C     C_R   0.317639 0.562414 0.023610 -0.199572
Cu1   Cu    Cu3+1 0.361370 0.499980 0.499980 0.952998
Cu2   Cu    Cu3+1 0.638630 0.500020 0.500020 1.007998
H1    H     H_    0.404896 0.093921 0.467618 0.175042
H2    H     H_    0.128561 0.438649 0.451162 0.202398
H3    H     H_    0.877283 0.686561 0.500879 0.162210
H4    H     H_    0.886137 0.418567 0.516062 0.213780
H5    H     H_    0.756509 0.264905 0.853235 0.174196
H6    H     H_    0.846723 0.291349 0.998374 0.170849
H7    H     H_    0.451666 0.578457 0.169828 0.155199
H8    H     H_    0.294194 0.603900 0.100093 0.171312
H9    H     H_    0.720497 0.107778 0.467493 0.182456
N1    N     N_2   0.152660 0.501340 0.501130 -0.302484
N2    N     N_2   0.846520 0.501370 0.501160 -0.272985
O1    O     O_R   0.382960 0.678040 0.499980 -0.585192
O2    O     O_R   0.617100 0.678080 0.500020 -0.595486
O3    O     O_R   0.325800 0.499940 0.650950 -0.592228
O4    O     O_R   0.559930 0.499980 0.650990 -0.543588
O5    O     O_R   0.382900 0.321920 0.499980 -0.583647
O6    O     O_R   0.617040 0.321960 0.500020 -0.543061
O7    O     O_R   0.440070 0.500020 0.349010 -0.584198
O8    O     O_R   0.674200 0.500060 0.349050 -0.524476
Br1   Br    Br    0.869918 0.328102 0.205231 -0.509599
C25   C     C_3   0.730549 0.885698 0.351523 -0.426388
C26   C     C_3   0.728996 0.948605 0.250432 -0.746502
H10   H     H_    0.621853 0.935769 0.238448 0.245814
H11   H     H_    0.752152 0.048134 0.253415 0.273860
H12   H     H_    0.813360 0.907783 0.182447 0.275075
H13   H     H_    0.837350 0.901500 0.363338 0.219275
H14   H     H_    0.720526 0.786119 0.338863 0.226254
Br2   Br    Br    0.359891 0.926717 0.634969 -0.517022
C27   C     C_3   0.083718 0.693187 0.603716 -0.324126
C28   C     C_3   0.948376 0.721787 0.696378 -0.851180
H15   H     H_    0.866250 0.769278 0.669117 0.260530
H16   H     H_    0.899852 0.636455 0.737719 0.254187
H17   H     H_    0.977883 0.783267 0.752958 0.279079
H18   H     H_    0.169378 0.670115 0.637772 0.263430
H19   H     H_    0.116721 0.777043 0.555386 0.221672
C29   C     C_3   0.097830 0.486673 0.841490 -0.371857
C30   C     C_3   0.091635 0.350644 0.814250 -0.741146
H20   H     H_    0.995949 0.333214 0.788091 0.226167
H21   H     H_    0.083971 0.293602 0.884001 0.259777
H22   H     H_    0.188683 0.321596 0.749799 0.279134
H23   H     H_    0.993993 0.508253 0.902167 0.241156
H24   H     H_    0.099862 0.543628 0.773934 0.226279
Br3   Br    Br    0.027716 0.640437 0.061025 -0.534104
Br4   Br    Br    0.569453 0.239763 0.728979 -0.500143

loop_
_geom_bond_atom_site_label_1
_geom_bond_atom_site_label_2
_ccdc_geom_bond_type
Cu1   O5    S    
C12   O3    A    
C2    C4    A    
C27   C28   S    
C19   O8    A    
Cu2   N2    S    
C25   H13   S    
C1    C15   S    
Cu1   O1    S    
C22   C29   S    
C17   H3    S    
C23   Br3   S    
C9    C20   A    
C25   C26   S    
C28   H17   S    
C29   H24   S    
C19   O7    A    
C4    C8    A    
C7    Br4   S    
C30   H21   S    
C6    H5    S    
C30   H22   S    
C9    Br1   S    
C3    C10   A    
C17   N2    D    
C18   O6    A    
C16   N1    D    
C11   C13   D    
C9    C21   A    
C22   C23   A    
C6    C7    A    
C10   C12   S    
C1    O1    A    
C25   H14   S    
C13   C18   S    
Cu1   O7    S    
C26   H11   S    
C26   H10   S    
C19   C21   S    
C28   H16   S    
Cu2   O6    S    
C2    C3    A    
C3    C7    A    
C8    H7    S    
C18   O5    A    
Cu1   O3    S    
C2    C24   A    
C5    C6    A    
C11   C14   S    
Cu2   O2    S    
C16   C27   S    
C29   H23   S    
C1    O2    A    
Cu1   N1    S    
C30   H20   S    
C15   Br2   S    
C27   H19   S    
C16   C17   S    
C28   H15   S    
H2    N1    S    
C12   O4    A    
C20   H6    S    
C5    C20   A    
C14   C15   D    
C13   H1    S    
C23   C24   A    
Cu2   O8    S    
Cu1   Cu2   S    
C27   H18   S    
C14   C25   S    
C11   H9    S    
C10   C22   A    
C26   H12   S    
C24   H8    S    
C29   C30   S    
H4    N2    S    
Cu2   O4    S    
C4    C5    A    
C8    C21   A    
