data_mof_unit_26407.cif
_audit_creation_date              2013-03-05T16:46:55-0500
_audit_creation_method            fapswitch 2.2
_symmetry_space_group_name_H-M    P1
_symmetry_Int_Tables_number       1
_space_group_crystal_system       triclinic
_cell_length_a                    18.157025
_cell_length_b                    18.267949
_cell_length_c                    18.384582
_cell_angle_alpha                 120.102045
_cell_angle_beta                  89.98386
_cell_angle_gamma                 119.801173
_cell_volume                      4318.81990568

loop_
_atom_site_label
_atom_site_type_symbol
_atom_site_description
_atom_site_fract_x
_atom_site_fract_y
_atom_site_fract_z
_atom_type_partial_charge
Zn1   Zn    Zn3+2 0.456040 0.586770 0.543190 1.016748
Zn2   Zn    Zn3+2 0.456820 0.413240 0.543960 1.004261
Zn3   Zn    Zn3+2 0.631110 0.586750 0.543190 0.976236
Zn4   Zn    Zn3+2 0.456040 0.413240 0.369660 0.967103
O1    O     O_3   0.500000 0.500000 0.500000 -0.490067
O2    O     O_R   0.383400 0.268380 0.323710 -0.648760
O3    O     O_R   0.555060 0.731630 0.615290 -0.599785
O4    O     O_R   0.383950 0.439280 0.616600 -0.645327
O5    O     O_R   0.677590 0.560710 0.444390 -0.642967
O6    O     O_R   0.556370 0.439260 0.616600 -0.642919
O7    O     O_R   0.382640 0.439290 0.322940 -0.641929
O8    O     O_R   0.678360 0.560700 0.616060 -0.642389
O9    O     O_R   0.382640 0.560750 0.444390 -0.648441
O10   O     O_R   0.383400 0.560740 0.616060 -0.616628
O11   O     O_R   0.555060 0.439270 0.322940 -0.650499
O12   O     O_R   0.383950 0.268380 0.445700 -0.633292
O13   O     O_R   0.677590 0.731610 0.615290 -0.656007
C1    C     C_R   0.359936 0.220023 0.361022 0.815368
C2    C     C_R   0.640920 0.780850 0.639901 0.804232
C3    C     C_R   0.358332 0.499633 0.639776 0.829985
C4    C     C_R   0.640647 0.499372 0.359344 0.747001
C5    C     C_R   0.641944 0.499643 0.639484 0.826977
C6    C     C_R   0.358846 0.501030 0.359496 0.764226
C7    C     C_3   0.340145 0.508534 0.229073 -0.372306
H1    H     H_    0.342654 0.440723 0.185540 0.213686
H2    H     H_    0.410267 0.579093 0.260416 0.157455
C8    C     C_3   0.281651 0.511785 0.171282 -0.337753
H3    H     H_    0.322511 0.586723 0.179058 0.172392
H4    H     H_    0.261647 0.450696 0.099740 0.226900
H5    H     H_    0.208159 0.332216 0.216051 0.221236
C9    C     C_3   0.204948 0.400053 0.256186 -0.435148
C10   C     C_3   0.294950 0.594732 0.358353 -0.397241
C11   C     C_3   0.301030 0.501302 0.302164 0.129829
H6    H     H_    0.267141 0.591878 0.411344 0.192121
H7    H     H_    0.363288 0.668381 0.391673 0.182225
C12   C     C_3   0.198202 0.500137 0.200183 0.054107
C13   C     C_3   0.143362 0.399619 0.197169 0.174935
C14   C     C_3   0.234216 0.593710 0.299065 -0.458004
H8    H     H_    0.273069 0.667521 0.304752 0.196222
H9    H     H_    0.177276 0.589635 0.323900 0.184686
H10   H     H_    0.176019 0.393353 0.307698 0.140513
H11   H     H_    0.089912 0.400804 0.226599 0.089475
C15   C     C_3   0.663145 0.938261 0.662905 -0.380432
H12   H     H_    0.593823 0.913347 0.662911 0.240035
H13   H     H_    0.658549 0.903426 0.591576 0.125264
C16   C     C_3   0.727774 0.057098 0.716079 0.006027
H14   H     H_    0.769241 0.069644 0.673297 0.119472
C17   C     C_3   0.696505 0.936134 0.796958 0.141293
C18   C     C_3   0.798132 0.942100 0.703613 -0.469353
C19   C     C_3   0.698000 0.896943 0.699726 0.012265
H15   H     H_    0.825088 0.911457 0.726523 0.214955
H16   H     H_    0.802493 0.917915 0.635772 0.201617
C20   C     C_3   0.798128 0.102810 0.803877 0.090747
C21   C     C_3   0.756443 0.057838 0.859682 -0.091390
C22   C     C_3   0.857565 0.061730 0.767853 -0.491319
H17   H     H_    0.895542 0.094214 0.732219 0.187437
H18   H     H_    0.909373 0.087067 0.823563 0.243195
H19   H     H_    0.729845 0.910981 0.820769 0.091587
H20   H     H_    0.814908 0.077219 0.903625 0.175303
C23   C     C_3   0.639619 0.408833 0.202202 -0.382049
H21   H     H_    0.589654 0.418165 0.180107 0.182105
H22   H     H_    0.601567 0.333308 0.193608 0.180044
C24   C     C_3   0.699218 0.407616 0.143128 -0.393166
H23   H     H_    0.690956 0.332243 0.107112 0.174235
H24   H     H_    0.676670 0.414490 0.092336 0.188604
H25   H     H_    0.699798 0.614387 0.292113 0.158494
H26   H     H_    0.786681 0.612156 0.201848 0.156747
C25   C     C_3   0.748720 0.601944 0.310869 -0.399304
C26   C     C_3   0.767721 0.483455 0.328519 -0.383732
C27   C     C_3   0.697902 0.498379 0.301556 0.188401
H27   H     H_    0.810678 0.546891 0.399290 0.192424
H28   H     H_    0.732746 0.409335 0.322246 0.177035
C28   C     C_3   0.799287 0.497853 0.200036 0.190971
C29   C     C_3   0.807803 0.601249 0.250429 -0.384568
C30   C     C_3   0.827958 0.483860 0.269117 -0.397962
H29   H     H_    0.822505 0.410061 0.234271 0.166643
H30   H     H_    0.899438 0.547660 0.311890 0.183260
H31   H     H_    0.791899 0.667536 0.381366 0.183464
H32   H     H_    0.879132 0.667315 0.291876 0.187896
H33   H     H_    0.412058 0.233502 0.694273 0.155791
C31   C     C_R   0.433615 0.176574 0.567811 -0.106939
H34   H     H_    0.500040 0.199251 0.594843 0.140384
C32   C     C_R   0.397828 0.128362 0.476937 -0.167890
H35   H     H_    0.437370 0.114223 0.434451 0.144201
C33   C     C_R   0.312207 0.099756 0.440888 0.007240
C34   C     C_R   0.261190 0.119083 0.497539 0.355585
C35   C     C_R   0.298442 0.166967 0.588975 -0.194338
H36   H     H_    0.261714 0.183609 0.634066 0.172995
C36   C     C_R   0.384049 0.195847 0.623726 -0.182979
C37   C     C_R   0.223913 0.944238 0.288205 -0.207068
H37   H     H_    0.205624 0.901637 0.317704 0.167240
C38   C     C_R   0.193841 0.892402 0.195749 -0.060013
C39   C     C_R   0.219314 0.949035 0.157911 -0.000126
C40   C     C_R   0.273842 0.055845 0.213858 -0.240910
H38   H     H_    0.292750 0.098526 0.184397 0.182342
C41   C     C_R   0.304002 0.107637 0.306279 -0.029134
C42   C     C_R   0.279178 0.051036 0.344051 0.069109
C43   C     C_R   0.251183 0.887182 0.014337 -0.170216
H39   H     H_    0.316772 0.914417 0.049542 0.142549
C44   C     C_R   0.224585 0.836581 0.921940 -0.143711
H40   H     H_    0.270162 0.825700 0.886935 0.132940
C45   C     C_R   0.139181 0.798976 0.874790 0.244321
C46   C     C_R   0.080998 0.813481 0.921564 -0.131187
H41   H     H_    0.014875 0.785143 0.886475 0.128043
C47   C     C_R   0.107774 0.864495 0.014093 -0.122253
H42   H     H_    0.061875 0.874159 0.049155 0.137656
C48   C     C_R   0.192652 0.900597 0.060793 0.139390
H43   H     H_    0.985437 0.738020 0.562826 0.155417
C49   C     C_R   0.912082 0.594152 0.549821 -0.237954
H44   H     H_    0.928298 0.556315 0.491530 0.174252
C50   C     C_R   0.857985 0.539571 0.583363 0.333720
C51   C     C_R   0.838527 0.592142 0.660135 -0.001315
C52   C     C_R   0.873307 0.696715 0.700673 -0.163046
H45   H     H_    0.860450 0.738209 0.760337 0.148196
C53   C     C_R   0.925135 0.748567 0.665114 -0.086726
H46   H     H_    0.951041 0.828856 0.696490 0.182969
C54   C     C_R   0.944635 0.697438 0.589940 -0.196469
C55   C     C_R   0.839707 0.541774 0.760329 -0.216981
H47   H     H_    0.909721 0.572256 0.765778 0.156380
C56   C     C_R   0.800176 0.501252 0.808007 -0.050068
C57   C     C_R   0.709015 0.461069 0.800418 -0.018208
C58   C     C_R   0.658863 0.459944 0.743043 -0.247864
H48   H     H_    0.588872 0.429722 0.737778 0.177825
C59   C     C_R   0.698502 0.501354 0.696040 -0.015026
C60   C     C_R   0.790408 0.543873 0.705262 0.063424
C61   C     C_R   0.595635 0.321665 0.814303 -0.151184
H49   H     H_    0.580000 0.264713 0.744718 0.122206
C62   C     C_R   0.545745 0.290435 0.863174 -0.152331
H50   H     H_    0.492522 0.209684 0.831608 0.138046
C63   C     C_R   0.563575 0.363661 0.952341 -0.094048
H51   H     H_    0.524265 0.339544 0.989872 0.135548
C64   C     C_R   0.632450 0.468017 0.993259 -0.118026
H52   H     H_    0.646216 0.524623 0.062377 0.130566
C65   C     C_R   0.683051 0.499407 0.944824 -0.114950
H53   H     H_    0.734954 0.580669 0.976564 0.115793
C66   C     C_R   0.664352 0.426390 0.854808 0.163554
H54   H     H_    0.269934 0.755313 0.575626 0.129200
C67   C     C_R   0.330882 0.769862 0.686833 -0.095476
H55   H     H_    0.378368 0.852880 0.724130 0.156922
C68   C     C_R   0.329869 0.717917 0.722959 -0.060419
H56   H     H_    0.376506 0.761311 0.788512 0.172355
C69   C     C_R   0.268148 0.610303 0.674672 0.110239
C70   C     C_R   0.206638 0.555520 0.590796 -0.126656
H57   H     H_    0.157531 0.472709 0.553626 0.137323
C71   C     C_R   0.207129 0.607893 0.555460 -0.135972
H58   H     H_    0.158792 0.565541 0.491265 0.129544
C72   C     C_R   0.269572 0.714901 0.603162 -0.148840
C73   C     C_R   0.211152 0.555236 0.770495 -0.250282
H59   H     H_    0.182621 0.599102 0.785612 0.163991
C74   C     C_R   0.193755 0.496660 0.804076 -0.024494
C75   C     C_R   0.229059 0.437035 0.781463 0.083116
C76   C     C_R   0.283274 0.440817 0.728532 -0.183106
H60   H     H_    0.310857 0.395895 0.712547 0.167954
C77   C     C_R   0.300657 0.499486 0.694928 -0.052919
C78   C     C_R   0.262351 0.555684 0.714694 -0.002886
C79   C     C_R   0.268684 0.392890 0.879600 0.280506
C80   C     C_R   0.247222 0.317951 0.895527 -0.292032
H61   H     H_    0.292807 0.338033 0.950626 0.211518
C81   C     C_R   0.167182 0.217958 0.841904 0.363368
C82   C     C_R   0.107929 0.193035 0.771415 -0.208281
H62   H     H_    0.046126 0.116463 0.728628 0.181068
C83   C     C_R   0.128522 0.265958 0.754179 -0.214308
H63   H     H_    0.082390 0.244181 0.698314 0.173452
C84   C     C_R   0.208264 0.365879 0.807506 0.016218
Zn5   Zn    Zn3+2 0.041710 0.413240 0.959030 1.013456
Zn6   Zn    Zn3+2 0.866640 0.413270 0.959030 0.950810
Zn7   Zn    Zn3+2 0.040930 0.586780 0.958260 0.970341
Zn8   Zn    Zn3+2 0.041710 0.586770 0.132560 0.961951
O14   O     O_3   0.997750 0.500010 0.002220 -0.483808
O15   O     O_R   0.942690 0.560750 0.179280 -0.646172
O16   O     O_R   0.114340 0.439270 0.886160 -0.640374
O17   O     O_R   0.820160 0.268410 0.886930 -0.642601
O18   O     O_R   0.113800 0.731630 0.056520 -0.636133
O19   O     O_R   0.819390 0.439310 0.886160 -0.641823
O20   O     O_R   0.115110 0.560720 0.179280 -0.656960
O21   O     O_R   0.941380 0.560750 0.885620 -0.652761
O22   O     O_R   0.115110 0.439270 0.057830 -0.598902
O23   O     O_R   0.942690 0.268390 0.886930 -0.631567
O24   O     O_R   0.114340 0.731630 0.178520 -0.646797
O25   O     O_R   0.820160 0.439310 0.057830 -0.645229
O26   O     O_R   0.113800 0.560730 0.885620 -0.647736
C85   C     C_R   0.856976 0.498845 0.142710 0.751182
C86   C     C_R   0.138285 0.499159 0.861350 0.818222
C87   C     C_R   0.856676 0.219047 0.861390 0.791519
C88   C     C_R   0.137967 0.779999 0.141162 0.800131
C89   C     C_R   0.856005 0.501088 0.863335 0.797046
C90   C     C_R   0.140094 0.500223 0.142812 0.785109
C91   C     C_3   0.681279 0.108666 0.713787 -0.376369
C92   C     C_3   0.614088 0.108586 0.763801 -0.808329
H64   H     H_    0.561768 0.105634 0.728839 0.221544
H65   H     H_    0.579420 0.041030 0.766630 0.287496
H66   H     H_    0.647764 0.181472 0.831674 0.271466
H67   H     H_    0.732476 0.188980 0.735408 0.215481
H68   H     H_    0.643984 0.066686 0.642516 0.194340
N1    N     N_R   0.604772 0.886750 0.801075 0.208330
O27   O     O_R   0.548914 0.903817 0.781241 -0.470301
O28   O     O_R   0.578909 0.825502 0.826513 -0.405914
C93   C     C_3   0.717051 0.108509 0.928146 -0.338005
C94   C     C_3   0.786902 0.199787 0.021377 -0.860741
H69   H     H_    0.813048 0.173121 0.050253 0.279590
H70   H     H_    0.844292 0.262021 0.020253 0.266340
H71   H     H_    0.754701 0.232786 0.065930 0.231915
H72   H     H_    0.686117 0.134564 0.904713 0.243037
H73   H     H_    0.664096 0.052784 0.938835 0.256680
N2    N     N_R   0.173243 0.092338 0.464648 0.193478
O29   O     O_R   0.149148 0.083711 0.392618 -0.396179
O30   O     O_R   0.118964 0.084535 0.510852 -0.416469
C95   C     C_3   0.110297 0.742766 0.774998 -0.445520
C96   C     C_3   0.157481 0.817792 0.749099 -0.794250
H74   H     H_    0.139388 0.874054 0.776007 0.284017
H75   H     H_    0.231618 0.860343 0.775264 0.248447
H76   H     H_    0.135994 0.774182 0.675358 0.250972
H77   H     H_    0.125908 0.684292 0.744810 0.210921
H78   H     H_    0.036513 0.700758 0.746677 0.211796
N3    N     N_R   0.824574 0.432538 0.539394 0.192797
O31   O     O_R   0.751051 0.369450 0.544326 -0.411518
O32   O     O_R   0.863322 0.395208 0.487391 -0.405791
N4    N     N_R   0.098917 0.304935 0.105975 0.223537
O33   O     O_R   0.145195 0.276657 0.059441 -0.355555
O34   O     O_R   0.011548 0.245511 0.072247 -0.414331
N5    N     N_R   0.351388 0.494581 0.936646 0.204488
O35   O     O_R   0.417598 0.508551 0.982251 -0.405612
O36   O     O_R   0.358757 0.575092 0.949503 -0.392719
N6    N     N_R   0.146528 0.141917 0.858572 0.236555
O37   O     O_R   0.205581 0.160669 0.917206 -0.368283
O38   O     O_R   0.068858 0.052636 0.814436 -0.428787

loop_
_geom_bond_atom_site_label_1
_geom_bond_atom_site_label_2
_geom_bond_distance
_ccdc_geom_bond_type
Zn5   O16   1.942847 S    
Zn8   O20   1.944587 S    
H25   C25   1.113136 S    
C22   H17   1.113438 S    
C24   H24   1.106464 S    
C95   H77   1.111577 S    
Zn6   O17   1.932442 S    
C61   H49   1.082210 S    
C8    H4    1.110084 S    
Zn5   O22   1.951061 S    
C28   C29   1.550602 S    
C50   C51   1.420040 A    
C7    C8    1.544978 S    
C15   H12   1.105464 S    
C62   H50   1.082304 S    
C31   H34   1.081875 S    
N4    O33   1.300985 A    
C49   C54   1.396141 A    
Zn7   O14   1.956988 S    
Zn7   O26   1.935945 S    
N2    O29   1.300880 A    
O6    C5    1.280318 A    
C17   C21   1.575151 S    
C47   C48   1.403465 A    
O18   C88   1.276927 A    
C39   C40   1.382974 A    
C3    C77   1.457423 S    
C23   H21   1.113779 S    
C23   C24   1.533001 S    
Zn1   O1    1.942907 S    
C35   H36   1.082953 S    
O16   C86   1.273445 A    
C79   C80   1.408353 A    
C73   C74   1.397351 A    
C83   H63   1.083582 S    
C49   C50   1.407899 A    
C14   H8    1.113488 S    
C70   H57   1.083128 S    
Zn7   O21   1.945961 S    
O19   C89   1.273115 A    
C25   C29   1.544158 S    
C53   H46   1.082118 S    
O8    C5    1.270949 A    
H33   C36   1.082440 S    
C96   H76   1.110318 S    
C1    C41   1.454243 S    
O9    C6    1.279324 A    
C26   H27   1.110790 S    
O7    C6    1.278371 A    
C13   H11   1.115305 S    
C92   H65   1.101899 S    
C55   H47   1.084739 S    
C50   N3    1.442356 S    
Zn3   O8    1.950176 S    
C71   C72   1.397785 A    
C91   H68   1.113515 S    
N4    O34   1.301191 A    
C80   H61   1.082435 S    
C32   H35   1.083477 S    
C20   C21   1.589764 S    
C64   H52   1.082452 S    
C6    C11   1.491318 S    
C35   C36   1.396381 A    
C94   H71   1.109459 S    
C61   C62   1.397611 A    
C75   C76   1.385643 A    
C9    C11   1.550576 S    
Zn3   O13   1.932442 S    
C93   C94   1.535924 S    
C55   C60   1.378851 A    
C10   C14   1.537608 S    
C69   C78   1.476482 S    
Zn2   O12   1.934609 S    
C37   C42   1.383018 A    
Zn7   O18   1.934507 S    
C8    H3    1.113168 S    
C31   C36   1.393564 A    
Zn8   O15   1.937877 S    
C61   C66   1.403616 A    
C94   H69   1.110812 S    
C80   C81   1.405841 A    
O15   C85   1.281228 A    
C25   H31   1.113205 S    
Zn5   O23   1.935354 S    
C28   C30   1.551639 S    
C40   H38   1.084704 S    
C13   N4    1.469139 S    
C34   N2    1.443254 S    
C51   C52   1.405937 A    
C31   C32   1.394589 A    
O25   C85   1.280764 A    
C71   H58   1.082334 S    
C83   C84   1.402912 A    
C21   H20   1.115741 S    
C20   C22   1.572427 S    
Zn5   O14   1.942907 S    
O2    C1    1.290738 A    
Zn6   O19   1.950031 S    
C69   C70   1.403119 A    
C45   C46   1.405305 A    
C10   H7    1.113263 S    
O10   C3    1.275324 A    
C68   H56   1.083024 S    
Zn4   O2    1.935209 S    
C20   C87   1.503916 S    
C38   C88   1.454515 S    
C95   C96   1.525242 S    
C65   C66   1.403264 A    
N1    O27   1.298993 A    
C24   C28   1.551531 S    
N6    O37   1.301604 A    
C18   H15   1.113228 S    
C33   C34   1.422375 A    
C43   C48   1.402620 A    
C9    C13   1.552730 S    
N6    O38   1.301619 A    
C79   N5    1.442104 S    
C10   H6    1.109621 S    
C92   H66   1.108322 S    
C63   C64   1.398701 A    
C30   H29   1.113005 S    
N5    O35   1.301658 A    
Zn3   O5    1.941464 S    
C15   H13   1.114360 S    
O17   C87   1.281652 A    
C37   C38   1.398602 A    
C81   C82   1.402216 A    
C23   C27   1.554166 S    
C67   C72   1.397972 A    
C18   H16   1.113114 S    
C41   C42   1.418197 A    
C44   C45   1.404478 A    
C96   H74   1.111081 S    
C57   C58   1.379304 A    
C46   C47   1.399461 A    
H26   C29   1.113162 S    
O4    C3    1.285261 A    
C7    H1    1.112981 S    
Zn4   O7    1.944591 S    
C40   C41   1.398227 A    
C38   C39   1.419242 A    
C30   H30   1.113057 S    
C77   C78   1.416028 A    
C51   C60   1.482169 S    
C65   H53   1.083130 S    
C67   C68   1.398831 A    
O12   C1    1.277522 A    
Zn8   O14   1.955794 S    
C73   C78   1.384549 A    
C76   C77   1.399219 A    
C91   H67   1.110984 S    
C75   C84   1.482513 S    
C43   C44   1.398180 A    
C29   H32   1.113081 S    
C22   H18   1.113702 S    
C17   N1    1.472642 S    
C93   H73   1.107721 S    
C18   C19   1.562447 S    
Zn2   O1    1.956840 S    
Zn6   O25   1.941464 S    
C57   C66   1.477556 S    
C58   C59   1.396842 A    
Zn2   O6    1.946063 S    
C93   H72   1.095061 S    
C26   H28   1.112959 S    
C56   C57   1.409872 A    
C34   C35   1.409260 A    
C52   H45   1.083494 S    
C92   H64   1.110478 S    
C70   C71   1.397306 A    
C53   C54   1.393342 A    
C16   H14   1.116691 S    
C12   C13   1.564277 S    
C95   H78   1.110168 S    
C9    H10   1.113484 S    
C32   C33   1.405297 A    
Zn1   O3    1.935456 S    
H43   C54   1.082366 S    
H54   C72   1.082300 S    
Zn2   O4    1.935901 S    
C21   C93   1.562553 S    
C7    H2    1.112959 S    
C68   C69   1.403151 A    
Zn4   O1    1.955794 S    
Zn3   O1    1.948835 S    
C56   C89   1.438356 S    
C17   H19   1.116954 S    
C15   C19   1.554360 S    
C5    C59   1.439716 S    
C74   C86   1.456732 S    
O24   C88   1.291624 A    
C62   C63   1.397040 A    
C8    C12   1.554306 S    
Zn8   O24   1.935164 S    
C47   H42   1.083054 S    
O3    C2    1.281626 A    
C7    C11   1.552996 S    
O22   C90   1.280587 A    
C4    C27   1.486117 S    
C12   C90   1.493177 S    
C10   C11   1.552770 S    
Zn4   O11   1.937880 S    
C12   C14   1.557858 S    
C63   H51   1.082467 S    
N5    O36   1.301007 A    
C18   C22   1.550133 S    
C49   H44   1.082601 S    
C82   H62   1.082223 S    
C23   H22   1.113457 S    
C14   H9    1.113652 S    
C28   C85   1.485899 S    
C2    C19   1.502555 S    
O5    C4    1.283074 A    
C37   H37   1.084636 S    
H5    C9    1.112709 S    
C52   C53   1.394615 A    
C16   C20   1.588510 S    
C17   C19   1.563422 S    
C44   H40   1.083216 S    
C96   H75   1.110336 S    
C26   C30   1.545425 S    
C73   H59   1.084861 S    
N3    O31   1.301567 A    
C26   C27   1.551325 S    
C15   C16   1.544410 S    
C55   C56   1.397792 A    
O21   C89   1.277432 A    
N3    O32   1.302523 A    
C33   C42   1.483906 S    
C67   H55   1.082144 S    
C39   C48   1.481604 S    
O20   C90   1.277329 A    
C24   H23   1.112220 S    
O13   C2    1.282202 A    
O11   C4    1.279019 A    
Zn1   O9    1.951163 S    
C76   H60   1.084973 S    
C79   C84   1.417903 A    
Zn6   O14   1.948835 S    
C64   C65   1.397828 A    
C43   H39   1.083130 S    
C46   H41   1.083163 S    
C94   H70   1.106713 S    
C25   C27   1.549197 S    
C74   C75   1.417661 A    
C91   C92   1.527348 S    
Zn1   O10   1.942948 S    
C16   C91   1.559576 S    
C58   H48   1.085468 S    
N2    O30   1.301735 A    
C45   C95   1.506949 S    
O23   C87   1.283996 A    
C81   N6    1.439893 S    
O26   C86   1.286617 A    
C82   C83   1.393943 A    
C59   C60   1.412946 A    
N1    O28   1.301392 A    
