data_mof_unit_9104.cif
_audit_creation_date              2012-12-10T17:35:44-0500
_audit_creation_method            fapswitch 2.2
_symmetry_space_group_name_H-M    P1
_symmetry_Int_Tables_number       1
_space_group_crystal_system       triclinic
_cell_length_a                    10.503445
_cell_length_b                    12.206911
_cell_length_c                    12.776375
_cell_angle_alpha                 93.314715
_cell_angle_beta                  92.206865
_cell_angle_gamma                 87.941677
_cell_volume                      1633.23235385

loop_
_atom_site_label
_atom_site_type_symbol
_atom_type_description
_atom_site_fract_x
_atom_site_fract_y
_atom_site_fract_z
_atom_type_partial_charge
C1    C     C_R   0.496713 0.521861 0.699301 0.958105
C2    C     C_R   0.582554 0.164593 0.606718 0.183855
C3    C     C_R   0.547075 0.861038 0.548263 0.192678
C4    C     C_R   0.457680 0.137961 0.449245 0.193741
C5    C     C_R   0.529608 0.977966 0.545310 -0.059168
C6    C     C_R   0.475876 0.021255 0.453197 -0.062533
C7    C     C_R   0.741821 0.501248 0.500390 0.880363
C8    C     C_R   0.258256 0.499097 0.501417 0.876050
C9    C     C_3   0.959767 0.555723 0.590827 -0.255737
C10   C     C_3   0.040141 0.445920 0.413148 -0.291739
C11   C     C_3   0.039732 0.605089 0.506459 -0.182908
C12   C     C_R   0.502667 0.477849 0.300514 0.902438
C13   C     C_3   0.960602 0.396162 0.497887 -0.214659
C14   C     C_3   0.123434 0.498737 0.502396 0.013392
C15   C     C_3   0.876715 0.502548 0.501786 0.003290
C16   C     C_3   0.044908 0.451059 0.584906 0.155463
C17   C     C_3   0.955166 0.550726 0.419583 0.150847
C18   C     C_R   0.512802 0.462070 0.189593 -0.118989
C19   C     C_R   0.483208 0.535292 0.809762 -0.081968
C20   C     C_R   0.344791 0.569875 0.953862 0.084825
C21   C     C_R   0.642284 0.412103 0.042403 0.070545
C22   C     C_R   0.368091 0.576828 0.848314 0.032130
C23   C     C_R   0.580658 0.493630 0.873678 -0.017491
C24   C     C_R   0.622568 0.411103 0.149177 0.052330
C25   C     C_3   0.338998 0.182169 0.392498 -0.382308
C26   C     C_3   0.221968 0.180592 0.461077 -0.325646
C27   C     C_3   0.165893 0.067275 0.465831 -0.895156
C28   C     C_3   0.670132 0.815768 0.596946 -0.391652
C29   C     C_3   0.778852 0.812798 0.519166 -0.296483
C30   C     C_3   0.830763 0.925557 0.502138 -0.894350
C31   C     C_3   0.455201 0.971656 0.256131 -0.387510
C32   C     C_3   0.334954 0.962533 0.183387 -0.346838
C33   C     C_3   0.343168 0.032766 0.088924 -0.902924
C34   C     C_R   0.412841 0.499100 0.124764 0.005620
C35   C     C_3   0.570481 0.022634 0.742569 -0.408493
C36   C     C_3   0.700828 0.032864 0.801946 -0.328487
C37   C     C_3   0.712802 0.957481 0.893380 -0.907032
C38   C     C_R   0.555171 0.473053 0.977918 0.007287
C39   C     C_R   0.435551 0.513500 0.019106 0.060679
C40   C     C_R   0.437018 0.946011 0.370261 0.034313
C41   C     C_R   0.570308 0.052961 0.627984 0.050291
C42   C     C_R   0.416799 0.836116 0.393900 0.196621
H1    H     H_    0.074817 0.689941 0.507834 0.151141
H2    H     H_    0.286183 0.575204 0.224333 0.189257
H3    H     H_    0.736083 0.404692 0.816299 0.180608
H4    H     H_    0.769953 0.528874 0.882787 0.187332
H5    H     H_    0.715741 0.272764 0.194849 0.204939
H6    H     H_    0.803590 0.386368 0.206910 0.179264
H7    H     H_    0.257274 0.707116 0.804980 0.199367
H8    H     H_    0.189245 0.583839 0.782631 0.209088
H9    H     H_    0.251025 0.677118 0.055426 0.203498
H10   H     H_    0.165743 0.564034 0.010079 0.209691
H11   H     H_    0.820858 0.390615 0.982763 0.179428
H12   H     H_    0.926432 0.311018 0.496535 0.155733
H13   H     H_    0.712096 0.291639 0.940531 0.183772
H14   H     H_    0.144651 0.030838 0.385823 0.253047
H15   H     H_    0.231614 0.011498 0.509285 0.266846
H16   H     H_    0.075453 0.075583 0.508262 0.243212
H17   H     H_    0.247568 0.211878 0.542032 0.236350
H18   H     H_    0.146658 0.235836 0.428211 0.213380
H19   H     H_    0.351919 0.266500 0.371232 0.219591
H20   H     H_    0.317486 0.138895 0.316705 0.194596
H21   H     H_    0.759635 0.976775 0.458886 0.267964
H22   H     H_    0.858241 0.968469 0.578090 0.253799
H23   H     H_    0.923797 0.598504 0.663448 0.135810
H24   H     H_    0.916820 0.914896 0.454253 0.245502
H25   H     H_    0.858283 0.761841 0.551589 0.214702
H26   H     H_    0.747507 0.774744 0.441813 0.260968
H27   H     H_    0.702664 0.861523 0.668374 0.196226
H28   H     H_    0.656372 0.733641 0.624509 0.219976
H29   H     H_    0.695948 0.293813 0.648980 0.234762
H30   H     H_    0.584452 0.264681 0.738885 0.204525
H31   H     H_    0.252229 0.812377 0.312706 0.137009
H32   H     H_    0.315039 0.701244 0.357506 0.235359
H33   H     H_    0.348317 0.120983 0.114929 0.258976
H34   H     H_    0.075621 0.403815 0.340056 0.129496
H35   H     H_    0.428719 0.007618 0.043844 0.263818
H36   H     H_    0.257082 0.021825 0.036666 0.251532
H37   H     H_    0.324975 0.876028 0.153069 0.233352
H38   H     H_    0.247682 0.987901 0.225859 0.215161
H39   H     H_    0.496322 0.053960 0.252616 0.197686
H40   H     H_    0.529675 0.913460 0.223944 0.198303
H41   H     H_    0.635551 0.977470 0.948995 0.263970
H42   H     H_    0.707334 0.870157 0.864403 0.258377
H43   H     H_    0.806064 0.968937 0.935801 0.252176
H44   H     H_    0.780750 0.013705 0.748901 0.221295
H45   H     H_    0.020907 0.385643 0.724857 0.172923
H46   H     H_    0.711875 0.118172 0.834846 0.225189
H47   H     H_    0.499996 0.077749 0.784189 0.186752
H48   H     H_    0.533256 0.939184 0.748108 0.202075
H49   H     H_    0.133097 0.320828 0.653049 0.178705
H50   H     H_    0.837890 0.557362 0.289426 0.182925
H51   H     H_    0.976654 0.619907 0.280918 0.175957
H52   H     H_    0.262737 0.439883 0.196862 0.165211
N1    N     N_R   0.523490 0.207800 0.519350 -0.144022
N2    N     N_3   0.745356 0.343635 0.002608 -0.485895
N3    N     N_3   0.648656 0.232857 0.683676 -0.490211
N4    N     N_3   0.340105 0.770402 0.321776 -0.451299
N5    N     N_R   0.476510 0.792200 0.480650 -0.146372
N6    N     N_3   0.097158 0.398423 0.677314 -0.471984
N7    N     N_3   0.902032 0.608670 0.330591 -0.471110
N8    N     N_3   0.287091 0.513045 0.165092 -0.494198
N9    N     N_3   0.706242 0.485981 0.832235 -0.497540
N10   N     N_3   0.713214 0.356517 0.217350 -0.439445
N11   N     N_3   0.274107 0.625337 0.778777 -0.438281
N12   N     N_3   0.229670 0.622886 0.991339 -0.480418
O1    O     O_R   0.506270 0.421700 0.658830 -0.637774
O2    O     O_R   0.493730 0.578300 0.341170 -0.618389
O3    O     O_R   0.491200 0.609310 0.646410 -0.626268
O4    O     O_R   0.508800 0.390690 0.353590 -0.624835
O5    O     O_R   0.693580 0.406210 0.506230 -0.633617
O6    O     O_R   0.306420 0.593790 0.493770 -0.648675
O7    O     O_R   0.678510 0.593830 0.493810 -0.638507
O8    O     O_R   0.321490 0.406170 0.506190 -0.641269
Zn1   Zn    Zn3+2 0.510060 0.374730 0.508290 0.910024
Zn2   Zn    Zn3+2 0.489940 0.625270 0.491710 0.916674

loop_
_geom_bond_atom_site_label_1
_geom_bond_atom_site_label_2
_ccdc_geom_bond_type
C30   H22   S    
C28   H27   S    
C33   H35   S    
C12   O4    A    
O8    Zn1   S    
H32   N4    S    
C36   H46   S    
H29   N3    S    
C28   C29   S    
C26   C27   S    
C34   N8    S    
C31   H40   S    
C18   C24   A    
C37   H43   S    
C36   C37   S    
C9    C16   S    
H45   N6    S    
C42   N4    S    
C38   C39   A    
C11   C14   S    
C33   H36   S    
C10   C17   S    
C29   H26   S    
C31   C40   S    
C17   N7    S    
H3    N9    S    
O3    Zn2   S    
C1    O3    A    
C29   H25   S    
C10   H34   S    
C33   H33   S    
C23   N9    S    
C21   C38   A    
C35   C36   S    
C2    N3    S    
N1    Zn1   S    
H8    N11   S    
C37   H42   S    
C11   H1    S    
H49   N6    S    
C26   H17   S    
C8    O8    A    
O7    Zn2   S    
C7    C15   S    
H10   N12   S    
C30   H21   S    
H11   N2    S    
C4    C25   S    
C20   N12   S    
H30   N3    S    
H31   N4    S    
C1    C19   S    
C34   C39   A    
C19   C22   A    
C4    C6    A    
C10   C14   S    
H51   N7    S    
N5    Zn2   S    
C12   O2    A    
C20   C39   A    
H2    N8    S    
C27   H14   S    
C16   N6    S    
H7    N11   S    
C36   H44   S    
C25   C26   S    
C10   C13   S    
C24   N10   S    
C19   C23   A    
C29   C30   S    
C32   H38   S    
C4    N1    A    
C18   C34   A    
C31   C32   S    
C25   H19   S    
C9    C11   S    
O1    Zn1   S    
C30   H24   S    
H50   N7    S    
C1    O1    A    
C35   H47   S    
C20   C22   A    
C13   C15   S    
C27   H15   S    
C14   C16   S    
C21   C24   A    
C22   N11   S    
O6    Zn2   S    
C13   H12   S    
C15   C17   S    
C5    C41   A    
C3    C28   S    
C8    C14   S    
H5    N10   S    
C28   H28   S    
H13   N2    S    
C3    C5    A    
C27   H16   S    
C11   C17   S    
C21   N2    S    
C23   C38   A    
H4    N9    S    
C31   H39   S    
C32   C33   S    
C7    O7    A    
C8    O6    A    
C9    C15   S    
C42   N5    A    
C32   H37   S    
O2    Zn2   S    
C5    C6    A    
H9    N12   S    
C40   C42   A    
C7    O5    A    
C6    C40   A    
C25   H20   S    
C35   C41   S    
C9    H23   S    
C35   H48   S    
C3    N5    A    
H52   N8    S    
C13   C16   S    
C12   C18   S    
C37   H41   S    
O5    Zn1   S    
C2    C41   A    
C2    N1    A    
C26   H18   S    
O4    Zn1   S    
H6    N10   S    
