data_mof_unit_42731.cif
_audit_creation_date              2012-12-11T15:33:59-0500
_audit_creation_method            fapswitch 2.2
_symmetry_space_group_name_H-M    P1
_symmetry_Int_Tables_number       1
_space_group_crystal_system       triclinic
_cell_length_a                    15.054553
_cell_length_b                    15.070285
_cell_length_c                    34.945407
_cell_angle_alpha                 90.467451
_cell_angle_beta                  89.882166
_cell_angle_gamma                 60.040171
_cell_volume                      6868.47610801

loop_
_atom_site_label
_atom_site_type_symbol
_atom_type_description
_atom_site_fract_x
_atom_site_fract_y
_atom_site_fract_z
_atom_type_partial_charge
C1    C     C_R   0.302515 0.608209 0.555763 0.539377
C2    C     C_R   0.244780 0.705884 0.385248 -0.106059
C3    C     C_R   0.748054 0.133009 0.266709 -0.042519
C4    C     C_R   0.753770 0.125268 0.226986 -0.070922
C5    C     C_R   0.670354 0.193791 0.204657 0.039578
C6    C     C_R   0.720389 0.236023 0.348029 0.252395
C7    C     C_R   0.704597 0.253955 0.387309 -0.067093
C8    C     C_R   0.556350 0.231147 0.384172 -0.129985
C9    C     C_R   0.738977 0.582376 0.648031 -0.117657
C10   C     C_R   0.572354 0.212190 0.344984 -0.156306
C11   C     C_R   0.652269 0.217515 0.326488 0.027381
C12   C     C_R   0.620072 0.256013 0.405410 -0.022391
C13   C     C_R   0.224921 0.706273 0.346429 -0.106165
C14   C     C_R   0.083718 0.708424 0.093927 -0.028447
C15   C     C_R   0.102281 0.615159 0.109392 -0.136286
C16   C     C_R   0.137708 0.589805 0.146638 -0.147056
C17   C     C_R   0.154512 0.657375 0.169117 0.017107
C18   C     C_R   0.140415 0.749854 0.153105 0.253135
C19   C     C_R   0.107607 0.772734 0.115367 -0.056185
C20   C     C_R   0.265498 0.627316 0.225800 -0.126172
C21   C     C_R   0.209022 0.629711 0.330588 0.026398
C22   C     C_R   0.565307 0.725985 0.649822 -0.121557
C23   C     C_R   0.250736 0.627700 0.408600 0.020309
C24   C     C_R   0.735993 0.025647 0.943388 0.542195
C25   C     C_R   0.745996 0.722887 0.945048 0.544801
C26   C     C_R   0.038301 0.734020 0.948328 0.541603
C27   C     C_R   0.722968 0.038745 0.052834 0.547974
C28   C     C_R   0.733459 0.734546 0.054813 0.550689
C29   C     C_R   0.657122 0.660927 0.668817 0.031416
C30   C     C_R   0.027524 0.744741 0.057845 0.547351
C31   C     C_R   0.552655 0.707267 0.611630 -0.127251
C32   C     C_R   0.673376 0.674390 0.788119 0.345088
C33   C     C_R   0.664696 0.668717 0.710637 0.346000
C34   C     C_R   0.762834 0.599097 0.849501 -0.122245
C35   C     C_R   0.779287 0.609887 0.888043 -0.130233
C36   C     C_R   0.628071 0.778701 0.889161 -0.131300
C37   C     C_R   0.611477 0.767786 0.850600 -0.123811
C38   C     C_R   0.681128 0.679582 0.830037 0.034221
C39   C     C_R   0.610677 0.588439 0.555226 0.540362
C40   C     C_R   0.277255 0.622709 0.265340 -0.122269
C41   C     C_R   0.714526 0.701527 0.907801 0.023205
C42   C     C_R   0.723387 0.073152 0.905649 0.022140
C43   C     C_R   0.630636 0.109282 0.885936 -0.124379
C44   C     C_R   0.625613 0.130401 0.847051 -0.119365
C45   C     C_R   0.713058 0.116070 0.827246 0.031899
C46   C     C_R   0.803431 0.088241 0.847506 -0.120003
C47   C     C_R   0.808597 0.066940 0.886482 -0.125548
C48   C     C_R   0.753243 0.175985 0.766533 -0.112523
C49   C     C_R   0.746652 0.186089 0.726828 -0.110197
C50   C     C_R   0.698658 0.142902 0.705287 0.028597
C51   C     C_R   0.201499 0.623329 0.289031 0.022832
C52   C     C_R   0.590821 0.299522 0.553368 0.569303
C53   C     C_R   0.661132 0.086042 0.723901 -0.108868
C54   C     C_R   0.667377 0.076305 0.763513 -0.112565
C55   C     C_R   0.711440 0.123054 0.785210 0.025921
C56   C     C_R   0.580980 0.196278 0.649687 -0.133283
C57   C     C_R   0.556011 0.232854 0.612615 -0.159560
C58   C     C_R   0.728858 0.202709 0.602809 0.229715
C59   C     C_R   0.753064 0.166354 0.640213 -0.080667
C60   C     C_R   0.678545 0.166016 0.664234 -0.010188
C61   C     C_R   0.627768 0.240698 0.589168 0.032696
C62   C     C_R   0.116807 0.622775 0.272845 -0.100699
C63   C     C_R   0.091909 0.697423 0.911245 0.021414
C64   C     C_R   0.300643 0.610096 0.446006 0.542698
C65   C     C_R   0.121953 0.758516 0.891061 -0.125342
C66   C     C_R   0.145671 0.740957 0.852224 -0.121034
C67   C     C_R   0.140902 0.661428 0.833010 0.030927
C68   C     C_R   0.120630 0.594229 0.853810 -0.117288
C69   C     C_R   0.096067 0.612198 0.892709 -0.125616
C70   C     C_R   0.211413 0.561448 0.772238 -0.108990
C71   C     C_R   0.219731 0.557398 0.732392 -0.106190
C72   C     C_R   0.163608 0.646591 0.710686 0.032517
C73   C     C_R   0.104373 0.628746 0.233318 -0.099225
C74   C     C_R   0.096896 0.739139 0.729520 -0.108337
C75   C     C_R   0.089429 0.743308 0.769288 -0.107128
C76   C     C_R   0.608551 0.590340 0.445285 0.567610
C77   C     C_R   0.147840 0.654900 0.790952 0.031062
C78   C     C_R   0.190785 0.723888 0.652066 -0.112652
C79   C     C_R   0.222975 0.715465 0.614147 -0.115399
C80   C     C_R   0.230862 0.551327 0.608528 -0.124543
C81   C     C_R   0.198237 0.559986 0.646465 -0.117914
C82   C     C_R   0.181435 0.644652 0.668980 0.031938
C83   C     C_R   0.247119 0.627308 0.592465 0.021979
C84   C     C_R   0.176975 0.634441 0.209803 0.007589
C85   C     C_R   0.691796 0.718804 0.090808 -0.021023
C86   C     C_R   0.599736 0.797553 0.106546 -0.128917
C87   C     C_R   0.571059 0.790306 0.143901 -0.109330
C88   C     C_R   0.587828 0.303306 0.443649 0.552013
C89   C     C_R   0.634090 0.704617 0.166119 0.066646
C90   C     C_R   0.723011 0.622562 0.149635 0.248307
C91   C     C_R   0.750841 0.629819 0.112174 -0.085287
C92   C     C_R   0.590477 0.632744 0.222113 -0.102841
C93   C     C_R   0.586479 0.621116 0.261865 0.259164
C94   C     C_R   0.603789 0.684749 0.286814 0.021934
C95   C     C_R   0.205633 0.557032 0.354322 -0.114565
C96   C     C_R   0.619920 0.761696 0.272025 -0.118888
C97   C     C_R   0.625366 0.772061 0.232588 0.249168
C98   C     C_R   0.612879 0.705689 0.207381 0.033452
C99   C     C_R   0.549118 0.743184 0.354163 -0.107228
C100  C     C_R   0.631659 0.623225 0.591855 0.022250
C101  C     C_R   0.554169 0.723179 0.393338 0.196669
C102  C     C_R   0.698899 0.551792 0.381120 0.195830
C103  C     C_R   0.689249 0.572080 0.342034 0.001976
C104  C     C_R   0.613000 0.666289 0.328306 -0.030744
C105  C     C_R   0.625017 0.624348 0.407248 0.007252
C106  C     C_R   0.226918 0.555674 0.393181 -0.118775
C107  C     C_R   0.699414 0.101136 0.087980 0.020491
C108  C     C_R   0.775517 0.116129 0.104949 -0.119096
C109  C     C_R   0.762870 0.153764 0.142254 -0.106723
C110  C     C_R   0.673818 0.177477 0.163022 0.032815
C111  C     C_R   0.593710 0.171824 0.144897 -0.098523
C112  C     C_R   0.726386 0.563732 0.609901 -0.117291
C113  C     C_R   0.606415 0.133828 0.107583 -0.113362
C114  C     C_R   0.581587 0.271160 0.222614 -0.110531
C115  C     C_R   0.576170 0.279247 0.262418 -0.096625
C116  C     C_R   0.659257 0.209876 0.284596 0.065667
Cl1   Cl    Cl    0.827887 0.199632 0.574793 -0.585129
Cl2   Cl    Cl    0.656518 0.863388 0.215985 -0.610813
Cl3   Cl    Cl    0.469514 0.825222 0.423503 -0.577606
Cl4   Cl    Cl    0.806818 0.513591 0.176135 -0.596354
Cl5   Cl    Cl    0.819220 0.248830 0.326410 -0.547963
Cr1   Cr    Cr6+3 0.421670 0.426920 0.499620 1.027453
Cr2   Cr    Cr6+3 0.427030 0.651190 0.500980 1.092009
Cr3   Cr    Cr6+3 0.651280 0.421870 0.499380 1.103737
Cr4   Cr    Cr6+3 0.910810 0.908010 0.001130 1.018182
Cr5   Cr    Cr6+3 0.682800 0.909890 0.998370 1.018024
Cr6   Cr    Cr6+3 0.908370 0.682300 0.002180 1.020580
H1    H     H_    0.789068 0.499052 0.595271 0.156661
H2    H     H_    0.478055 0.260735 0.603205 0.141209
H3    H     H_    0.871754 0.076892 0.832768 0.103065
H4    H     H_    0.478874 0.754785 0.598408 0.136981
H5    H     H_    0.120318 0.824276 0.904553 0.128117
H6    H     H_    0.073401 0.563675 0.907499 0.126396
H7    H     H_    0.189639 0.498771 0.658587 0.108771
H8    H     H_    0.272994 0.485279 0.718710 0.105425
H9    H     H_    0.256910 0.492438 0.788494 0.105964
H10   H     H_    0.163202 0.792403 0.836750 0.109083
H11   H     H_    0.051399 0.808608 0.713519 0.110881
H12   H     H_    0.881237 0.039072 0.900900 0.127915
H13   H     H_    0.037951 0.815769 0.783201 0.110762
H14   H     H_    0.179287 0.789697 0.668755 0.110976
H15   H     H_    0.846236 0.548764 0.901673 0.129762
H16   H     H_    0.234754 0.775320 0.602611 0.139756
H17   H     H_    0.116946 0.532171 0.839467 0.109282
H18   H     H_    0.248225 0.482731 0.592443 0.129498
H19   H     H_    0.552515 0.866984 0.090757 0.138971
H20   H     H_    0.822034 0.568011 0.100654 0.163586
H21   H     H_    0.742746 0.514178 0.322219 0.209887
H22   H     H_    0.580267 0.582318 0.202599 0.123937
H23   H     H_    0.829649 0.140373 0.650846 0.140745
H24   H     H_    0.502273 0.853776 0.156185 0.149168
H25   H     H_    0.633560 0.810365 0.291253 0.153399
H26   H     H_    0.811367 0.532026 0.661667 0.139574
H27   H     H_    0.492881 0.817914 0.343704 0.159405
H28   H     H_    0.847558 0.092770 0.090375 0.135390
H29   H     H_    0.546166 0.123788 0.095119 0.133465
H30   H     H_    0.519895 0.197237 0.328742 0.133370
H31   H     H_    0.507209 0.339337 0.275972 0.121264
H32   H     H_    0.516460 0.324570 0.205871 0.105518
H33   H     H_    0.501188 0.787902 0.664958 0.134999
H34   H     H_    0.774995 0.231451 0.713174 0.117074
H35   H     H_    0.824884 0.159166 0.155626 0.137118
H36   H     H_    0.812140 0.078159 0.283536 0.148909
H37   H     H_    0.822062 0.063488 0.213728 0.129585
H38   H     H_    0.754408 0.273577 0.403068 0.196709
H39   H     H_    0.524445 0.189481 0.160491 0.123496
H40   H     H_    0.490563 0.232318 0.397323 0.154366
H41   H     H_    0.085156 0.563785 0.093348 0.144441
H42   H     H_    0.093618 0.845126 0.103863 0.159355
H43   H     H_    0.225792 0.764054 0.328433 0.130267
H44   H     H_    0.816888 0.529383 0.834600 0.131764
H45   H     H_    0.787652 0.212496 0.782750 0.111047
H46   H     H_    0.344023 0.621313 0.277557 0.147156
H47   H     H_    0.322561 0.630465 0.207822 0.128988
H48   H     H_    0.148142 0.519069 0.158548 0.135836
H49   H     H_    0.058128 0.622785 0.290844 0.127982
H50   H     H_    0.035781 0.633918 0.221187 0.150123
H51   H     H_    0.192572 0.497965 0.342408 0.121702
H52   H     H_    0.230795 0.494737 0.410603 0.133580
H53   H     H_    0.262755 0.762428 0.396278 0.170611
H54   H     H_    0.576470 0.850070 0.903692 0.128472
H55   H     H_    0.547092 0.830681 0.836506 0.130536
H56   H     H_    0.554382 0.154177 0.832083 0.106019
H57   H     H_    0.563479 0.115656 0.900000 0.127614
H58   H     H_    0.557303 0.509743 0.255647 0.322875
H59   H     H_    0.808612 0.471895 0.415652 0.342458
H60   H     H_    0.149754 0.811603 0.201191 0.338298
H61   H     H_    0.625239 0.050736 0.707852 0.116687
H62   H     H_    0.637079 0.032747 0.777277 0.116628
H63   H     H_    0.521792 0.197407 0.667706 0.117283
N1    N     N_R   0.750265 0.597324 0.767655 -0.235552
N2    N     N_R   0.745860 0.594380 0.729718 -0.234017
N3    N     N_R   0.587749 0.745987 0.731074 -0.237549
N4    N     N_R   0.592284 0.749078 0.769061 -0.238743
O1    O     O_R   0.502070 0.323090 0.541280 -0.529527
O2    O     O_R   0.831550 0.656950 0.958960 -0.520430
O3    O     O_R   0.998590 0.685540 0.963930 -0.503230
O4    O     O_R   0.338340 0.520690 0.539540 -0.506756
O5    O     O_R   0.008220 0.831200 0.045060 -0.520532
O6    O     O_R   0.813270 0.997930 0.038810 -0.501202
O7    O     O_R   0.657500 0.016560 0.039940 -0.517590
O8    O     O_R   0.685680 0.820940 0.038120 -0.497055
O9    O     O_R   0.822130 0.666070 0.043610 -0.516495
O10   O     O_R   0.989860 0.694000 0.042400 -0.496319
O11   O     O_3   0.833990 0.833400 0.000560 -0.237090
O12   O     O_R   0.520720 0.641670 0.461580 -0.438942
O13   O     O_R   0.324760 0.674070 0.543580 -0.512604
O14   O     O_R   0.522400 0.640310 0.540110 -0.500603
O15   O     O_R   0.675940 0.500630 0.542210 -0.496386
O16   O     O_R   0.641790 0.337020 0.538150 -0.435383
O17   O     O_R   0.500260 0.324550 0.456580 -0.511343
O18   O     O_R   0.336660 0.522040 0.461020 -0.505888
O19   O     O_R   0.322940 0.675540 0.458880 -0.489110
O20   O     O_3   0.567700 0.547510 0.276924 -0.689298
O21   O     O_3   0.779256 0.458990 0.392336 -0.648991
O22   O     O_3   0.151385 0.822776 0.173449 -0.704136
O23   O     O_R   0.674120 0.502090 0.457500 -0.507199
O24   O     O_R   0.640110 0.338380 0.459630 -0.490079
O25   O     O_3   0.499990 0.499990 0.499990 -0.268046
O26   O     O_R   0.017640 0.822070 0.960410 -0.520931
O27   O     O_R   0.822000 0.989470 0.960340 -0.503449
O28   O     O_R   0.666920 0.007430 0.955290 -0.520368
O29   O     O_R   0.694410 0.812480 0.959650 -0.503336

loop_
_geom_bond_atom_site_label_1
_geom_bond_atom_site_label_2
_ccdc_geom_bond_type
C48   C55   A    
C70   H9    S    
C63   C65   A    
C52   O1    A    
C76   C105  S    
C22   C29   A    
C5    C114  A    
C24   C42   S    
C108  C109  A    
C54   C55   A    
C1    O4    A    
C67   C77   S    
Cr1   O1    S    
C26   C63   S    
C65   H5    S    
C91   H20   S    
C81   C82   A    
C85   C91   A    
C92   C98   A    
C81   H7    S    
C24   O27   A    
Cr5   O8    S    
C74   H11   S    
C93   C94   A    
C57   C61   A    
Cr3   O16   S    
C33   N2    A    
C57   H2    S    
C36   C37   A    
C54   H62   S    
C53   H61   S    
C18   C19   A    
C52   C61   S    
C71   H8    S    
C40   H46   S    
C20   C40   A    
C99   C104  A    
C5    C110  S    
Cr5   O11   S    
C115  C116  A    
C96   H25   S    
C99   H27   S    
C29   C33   S    
C43   H57   S    
H58   O20   S    
C39   O15   A    
C102  C105  A    
C34   C35   A    
C39   C100  S    
C97   Cl2   S    
C26   O3    A    
C2    C13   A    
C110  C111  A    
C107  C113  A    
C31   H4    S    
C103  C104  A    
C48   H45   S    
C20   H47   S    
C63   C69   A    
Cr4   O6    S    
C68   C69   A    
C88   O17   A    
C107  C108  A    
C4    H37   S    
C62   C73   A    
C68   H17   S    
C70   C71   A    
C32   C38   S    
Cr6   O10   S    
C73   C84   A    
C49   H34   S    
N3    N4    A    
C3    H36   S    
C73   H50   S    
C9    C112  A    
Cr2   O12   S    
C30   O5    A    
C7    H38   S    
Cr3   O25   S    
C94   C104  S    
C59   C60   A    
C87   H24   S    
C96   C97   A    
C70   C77   A    
C52   O16   A    
C36   C41   A    
C51   C62   A    
C2    H53   S    
C14   C30   S    
C80   C83   A    
C1    O13   A    
Cr6   O3    S    
C76   O12   A    
C103  H21   S    
C97   C98   A    
Cr3   O24   S    
Cr5   O7    S    
C101  C105  A    
C7    C12   A    
C56   H63   S    
C50   C53   A    
C112  H1    S    
C22   C31   A    
C12   C88   S    
C115  H31   S    
C26   O26   A    
N1    N2    A    
C101  Cl3   S    
C64   O19   A    
C66   C67   A    
C72   C74   A    
Cr1   O25   S    
C78   H14   S    
C25   C41   S    
C6    C11   A    
C78   C79   A    
C16   C17   A    
C21   C95   A    
C58   C59   A    
C53   C54   A    
C23   C106  A    
C9    H26   S    
C58   Cl1   S    
C56   C60   A    
C32   N1    A    
C90   Cl4   S    
C43   C44   A    
C37   C38   A    
C95   C106  A    
C79   H16   S    
C78   C82   A    
C95   H51   S    
C44   H56   S    
C27   C107  S    
C76   O23   A    
C8    C12   A    
C62   H49   S    
H59   O21   S    
C2    C23   A    
C27   O7    A    
C17   C18   A    
Cr2   O13   S    
C111  C113  A    
C111  H39   S    
C31   C100  A    
Cr1   O4    S    
C94   C96   A    
C11   C116  S    
C75   C77   A    
C10   H30   S    
C45   C55   S    
C85   C86   A    
C25   O2    A    
C16   H48   S    
C32   N4    A    
C67   C68   A    
C99   C101  A    
C100  C112  A    
C24   O28   A    
Cr2   O19   S    
C75   H13   S    
Cr1   O18   S    
C15   H41   S    
C92   H22   S    
C42   C43   A    
H60   O22   S    
C113  H29   S    
C3    C4    A    
C106  H52   S    
C21   C51   S    
C8    H40   S    
C44   C45   A    
C86   C87   A    
C59   H23   S    
C56   C57   A    
C39   O14   A    
Cr2   O25   S    
C46   C47   A    
C23   C64   S    
C69   H6    S    
C93   O20   S    
C34   C38   A    
C28   O9    A    
C14   C19   A    
C18   O22   S    
C27   O6    A    
C19   H42   S    
C86   H19   S    
C80   C81   A    
C46   H3    S    
Cr5   O28   S    
C114  C115  A    
C6    C7    A    
Cr4   O27   S    
C1    C83   S    
C40   C51   A    
C30   O10   A    
C3    C116  A    
C89   C98   S    
C109  H35   S    
C17   C84   S    
C28   O8    A    
C87   C89   A    
Cr6   O11   S    
C50   C60   S    
C71   C72   A    
Cr1   O17   S    
Cr6   O2    S    
C13   C21   A    
C79   C83   A    
C9    C29   A    
C90   C91   A    
C108  H28   S    
C22   H33   S    
C58   C61   A    
C48   C49   A    
C37   H55   S    
Cr4   O11   S    
C92   C93   A    
C88   O24   A    
Cr2   O14   S    
C25   O29   A    
C42   C47   A    
C65   C66   A    
C13   H43   S    
C102  C103  A    
C35   C41   A    
C114  H32   S    
Cr5   O29   S    
C80   H18   S    
C10   C11   A    
Cr3   O23   S    
C35   H15   S    
C33   N3    A    
Cr4   O26   S    
C45   C46   A    
C102  O21   S    
C4    C5    A    
C74   C75   A    
Cr4   O5    S    
C8    C10   A    
C49   C50   A    
Cr3   O15   S    
C47   H12   S    
C28   C85   S    
C14   C15   A    
C64   O18   A    
C66   H10   S    
C36   H54   S    
C6    Cl5   S    
C89   C90   A    
C109  C110  A    
Cr6   O9    S    
C72   C82   S    
C34   H44   S    
C15   C16   A    
C20   C84   A    
