data_mof_unit_59065.cif
_audit_creation_date              2012-12-11T15:20:19-0500
_audit_creation_method            fapswitch 2.2
_symmetry_space_group_name_H-M    P1
_symmetry_Int_Tables_number       1
_space_group_crystal_system       triclinic
_cell_length_a                    12.994727
_cell_length_b                    13.078692
_cell_length_c                    15.36734
_cell_angle_alpha                 116.351671
_cell_angle_beta                  63.967307
_cell_angle_gamma                 96.427438
_cell_volume                      2091.73673411

loop_
_atom_site_label
_atom_site_type_symbol
_atom_type_description
_atom_site_fract_x
_atom_site_fract_y
_atom_site_fract_z
_atom_type_partial_charge
C1    C     C_R   0.007632 0.834347 0.043252 -0.097893
C2    C     C_R   0.699484 0.448964 0.312106 -0.204280
C3    C     C_R   0.666870 0.456595 0.921024 -0.084784
C4    C     C_R   0.967854 0.828376 0.322343 0.112135
C5    C     C_R   0.339026 0.523466 0.958864 0.465340
C6    C     C_R   0.892083 0.211300 0.797425 0.546259
C7    C     C_R   0.199148 0.503027 0.693743 -0.208367
C8    C     C_R   0.050131 0.258093 0.091065 -0.117057
C9    C     C_R   0.973837 0.167021 0.979200 0.279555
C10   C     C_R   0.298788 0.592257 0.787953 0.392280
C11   C     C_R   0.260438 0.415887 0.047988 0.497667
C12   C     C_R   0.697403 0.414634 0.214794 0.586881
C13   C     C_R   0.991420 0.295850 0.693956 0.452371
C14   C     C_R   0.365630 0.436273 0.976058 -0.198094
C15   C     C_R   0.922135 0.209475 0.699308 -0.297272
C16   C     C_R   0.295398 0.557102 0.690714 -0.041417
C17   C     C_R   0.026726 0.150826 0.033745 -0.005531
C18   C     C_R   0.900206 0.034440 0.442967 0.341105
C19   C     C_R   0.885948 0.128445 0.538784 -0.210588
C20   C     C_R   0.914182 0.113676 0.610469 0.104004
C21   C     C_R   0.950928 0.006390 0.590984 -0.134107
C22   C     C_R   0.964282 0.913403 0.497350 -0.246211
C23   C     C_R   0.761995 0.509382 0.884460 -0.009004
C24   C     C_R   0.941870 0.927377 0.422231 0.032540
C25   C     C_R   0.549393 0.593611 0.475173 0.340708
C26   C     C_R   0.447813 0.619695 0.567579 -0.164466
C27   C     C_R   0.395537 0.531529 0.592410 0.097399
C28   C     C_R   0.442410 0.416949 0.526377 -0.191450
C29   C     C_R   0.544202 0.390195 0.434569 -0.106081
C30   C     C_R   0.597889 0.478301 0.410095 0.114219
C31   C     C_2   0.483453 0.391444 0.937335 -0.117259
C32   C     C_2   0.573977 0.437849 0.889328 -0.128387
C33   C     C_2   0.833850 0.955370 0.091558 -0.262284
C34   C     C_R   0.946668 0.720319 0.314563 -0.039840
C35   C     C_2   0.726503 0.952981 0.160670 0.388407
C36   C     C_R   0.669574 0.436377 0.000996 0.335964
C37   C     C_R   0.040814 0.819555 0.221284 -0.119021
C38   C     C_R   0.799848 0.496294 0.306763 0.297899
C39   C     C_R   0.906242 0.748418 0.949994 0.578654
C40   C     C_R   0.919835 0.854071 0.022195 0.001702
H1    H     H_    0.041544 0.900153 0.093253 0.155793
H2    H     H_    0.165099 0.479526 0.635857 0.189000
H3    H     H_    0.070091 0.281632 0.158001 0.216368
H4    H     H_    0.857520 0.212749 0.555547 0.191225
H5    H     H_    0.974987 0.995347 0.645671 0.196789
H6    H     H_    0.997685 0.831426 0.481395 0.164660
H7    H     H_    0.409413 0.707724 0.619362 0.186634
H8    H     H_    0.401080 0.349022 0.547221 0.136345
H9    H     H_    0.581113 0.301654 0.382961 0.146005
H10   H     H_    0.498498 0.336868 0.966237 0.104295
H11   H     H_    0.573194 0.479371 0.842393 0.204930
H12   H     H_    0.858517 0.036649 0.091653 0.143730
H13   H     H_    0.790543 0.525868 0.814827 0.158880
H14   H     H_    0.897220 0.698334 0.379954 0.166984
H15   H     H_    0.087696 0.886322 0.202833 0.118091
N1    N     N_R   0.037310 0.720000 0.995790 -0.071170
N2    N     N_R   0.946240 0.290860 0.848040 -0.124779
N3    N     N_R   0.146140 0.501160 0.788590 -0.067650
N4    N     N_R   0.025760 0.332690 0.063610 -0.071608
N5    N     N_R   0.962690 0.280000 0.004210 -0.100513
N6    N     N_R   0.209210 0.553840 0.847990 -0.090811
N7    N     N_R   0.175110 0.482040 0.063580 -0.115513
N8    N     N_R   0.996790 0.351810 0.788620 -0.128750
N9    N     N_R   0.790790 0.446160 0.152010 -0.114484
N10   N     N_R   0.824890 0.517960 0.936420 -0.047111
N11   N     N_R   0.003210 0.648190 0.211380 -0.044655
N12   N     N_R   0.774330 0.457010 0.995840 -0.078168
N13   N     N_R   0.053760 0.709140 0.151960 -0.052641
N14   N     N_R   0.853860 0.498840 0.211410 -0.092939
N15   N     N_R   0.974240 0.667310 0.936390 -0.093135
N16   N     N_R   0.225670 0.542990 0.004160 -0.143150
Ni1   Ni    Ni4+2 0.130310 0.630310 0.999970 0.242544
Ni2   Ni    Ni4+2 0.869690 0.369690 0.000030 0.243678
Ni3   Ni    Ni4+2 0.985640 0.509470 0.863740 0.250380
Ni4   Ni    Ni4+2 0.014360 0.490530 0.136260 0.273897
O1    O     O_3   0.806999 0.154695 0.846958 -0.613681
C41   C     C_3   0.703991 0.157463 0.837526 0.230697
H16   H     H_    0.706334 0.196891 0.785810 0.091255
H17   H     H_    0.636211 0.208668 0.919569 0.102236
C42   C     C_3   0.667466 0.036855 0.797902 -0.797265
H18   H     H_    0.661400 0.998369 0.851316 0.256728
H19   H     H_    0.581863 0.040411 0.799068 0.216914
H20   H     H_    0.730395 0.981675 0.714263 0.264202
Br1   Br    Br    0.955824 0.037056 0.866842 -0.648346
Br2   Br    Br    0.361850 0.731539 0.846206 -0.573408
O2    O     O_3   0.242090 0.365146 0.115979 -0.618456
C43   C     C_3   0.322698 0.270729 0.071465 0.264448
H21   H     H_    0.392439 0.302392 0.096913 0.169375
H22   H     H_    0.356146 0.221960 0.982086 0.084988
C44   C     C_3   0.268563 0.186649 0.118962 -0.908475
H23   H     H_    0.215444 0.131565 0.079663 0.252726
H24   H     H_    0.337171 0.129402 0.104556 0.225481
H25   H     H_    0.214668 0.233677 0.207197 0.278965
O3    O     O_3   0.025941 0.335464 0.616835 -0.627144
C45   C     C_3   0.124709 0.264309 0.525918 0.221213
H26   H     H_    0.110687 0.171918 0.495411 0.113227
H27   H     H_    0.198917 0.274782 0.546044 0.092635
C46   C     C_3   0.156340 0.296910 0.434430 -0.811267
H28   H     H_    0.172532 0.388488 0.459979 0.261212
H29   H     H_    0.235568 0.243225 0.364027 0.206385
H30   H     H_    0.085108 0.282368 0.410095 0.274118
Br3   Br    Br    0.862247 0.056581 0.344790 -0.569387
O4    O     O_3   0.624388 0.339495 0.181047 -0.605278
C47   C     C_3   0.677841 0.226595 0.125593 0.221028
H31   H     H_    0.717043 0.208935 0.169838 0.071806
H32   H     H_    0.744772 0.211641 0.044311 0.170367
C48   C     C_3   0.588538 0.142786 0.112514 -0.842957
H33   H     H_    0.546366 0.158683 0.070004 0.248561
H34   H     H_    0.630665 0.053446 0.064575 0.211581
H35   H     H_    0.522045 0.153218 0.193004 0.248089
Br4   Br    Br    0.614134 0.717389 0.439647 -0.469635
Br5   Br    Br    0.667977 0.820261 0.181928 -0.439659
Br6   Br    Br    0.537797 0.499393 0.139800 -0.469339
Br7   Br    Br    0.872905 0.497472 0.391666 -0.557463
O5    O     O_3   0.824173 0.724815 0.911248 -0.655422
C49   C     C_3   0.834818 0.789976 0.855764 0.201147
H36   H     H_    0.926690 0.797003 0.807220 0.152139
H37   H     H_    0.787751 0.876561 0.914298 0.161677
C50   C     C_3   0.781490 0.731769 0.777238 -0.807461
H38   H     H_    0.690060 0.720663 0.820643 0.264814
H39   H     H_    0.785904 0.785057 0.736289 0.239082
H40   H     H_    0.829309 0.646354 0.715132 0.261178
O6    O     O_3   0.410214 0.606586 0.943540 -0.613228
C51   C     C_3   0.391778 0.697046 0.045737 0.317480
H41   H     H_    0.388674 0.664743 0.102909 0.128219
H42   H     H_    0.309774 0.750567 0.081569 0.102463
C52   C     C_3   0.490144 0.772403 0.032742 -0.784904
H43   H     H_    0.572562 0.721120 0.999290 0.286564
H44   H     H_    0.475021 0.844290 0.112543 0.219241
H45   H     H_    0.496178 0.808730 0.977923 0.265689

loop_
_geom_bond_atom_site_label_1
_geom_bond_atom_site_label_2
_ccdc_geom_bond_type
N11   N13   A    
C43   H21   S    
C10   Br2   S    
C3    C23   A    
C19   C20   A    
C8    H3    S    
C14   C31   S    
C11   N7    A    
C2    C12   A    
C34   N11   A    
C47   H32   S    
C36   N12   A    
O6    C51   S    
C29   H9    S    
C41   H16   S    
C33   H12   S    
C26   C27   A    
C18   C24   A    
C28   C29   A    
C1    N1    A    
C8    N4    A    
C4    C24   S    
C11   C14   A    
C41   C42   S    
C11   O2    S    
O5    C49   S    
C37   N13   A    
N5    Ni2   S    
C49   H36   S    
C18   C19   A    
C18   Br3   S    
C7    H2    S    
N2    Ni2   S    
C1    C40   A    
C6    C15   A    
C45   H26   S    
N10   N12   A    
N15   Ni3   S    
N9    Ni2   S    
N2    N8    A    
N12   Ni2   S    
C7    N3    A    
N3    N6    A    
C41   H17   S    
C38   N14   A    
N4    N5    A    
C21   C22   A    
C48   H34   S    
C6    N2    A    
C3    C32   S    
C42   H20   S    
C36   Br6   S    
C47   H31   S    
C23   H13   S    
C21   H5    S    
C50   H39   S    
C15   C20   S    
C4    C34   A    
C45   C46   S    
C33   C40   S    
O1    C41   S    
C12   O4    S    
C42   H19   S    
C39   C40   A    
O2    C43   S    
N1    Ni1   S    
C25   C26   A    
N10   Ni3   S    
C52   H44   S    
C32   H11   S    
C29   C30   A    
C2    C38   A    
C44   H24   S    
C31   C32   D    
C13   N8    A    
N13   Ni1   S    
N9    N14   A    
C4    C37   A    
C5    C14   A    
C26   H7    S    
C51   C52   S    
N6    Ni1   S    
C9    C17   A    
C7    C16   A    
C22   H6    S    
C34   H14   S    
N1    N15   A    
C13   C15   A    
C48   H35   S    
C22   C24   A    
N7    Ni4   S    
C10   N6    A    
C48   H33   S    
C52   H43   S    
N4    Ni4   S    
O4    C47   S    
C19   H4    S    
N3    Ni3   S    
C44   H25   S    
C51   H42   S    
C50   H40   S    
C1    H1    S    
C25   C30   A    
C12   N9    A    
C28   H8    S    
C42   H18   S    
C50   H38   S    
C45   H27   S    
C6    O1    S    
N8    Ni3   S    
C46   H30   S    
C5    O6    S    
C39   O5    S    
C8    C17   A    
C49   C50   S    
C13   O3    S    
C2    C30   S    
C9    N5    A    
C23   N10   A    
C43   H22   S    
C52   H45   S    
N16   Ni1   S    
C5    N16   A    
C10   C16   A    
C44   H23   S    
C3    C36   A    
C16   C27   S    
C38   Br7   S    
N11   Ni4   S    
C33   C35   D    
C39   N15   A    
C49   H37   S    
N7    N16   A    
N14   Ni4   S    
O3    C45   S    
C46   H29   S    
C25   Br4   S    
C9    Br1   S    
C37   H15   S    
C20   C21   A    
C46   H28   S    
C43   C44   S    
C27   C28   A    
C31   H10   S    
C47   C48   S    
C35   Br5   S    
C51   H41   S    
