data_mof_unit_21490.cif
_audit_creation_date              2012-12-10T17:37:46-0500
_audit_creation_method            fapswitch 2.2
_symmetry_space_group_name_H-M    P1
_symmetry_Int_Tables_number       1
_space_group_crystal_system       triclinic
_cell_length_a                    12.356131
_cell_length_b                    13.033966
_cell_length_c                    17.275589
_cell_angle_alpha                 105.467463
_cell_angle_beta                  75.951618
_cell_angle_gamma                 116.386357
_cell_volume                      2377.10440154

loop_
_atom_site_label
_atom_site_type_symbol
_atom_type_description
_atom_site_fract_x
_atom_site_fract_y
_atom_site_fract_z
_atom_type_partial_charge
C1    C     C_R   0.143849 0.714769 0.507988 0.958513
C2    C     C_R   0.928902 0.573531 0.797077 -0.116714
C3    C     C_R   0.939496 0.532206 0.161622 -0.050556
C4    C     C_R   0.945275 0.541216 0.242285 -0.175927
C5    C     C_R   0.071161 0.430698 0.201810 -0.174860
C6    C     C_R   0.064220 0.420748 0.120738 -0.149946
C7    C     C_R   0.999854 0.472938 0.100741 0.210605
C8    C     C_2   0.022187 0.559395 0.985710 0.338816
C9    C     C_2   0.994533 0.464662 0.015974 -0.252810
C10   C     C_R   0.011186 0.490664 0.262886 -0.026682
C11   C     C_R   0.725837 0.951043 0.419860 0.044710
C12   C     C_R   0.987928 0.502900 0.651906 0.821229
C13   C     C_R   0.773816 0.158246 0.475961 -0.174214
C14   C     C_R   0.183718 0.921972 0.571249 0.338990
C15   C     C_R   0.269456 0.029954 0.603222 -0.211451
C16   C     C_R   0.393597 0.056458 0.582895 0.394636
C17   C     C_R   0.436189 0.985821 0.515430 -0.102733
C18   C     C_R   0.349379 0.878381 0.479800 -0.120060
C19   C     C_R   0.561901 0.015655 0.484640 0.032923
C20   C     C_R   0.600576 0.930967 0.432336 -0.013556
C21   C     C_R   0.515111 0.834738 0.387593 0.256872
C22   C     C_R   0.389169 0.810298 0.409914 0.368885
C23   C     C_R   0.855993 0.284519 0.487844 0.788941
C24   C     C_R   0.648897 0.129875 0.499304 -0.198379
C25   C     C_R   0.813904 0.067142 0.439682 -0.045527
C26   C     C_R   0.224738 0.840839 0.515801 -0.073991
C27   C     C_R   0.684758 0.717615 0.588792 -0.214274
C28   C     C_R   0.239456 0.339554 0.397408 -0.021449
C29   C     C_R   0.332578 0.299617 0.376176 -0.070914
C30   C     C_R   0.439094 0.362984 0.412417 -0.129356
C31   C     C_R   0.454655 0.467535 0.468217 -0.053541
C32   C     C_R   0.357050 0.505165 0.488036 0.142842
C33   C     C_R   0.562534 0.535258 0.506735 -0.103309
C34   C     C_R   0.011088 0.496015 0.348115 0.826781
C35   C     C_R   0.582365 0.650073 0.548448 0.068539
C36   C     C_R   0.495854 0.693913 0.554272 0.273697
C37   C     C_R   0.376444 0.613491 0.542722 -0.111278
C38   C     C_R   0.652374 0.494991 0.505900 0.072253
C39   C     C_R   0.765632 0.670974 0.589101 0.082079
C40   C     C_R   0.987670 0.510839 0.737715 -0.053318
C41   C     C_R   0.051716 0.460814 0.760451 -0.181010
C42   C     C_R   0.063462 0.478973 0.841095 -0.148186
C43   C     C_R   0.007470 0.543749 0.900824 -0.029199
C44   C     C_R   0.936641 0.589543 0.879324 -0.007158
Cu1   Cu    Cu3+1 0.900140 0.524980 0.518800 0.991142
Cu2   Cu    Cu3+1 0.099860 0.475020 0.481200 0.956498
H1    H     H_    0.094216 0.408775 0.715762 0.138719
H2    H     H_    0.110093 0.373906 0.073696 0.144115
H3    H     H_    0.618395 0.199284 0.524836 0.209945
H4    H     H_    0.239541 0.088643 0.651259 0.160297
H5    H     H_    0.845008 0.723375 0.619394 0.180356
H6    H     H_    0.897857 0.587498 0.288455 0.180824
H7    H     H_    0.701467 0.805351 0.621635 0.198626
H8    H     H_    0.647392 0.411040 0.471997 0.121991
H9    H     H_    0.157492 0.291785 0.369262 0.149875
H10   H     H_    0.510497 0.331495 0.394131 0.169372
H11   H     H_    0.121151 0.389898 0.216746 0.157735
H12   H     H_    0.967628 0.378848 0.977577 0.121797
H13   H     H_    0.887210 0.570681 0.146638 0.160398
H14   H     H_    0.877910 0.610710 0.779131 0.188969
H15   H     H_    0.116950 0.442591 0.857054 0.143343
N1    N     N_R   0.749710 0.562810 0.547300 -0.192540
N2    N     N_R   0.249640 0.437820 0.453210 -0.197910
O1    O     O_R   0.025490 0.682370 0.523640 -0.540748
O2    O     O_R   0.194150 0.640180 0.491890 -0.565778
O3    O     O_R   0.905900 0.523560 0.631310 -0.582724
O4    O     O_R   0.074570 0.481370 0.599560 -0.603067
O5    O     O_R   0.805850 0.359820 0.508110 -0.583338
O6    O     O_R   0.974510 0.317630 0.476360 -0.608618
O7    O     O_R   0.925430 0.518630 0.400440 -0.590421
O8    O     O_R   0.094100 0.476440 0.368690 -0.583231
C45   C     C_2   0.945813 0.093776 0.419544 0.463380
H16   H     H_    0.003788 0.135444 0.466840 0.059250
O9    O     O_2   0.990947 0.072047 0.349357 -0.526914
O10   O     O_3   0.558057 0.775345 0.317123 -0.751440
H17   H     H_    0.504363 0.752612 0.275800 0.354482
C46   C     C_2   0.758256 0.847614 0.397121 0.470708
H18   H     H_    0.686576 0.760697 0.397228 0.103183
O11   O     O_2   0.863442 0.856556 0.381290 -0.510336
O12   O     O_3   0.060586 0.891020 0.598629 -0.728542
H19   H     H_    0.048005 0.957833 0.636956 0.318352
O13   O     O_3   0.467655 0.144901 0.635447 -0.730087
H20   H     H_    0.528914 0.119826 0.642690 0.337803
O14   O     O_3   0.304353 0.724494 0.362375 -0.721845
H21   H     H_    0.330424 0.659462 0.339148 0.339994
O15   O     O_3   0.520954 0.808657 0.591000 -0.731313
H22   H     H_    0.456091 0.828717 0.583873 0.355442
C47   C     C_2   0.317024 0.191321 0.315787 0.390321
H23   H     H_    0.235265 0.145255 0.286828 0.124088
O16   O     O_2   0.394912 0.152080 0.297604 -0.516244
C48   C     C_2   0.294404 0.616473 0.619585 0.503758
H24   H     H_    0.264013 0.546271 0.652546 0.047387
O17   O     O_2   0.265790 0.698729 0.649242 -0.562688
C49   C     C_2   0.867656 0.650317 0.941554 0.357618
H25   H     H_    0.861722 0.652740 0.005613 0.108198
O18   O     O_2   0.815259 0.697827 0.921963 -0.520756
O19   O     O_3   0.066706 0.669222 0.033108 -0.705040
H26   H     H_    0.092412 0.727609 0.998098 0.334699

loop_
_geom_bond_atom_site_label_1
_geom_bond_atom_site_label_2
_ccdc_geom_bond_type
C39   H5    S    
C41   C42   A    
C23   O6    A    
C35   C36   A    
C18   C26   A    
C8    C43   S    
O10   H17   S    
O19   H26   S    
C46   H18   S    
C6    H2    S    
C4    H6    S    
C36   C37   A    
C3    C7    A    
C5    C6    A    
O12   H19   S    
C2    H14   S    
C11   C25   A    
C15   C16   A    
Cu1   N1    S    
C13   C23   S    
C9    H12   S    
C15   H4    S    
Cu2   O6    S    
C11   C46   S    
C33   C35   A    
C19   C20   A    
C2    C44   A    
C8    C9    D    
C29   C47   S    
C1    O2    A    
C31   C33   A    
C14   O12   S    
C34   O7    A    
C21   C22   A    
C13   C25   A    
C28   H9    S    
C46   O11   D    
C12   O4    A    
C11   C20   A    
C37   C48   S    
O14   H21   S    
Cu2   O2    S    
C45   O9    D    
C27   C39   A    
C48   H24   S    
O15   H22   S    
C16   C17   A    
C27   C35   A    
Cu1   Cu2   S    
C30   H10   S    
C13   C24   A    
C22   O14   S    
C23   O5    A    
C12   C40   S    
C8    O19   S    
C29   C30   A    
C48   O17   D    
C31   C32   A    
C38   H8    S    
C20   C21   A    
Cu1   O5    S    
C16   O13   S    
C17   C18   A    
C41   H1    S    
C10   C34   S    
C25   C45   S    
C32   C37   A    
C14   C26   A    
C49   O18   D    
C42   H15   S    
Cu2   O8    S    
C40   C41   A    
C47   O16   D    
C43   C44   A    
C1    C26   S    
C42   C43   A    
C4    C10   A    
C3    C4    A    
C1    O1    A    
C24   H3    S    
C7    C9    S    
C39   N1    A    
C28   C29   A    
Cu1   O7    S    
C18   C22   A    
C32   N2    A    
C45   H16   S    
C27   H7    S    
C6    C7    A    
C21   O10   S    
Cu1   O1    S    
C33   C38   A    
C5    H11   S    
Cu2   N2    S    
C36   O15   S    
C19   C24   A    
C5    C10   A    
C30   C31   A    
C12   O3    A    
C17   C19   A    
C49   H25   S    
C44   C49   S    
C28   N2    A    
C2    C40   A    
Cu2   O4    S    
C47   H23   S    
O13   H20   S    
Cu1   O3    S    
C14   C15   A    
C34   O8    A    
C38   N1    A    
C3    H13   S    
