data_mof_unit_39267.cif
_audit_creation_date              2012-12-11T15:41:20-0500
_audit_creation_method            fapswitch 2.2
_symmetry_space_group_name_H-M    P1
_symmetry_Int_Tables_number       1
_space_group_crystal_system       triclinic
_cell_length_a                    19.042029
_cell_length_b                    10.971777
_cell_length_c                    18.835394
_cell_angle_alpha                 89.953248
_cell_angle_beta                  90.169357
_cell_angle_gamma                 89.953848
_cell_volume                      3935.16294395

loop_
_atom_site_label
_atom_site_type_symbol
_atom_type_description
_atom_site_fract_x
_atom_site_fract_y
_atom_site_fract_z
_atom_type_partial_charge
C1    C     C_R   0.725735 0.958561 0.854823 0.547086
C2    C     C_R   0.311970 0.430661 0.033488 0.018503
C3    C     C_R   0.760787 0.862205 0.353700 0.550440
C4    C     C_2   0.497646 0.168973 0.921029 -0.109929
C5    C     C_2   0.501713 0.168554 0.078663 -0.107162
C6    C     C_2   0.998235 0.668505 0.921309 -0.106611
C7    C     C_2   0.002303 0.669017 0.078943 -0.110366
C8    C     C_2   0.491573 0.069415 0.038047 -0.160709
C9    C     C_2   0.506951 0.069388 0.961598 -0.167804
C10   C     C_2   0.993083 0.569411 0.038475 -0.168052
C11   C     C_2   0.008455 0.569384 0.962025 -0.160476
C12   C     C_R   0.759286 0.422520 0.072522 0.006367
C13   C     C_R   0.188018 0.930781 0.966498 0.018642
C14   C     C_R   0.241253 0.419542 0.926700 0.003735
C15   C     C_R   0.258759 0.919679 0.073299 0.003673
C16   C     C_R   0.740737 0.922385 0.927473 0.006423
C17   C     C_R   0.810927 0.937524 0.034679 0.008722
C18   C     C_R   0.812043 0.386302 0.957578 -0.167135
C19   C     C_R   0.188636 0.383298 0.041714 -0.167899
C20   C     C_R   0.311340 0.883014 0.958314 -0.168039
C21   C     C_R   0.687943 0.886451 0.042428 -0.166968
C22   C     C_R   0.816721 0.386261 0.030732 -0.162230
C23   C     C_R   0.183848 0.383230 0.968565 -0.166133
C24   C     C_R   0.316159 0.883154 0.031468 -0.166182
C25   C     C_R   0.274035 0.957852 0.145480 0.548659
C26   C     C_R   0.683311 0.886216 0.969280 -0.162233
C27   C     C_3   0.649826 0.557480 0.041290 -0.033946
C28   C     C_3   0.355323 0.544589 0.956384 -0.047035
C29   C     C_3   0.144679 0.044963 0.043440 -0.047079
C30   C     C_3   0.850068 0.057380 0.958573 -0.033842
C31   C     C_3   0.642982 0.547795 0.961148 -0.231362
C32   C     C_3   0.361823 0.535742 0.036703 -0.225087
C33   C     C_3   0.138160 0.035990 0.963133 -0.225237
C34   C     C_3   0.856890 0.047779 0.038726 -0.231521
C35   C     C_R   0.748011 0.411543 0.923696 0.008629
C36   C     C_R   0.225972 0.457797 0.854506 0.548393
C37   C     C_R   0.252716 0.408642 0.075489 0.005966
C38   C     C_R   0.247257 0.908503 0.924509 0.005916
C39   C     C_R   0.751950 0.911659 0.076298 0.008699
C40   C     C_R   0.478709 0.169769 0.433007 0.021978
C41   C     C_R   0.489409 0.171353 0.580186 0.019218
C42   C     C_R   0.978704 0.669769 0.433009 0.022166
C43   C     C_R   0.989407 0.671353 0.580187 0.018979
C44   C     C_R   0.472934 0.278174 0.470620 0.036247
C45   C     C_R   0.477291 0.279971 0.542847 0.022086
C46   C     C_R   0.972922 0.778174 0.470622 0.036330
C47   C     C_R   0.774271 0.458613 0.145163 0.547301
C48   C     C_R   0.977281 0.779971 0.542850 0.021986
C49   C     C_R   0.479686 0.060139 0.544877 -0.155148
C50   C     C_R   0.475292 0.059183 0.470715 -0.152707
C51   C     C_R   0.979686 0.560137 0.544878 -0.155180
C52   C     C_R   0.975292 0.559182 0.470716 -0.152704
C53   C     C_R   0.530007 0.177668 0.850861 0.555224
C54   C     C_R   0.469823 0.177621 0.149034 0.554426
C55   C     C_R   0.030158 0.677606 0.850955 0.552493
C56   C     C_R   0.969976 0.677682 0.149129 0.557227
C57   C     C_3   0.512354 0.394089 0.460882 -0.278491
C58   C     C_R   0.695019 0.445927 0.038845 0.009466
C59   C     C_3   0.517555 0.397868 0.540641 -0.269195
C60   C     C_3   0.012335 0.894099 0.460884 -0.278674
C61   C     C_3   0.017540 0.897877 0.540643 -0.268997
C62   C     C_R   0.762043 0.436649 0.429475 0.018604
C63   C     C_R   0.238851 0.432485 0.571806 0.020559
C64   C     C_R   0.262042 0.936647 0.429474 0.018686
C65   C     C_R   0.738851 0.932486 0.571806 0.020480
C66   C     C_R   0.818682 0.392668 0.468952 0.042206
C67   C     C_R   0.179574 0.417141 0.528759 0.047174
C68   C     C_R   0.318681 0.892667 0.468952 0.042037
C69   C     C_R   0.305948 0.439220 0.960166 0.057277
C70   C     C_R   0.679574 0.917143 0.528759 0.047352
C71   C     C_R   0.815979 0.384404 0.541574 0.026509
C72   C     C_R   0.184326 0.410422 0.456096 0.017148
C73   C     C_R   0.315978 0.884403 0.541573 0.026493
C74   C     C_R   0.684325 0.910424 0.456096 0.017040
C75   C     C_R   0.703279 0.483744 0.540854 -0.168380
C76   C     C_R   0.308654 0.448676 0.464952 -0.163823
C77   C     C_R   0.203278 0.983741 0.540853 -0.168367
C78   C     C_R   0.808653 0.948679 0.464952 -0.163821
C79   C     C_R   0.705781 0.489900 0.466433 -0.164926
C80   C     C_R   0.194056 0.939459 0.039812 0.057663
C81   C     C_R   0.303362 0.455693 0.538986 -0.174775
C82   C     C_R   0.205779 0.989896 0.466432 -0.164881
C83   C     C_R   0.803361 0.955695 0.538986 -0.174843
C84   C     C_3   0.858245 0.276205 0.460986 -0.278274
C85   C     C_3   0.123618 0.322277 0.532091 -0.265498
C86   C     C_3   0.358245 0.776203 0.460986 -0.277989
C87   C     C_3   0.623618 0.822279 0.532091 -0.265771
C88   C     C_3   0.856411 0.267087 0.541042 -0.269208
C89   C     C_3   0.126774 0.317867 0.451922 -0.271757
C90   C     C_3   0.356410 0.767086 0.541042 -0.269486
C91   C     C_R   0.804974 0.945823 0.961141 0.009407
C92   C     C_3   0.626773 0.817869 0.451922 -0.271388
C93   C     C_R   0.755279 0.418979 0.578290 0.017379
C94   C     C_R   0.249828 0.415987 0.423276 0.013882
C95   C     C_R   0.255278 0.918978 0.578290 0.017476
C96   C     C_R   0.749827 0.915988 0.423276 0.013759
C97   C     C_R   0.738316 0.364798 0.852361 0.545011
C98   C     C_R   0.261826 0.364295 0.147417 0.547382
C99   C     C_R   0.238158 0.864260 0.852590 0.547643
C100  C     C_R   0.761666 0.864827 0.147646 0.544795
C101  C     C_R   0.726870 0.957344 0.646452 0.544793
C102  C     C_R   0.689040 0.437529 0.965317 0.008865
C103  C     C_R   0.273620 0.959062 0.354290 0.545442
C104  C     C_R   0.226870 0.457343 0.646452 0.545005
C105  C     C_R   0.773620 0.459062 0.354290 0.545226
C106  C     C_R   0.528047 0.176754 0.646101 0.548834
C107  C     C_R   0.466180 0.176363 0.357752 0.546484
C108  C     C_R   0.028047 0.676754 0.646101 0.548427
C109  C     C_R   0.966178 0.676364 0.357753 0.546907
C110  C     C_R   0.740031 0.363384 0.646814 0.545129
C111  C     C_R   0.260788 0.362204 0.353700 0.551016
C112  C     C_R   0.240031 0.863384 0.646814 0.545687
Cr1   Cr    Cr6+3 0.769260 0.163750 0.750730 1.005583
Cr2   Cr    Cr6+3 0.385810 0.322400 0.252290 1.014445
Cr3   Cr    Cr6+3 0.114190 0.822400 0.747710 1.011679
Cr4   Cr    Cr6+3 0.885810 0.822400 0.252290 1.013783
Cr5   Cr    Cr6+3 0.230740 0.163750 0.249270 1.000446
Cr6   Cr    Cr6+3 0.269260 0.663750 0.750730 1.000155
Cr7   Cr    Cr6+3 0.730740 0.663750 0.249270 1.005813
Cr8   Cr    Cr6+3 0.612640 0.009910 0.748780 1.008214
Cr9   Cr    Cr6+3 0.387360 0.009910 0.251220 1.013305
Cr10  Cr    Cr6+3 0.112640 0.509910 0.748780 1.013029
Cr11  Cr    Cr6+3 0.887360 0.509910 0.251220 1.008499
Cr12  Cr    Cr6+3 0.614190 0.322400 0.747710 1.010944
H1    H     H_    0.470978 0.986008 0.060847 0.146031
H2    H     H_    0.488062 0.474845 0.564741 0.125453
H3    H     H_    0.063713 0.879915 0.434230 0.137859
H4    H     H_    0.988043 0.974851 0.564746 0.125843
H5    H     H_    0.658283 0.520480 0.568312 0.113850
H6    H     H_    0.359788 0.458670 0.441154 0.139634
H7    H     H_    0.158283 0.020478 0.568311 0.114072
H8    H     H_    0.859787 0.958672 0.441153 0.139553
H9    H     H_    0.662825 0.531409 0.437817 0.116525
H10   H     H_    0.349630 0.475935 0.570380 0.121153
H11   H     H_    0.162823 0.031405 0.437817 0.116436
H12   H     H_    0.527060 0.985617 0.938795 0.144054
H13   H     H_    0.849630 0.975936 0.570380 0.121216
H14   H     H_    0.911976 0.289283 0.439646 0.130669
H15   H     H_    0.073358 0.357695 0.552580 0.138228
H16   H     H_    0.411975 0.789282 0.439646 0.131001
H17   H     H_    0.573358 0.857697 0.552581 0.138078
H18   H     H_    0.826835 0.204643 0.433818 0.142077
H19   H     H_    0.142113 0.237143 0.558035 0.135115
H20   H     H_    0.326834 0.704641 0.433818 0.142310
H21   H     H_    0.642113 0.737145 0.558035 0.134851
H22   H     H_    0.824818 0.189098 0.559893 0.172982
H23   H     H_    0.973051 0.485645 0.061366 0.143993
H24   H     H_    0.144085 0.228402 0.431784 0.160894
H25   H     H_    0.324817 0.689097 0.559893 0.173041
H26   H     H_    0.644085 0.728404 0.431784 0.161003
H27   H     H_    0.909044 0.276292 0.566141 0.123651
H28   H     H_    0.078947 0.354813 0.425746 0.126812
H29   H     H_    0.409043 0.776291 0.566141 0.123159
H30   H     H_    0.578946 0.854815 0.425747 0.127230
H31   H     H_    0.524928 0.250051 0.056117 0.101301
H32   H     H_    0.474859 0.251183 0.943442 0.139621
H33   H     H_    0.025015 0.751223 0.056449 0.139332
H34   H     H_    0.029112 0.485967 0.939306 0.145990
H35   H     H_    0.974949 0.750004 0.943776 0.101295
H36   H     H_    0.858301 0.360942 0.927593 0.147038
H37   H     H_    0.142246 0.359051 0.071790 0.136098
H38   H     H_    0.357721 0.858574 0.928266 0.136014
H39   H     H_    0.641683 0.861198 0.072429 0.147049
H40   H     H_    0.867437 0.365664 0.053906 0.138641
H41   H     H_    0.132980 0.363496 0.945553 0.139028
H42   H     H_    0.367043 0.863373 0.054495 0.139082
H43   H     H_    0.632624 0.865590 0.946113 0.138653
H44   H     H_    0.168937 0.130755 0.062883 0.164465
H45   H     H_    0.979823 0.968803 0.438425 0.133787
H46   H     H_    0.821739 0.139926 0.940202 0.185919
H47   H     H_    0.678086 0.640039 0.059556 0.185625
H48   H     H_    0.331069 0.630417 0.936809 0.164746
H49   H     H_    0.589307 0.524834 0.942013 0.162854
H50   H     H_    0.414693 0.507313 0.055808 0.176067
H51   H     H_    0.085288 0.007669 0.944083 0.176048
H52   H     H_    0.910577 0.024822 0.057915 0.162743
H53   H     H_    0.668347 0.624438 0.932344 0.118254
H54   H     H_    0.339268 0.615657 0.064879 0.114091
H55   H     H_    0.160706 0.115796 0.934829 0.114095
H56   H     H_    0.072363 0.887115 0.558904 0.172546
H57   H     H_    0.831449 0.124456 0.067422 0.118308
H58   H     H_    0.481618 0.975095 0.573717 0.117655
H59   H     H_    0.471770 0.973217 0.443105 0.126185
H60   H     H_    0.981621 0.475093 0.573717 0.117886
H61   H     H_    0.971774 0.473216 0.443105 0.126115
H62   H     H_    0.560696 0.455498 0.061981 0.238564
H63   H     H_    0.594252 0.529359 0.132461 0.248699
H64   H     H_    0.409423 0.505024 0.866135 0.246491
H65   H     H_    0.455149 0.584860 0.926257 0.225308
H66   H     H_    0.090553 0.006224 0.133803 0.246400
H67   H     H_    0.479849 0.468798 0.438420 0.134162
H68   H     H_    0.044746 0.085313 0.073269 0.225297
H69   H     H_    0.939353 0.955476 0.938117 0.238481
H70   H     H_    0.905693 0.029019 0.867465 0.248789
H71   H     H_    0.572375 0.387098 0.558906 0.172557
H72   H     H_    0.563731 0.379895 0.434231 0.137840
N1    N     N_3   0.583268 0.537743 0.078262 -0.640384
N2    N     N_3   0.420413 0.511787 0.920406 -0.636207
N3    N     N_3   0.079606 0.012384 0.079491 -0.636000
N4    N     N_3   0.916658 0.037619 0.921649 -0.640372
O1    O     O_R   0.784290 0.290360 0.830540 -0.530679
O2    O     O_R   0.456020 0.282110 0.333230 -0.521186
O3    O     O_R   0.043980 0.782110 0.666770 -0.527691
O4    O     O_R   0.956020 0.782110 0.333230 -0.521531
O5    O     O_R   0.679070 0.374030 0.674430 -0.510397
O6    O     O_R   0.320930 0.374030 0.325570 -0.509884
O7    O     O_R   0.179070 0.874030 0.674430 -0.509582
O8    O     O_R   0.820930 0.874030 0.325570 -0.510712
O9    O     O_3   0.665360 0.165350 0.749070 -0.244558
O10   O     O_3   0.334640 0.165350 0.250930 -0.246435
O11   O     O_3   0.165360 0.665350 0.749070 -0.244049
O12   O     O_R   0.215710 0.290360 0.169460 -0.534052
O13   O     O_3   0.834640 0.665350 0.250930 -0.246944
O14   O     O_R   0.762610 0.041070 0.825230 -0.506742
O15   O     O_R   0.237390 0.041070 0.174770 -0.507357
O16   O     O_R   0.262610 0.541070 0.825230 -0.507427
O17   O     O_R   0.737390 0.541070 0.174770 -0.506693
O18   O     O_R   0.667390 0.924160 0.829970 -0.529130
O19   O     O_R   0.332610 0.924160 0.170030 -0.527043
O20   O     O_R   0.167390 0.424160 0.829970 -0.527052
O21   O     O_R   0.832610 0.424160 0.170030 -0.529117
O22   O     O_R   0.553980 0.081420 0.821780 -0.501612
O23   O     O_R   0.284290 0.790360 0.830540 -0.534130
O24   O     O_R   0.446020 0.081420 0.178220 -0.497554
O25   O     O_R   0.053980 0.581420 0.821780 -0.499111
O26   O     O_R   0.946020 0.581420 0.178220 -0.500078
O27   O     O_R   0.543210 0.283170 0.826740 -0.509664
O28   O     O_R   0.456790 0.283170 0.173260 -0.517510
O29   O     O_R   0.043210 0.783170 0.826740 -0.518253
O30   O     O_R   0.956790 0.783170 0.173260 -0.508821
O31   O     O_R   0.678350 0.375000 0.822720 -0.496107
O32   O     O_R   0.321650 0.375000 0.177280 -0.496203
O33   O     O_R   0.178350 0.875000 0.822720 -0.495731
O34   O     O_R   0.715710 0.790360 0.169460 -0.530627
O35   O     O_R   0.821650 0.875000 0.177280 -0.496572
O36   O     O_R   0.785060 0.289300 0.670580 -0.522699
O37   O     O_R   0.214940 0.289300 0.329420 -0.523213
O38   O     O_R   0.285060 0.789300 0.670580 -0.523443
O39   O     O_R   0.714940 0.789300 0.329420 -0.522488
O40   O     O_R   0.763330 0.040090 0.676940 -0.509348
O41   O     O_R   0.236670 0.040090 0.323060 -0.508034
O42   O     O_R   0.263330 0.540090 0.676940 -0.509699
O43   O     O_R   0.736670 0.540090 0.323060 -0.507703
O44   O     O_R   0.668160 0.923110 0.670000 -0.516965
O45   O     O_R   0.554690 0.080440 0.673480 -0.505935
O46   O     O_R   0.331840 0.923110 0.330000 -0.517675
O47   O     O_R   0.168160 0.423110 0.670000 -0.516528
O48   O     O_R   0.831840 0.423110 0.330000 -0.518104
O49   O     O_R   0.445310 0.080440 0.326520 -0.509102
O50   O     O_R   0.054690 0.580440 0.673480 -0.505692
O51   O     O_R   0.945310 0.580440 0.326520 -0.509351
O52   O     O_R   0.543980 0.282110 0.666770 -0.528062

loop_
_geom_bond_atom_site_label_1
_geom_bond_atom_site_label_2
_ccdc_geom_bond_type
H65   N2    S    
C7    C10   D    
C30   N4    S    
C21   C26   A    
C19   H37   S    
C21   H39   S    
Cr3   O7    S    
C4    C53   S    
C64   C103  S    
C68   C86   S    
C55   O29   A    
C19   C23   A    
C50   H59   S    
C17   C91   A    
C15   C80   A    
C65   C101  S    
C6    C55   S    
C35   C102  A    
C32   H54   S    
C85   H19   S    
C6    H35   S    
C48   C61   S    
C86   H20   S    
C81   H10   S    
C105  O48   A    
Cr11  O26   S    
Cr2   O10   S    
C59   H2    S    
Cr11  O51   S    
Cr11  O21   S    
C111  O37   A    
Cr10  O20   S    
C31   H53   S    
C60   H45   S    
C7    C56   S    
C29   H44   S    
Cr5   O10   S    
C42   C109  S    
C85   C89   S    
C73   C90   S    
C57   H67   S    
C108  O3    A    
C95   C112  S    
C90   H25   S    
C14   C36   S    
Cr11  O48   S    
C99   O33   A    
C38   C99   S    
C57   C59   S    
C33   H55   S    
Cr12  O9    S    
C106  O52   A    
C65   C70   A    
C12   C22   A    
C94   C111  S    
C22   H40   S    
C34   H57   S    
C2    C32   S    
C67   C72   A    
Cr8   O44   S    
H68   N3    S    
C74   C92   S    
C82   H11   S    
Cr5   O15   S    
C101  O44   A    
C17   C39   A    
C30   H46   S    
C78   H8    S    
C19   C37   A    
C76   C94   A    
C23   H41   S    
C76   H6    S    
C78   C83   A    
C28   H48   S    
C89   H28   S    
H70   N4    S    
C20   C24   A    
C29   C33   S    
C78   C96   A    
C8    C9    S    
C29   N3    S    
Cr3   O3    S    
C70   C74   A    
Cr2   O2    S    
H62   N1    S    
C3    C96   S    
C54   O28   A    
Cr1   O1    S    
C66   C84   S    
C61   H4    S    
C2    C69   A    
C18   C35   A    
C85   H15   S    
C86   H16   S    
C93   C110  S    
C12   C58   A    
C27   N1    S    
Cr6   O38   S    
C17   C34   S    
C47   O21   A    
C13   C80   A    
Cr5   O37   S    
C87   C92   S    
C101  O40   A    
Cr9   O19   S    
C36   O20   A    
Cr1   O14   S    
C12   C47   S    
C70   C87   S    
Cr2   O32   S    
C41   C49   A    
C37   C98   S    
Cr4   O4    S    
C110  O36   A    
H66   N3    S    
C99   O23   A    
Cr5   O12   S    
C16   C26   A    
C79   H9    S    
C46   C48   A    
C26   H43   S    
C67   C85   S    
C103  O46   A    
Cr3   O29   S    
C41   C106  S    
C30   C34   S    
C57   H72   S    
C27   C31   S    
C51   C52   A    
C31   C102  S    
C74   C96   A    
C62   C79   A    
C28   C32   S    
C62   C66   A    
C34   H52   S    
C107  O2    A    
C51   H60   S    
C86   C90   S    
C6    C11   D    
C62   C105  S    
C107  O49   A    
Cr4   O13   S    
C59   H71   S    
C68   C73   A    
C5    H31   S    
Cr10  O25   S    
C32   H50   S    
C77   C95   A    
C28   N2    S    
Cr2   O6    S    
C108  O50   A    
Cr6   O11   S    
C65   C83   A    
C14   C23   A    
C24   H42   S    
C63   C67   A    
C13   C33   S    
Cr10  O50   S    
C20   C38   A    
C5    C54   S    
Cr7   O34   S    
Cr9   O49   S    
C66   C71   A    
C21   C39   A    
C84   H18   S    
C44   C57   S    
C63   C104  S    
C104  O47   A    
C20   H38   S    
C49   H58   S    
Cr2   O28   S    
C56   O30   A    
C40   C50   A    
C1    C16   S    
Cr4   O8    S    
Cr9   O10   S    
C87   H17   S    
C90   H29   S    
H63   N1    S    
C111  O6    A    
C64   C82   A    
C13   C38   A    
C1    O18   A    
C72   C94   A    
C61   H56   S    
C40   C107  S    
C98   O32   A    
C109  O4    A    
Cr8   O18   S    
C15   C24   A    
C4    H32   S    
C63   C81   A    
Cr7   O13   S    
C112  O38   A    
Cr11  O13   S    
C42   C46   A    
C25   O15   A    
C25   O19   A    
Cr12  O5    S    
C75   C79   A    
Cr8   O45   S    
C3    O8    A    
Cr1   O36   S    
C64   C68   A    
C83   H13   S    
Cr12  O27   S    
C14   C69   A    
C44   C45   A    
C75   C93   A    
C109  O51   A    
C43   C48   A    
Cr8   O9    S    
C72   C89   S    
C54   O24   A    
C45   C59   S    
Cr8   O22   S    
C15   C25   S    
C87   H21   S    
C46   C60   S    
Cr6   O23   S    
C18   C22   A    
C60   H3    S    
C77   H7    S    
C84   C88   S    
C112  O7    A    
C97   O1    A    
C30   C91   S    
Cr1   O40   S    
C27   C58   S    
C76   C81   A    
C5    C8    D    
C92   H30   S    
C71   C93   A    
C28   C69   S    
C56   O26   A    
H69   N4    S    
C100  O34   A    
Cr4   O30   S    
C10   H23   S    
Cr3   O11   S    
C89   H24   S    
C55   O25   A    
C49   C50   A    
C53   O22   A    
Cr1   O9    S    
Cr12  O52   S    
C41   C45   A    
C36   O16   A    
C88   H27   S    
C92   H26   S    
Cr3   O33   S    
C2    C37   A    
Cr7   O39   S    
C39   C100  S    
C97   O31   A    
C29   C80   S    
C98   O12   A    
C77   C82   A    
C43   C51   A    
C104  O42   A    
C58   C102  A    
Cr4   O35   S    
C103  O41   A    
Cr9   O24   S    
C110  O5    A    
C43   C108  S    
C106  O45   A    
C33   H51   S    
C47   O17   A    
Cr12  O31   S    
C18   H36   S    
C10   C11   S    
C84   H14   S    
C71   C88   S    
C9    H12   S    
C75   H5    S    
C8    H1    S    
C40   C44   A    
C16   C91   A    
C31   H49   S    
C7    H33   S    
C52   H61   S    
C3    O39   A    
C1    O14   A    
Cr7   O17   S    
C73   C95   A    
Cr10  O11   S    
C60   C61   S    
C100  O35   A    
Cr6   O16   S    
C88   H22   S    
C4    C9    D    
C35   C97   S    
C27   H47   S    
Cr7   O43   S    
C105  O43   A    
C53   O27   A    
Cr6   O42   S    
C11   H34   S    
C42   C52   A    
Cr9   O46   S    
H64   N2    S    
Cr10  O47   S    
Cr5   O41   S    
