data_mof_unit_42845.cif
_audit_creation_date              2012-12-11T14:13:25-0500
_audit_creation_method            fapswitch 2.2
_symmetry_space_group_name_H-M    P1
_symmetry_Int_Tables_number       1
_space_group_crystal_system       triclinic
_cell_length_a                    11.597576
_cell_length_b                    18.613075
_cell_length_c                    10.012845
_cell_angle_alpha                 88.752067
_cell_angle_beta                  110.393107
_cell_angle_gamma                 90.707437
_cell_volume                      2025.46120093

loop_
_atom_site_label
_atom_site_type_symbol
_atom_type_description
_atom_site_fract_x
_atom_site_fract_y
_atom_site_fract_z
_atom_type_partial_charge
C1    C     C_R   0.075782 0.645115 0.142033 0.559309
C2    C     C_2   0.586716 0.078118 0.084004 -0.109241
C3    C     C_2   0.596942 0.424701 0.074938 -0.122139
C4    C     C_2   0.403058 0.575299 0.925062 -0.122139
C5    C     C_2   0.477569 0.966357 0.017653 -0.160255
C6    C     C_2   0.522428 0.033643 0.982347 -0.160255
C7    C     C_2   0.504322 0.462269 0.987049 -0.155940
C8    C     C_2   0.495677 0.537731 0.012951 -0.155940
C9    C     C_2   0.998730 0.917629 0.101399 -0.129969
C10   C     C_2   0.001269 0.082370 0.898600 -0.129970
C11   C     C_2   0.984480 0.424671 0.882726 -0.110518
C12   C     C_R   0.924218 0.354885 0.857967 0.559308
C13   C     C_2   0.015520 0.575329 0.117274 -0.110518
C14   C     C_2   0.027130 0.964579 0.014034 -0.167470
C15   C     C_2   0.972868 0.035420 0.985964 -0.167470
C16   C     C_2   0.977761 0.463351 0.990771 -0.154114
C17   C     C_2   0.022238 0.536649 0.009228 -0.154114
C18   C     C_R   0.470781 0.647177 0.444704 0.543805
C19   C     C_R   0.529219 0.352822 0.555296 0.543805
C20   C     C_R   0.560791 0.137441 0.625287 0.543229
C21   C     C_R   0.439209 0.862559 0.374712 0.543229
C22   C     C_R   0.376046 0.645368 0.964607 0.555453
C23   C     C_R   0.932115 0.148905 0.862789 0.528171
C24   C     C_R   0.623954 0.354632 0.035393 0.555453
C25   C     C_R   0.622746 0.145883 0.037923 0.546095
C26   C     C_R   0.377254 0.854117 0.962077 0.546095
C27   C     C_R   0.500480 0.424850 0.486704 -0.033727
C28   C     C_R   0.499520 0.575150 0.513296 -0.033727
C29   C     C_R   0.466685 0.938795 0.415455 -0.034755
C30   C     C_R   0.533315 0.061205 0.584544 -0.034755
C31   C     C_R   0.285110 0.421076 0.477510 -0.043396
C32   C     C_R   0.714889 0.578924 0.522490 -0.043396
C33   C     C_R   0.680957 0.940380 0.406416 -0.051641
C34   C     C_R   0.067885 0.851094 0.137211 0.528173
C35   C     C_R   0.319042 0.059620 0.593581 -0.051641
C36   C     C_R   0.191871 0.451213 0.517943 0.152516
C37   C     C_R   0.808129 0.548786 0.482057 0.152516
C38   C     C_R   0.805984 0.952600 0.481734 0.142103
C39   C     C_R   0.194015 0.047401 0.518262 0.142104
C40   C     C_R   0.206491 0.521808 0.565470 -0.132886
C41   C     C_R   0.793509 0.478192 0.434530 -0.132886
C42   C     C_R   0.838378 0.996101 0.600721 -0.098028
C43   C     C_R   0.161621 0.003901 0.399273 -0.098028
C44   C     C_R   0.307514 0.562727 0.565633 -0.109040
C45   C     C_R   0.394755 0.459561 0.493226 -0.012652
C46   C     C_R   0.692486 0.437273 0.434367 -0.109039
C47   C     C_R   0.747439 0.030737 0.635955 -0.095921
C48   C     C_R   0.252561 0.969263 0.364042 -0.095921
C49   C     C_R   0.400682 0.533154 0.523993 0.005999
C50   C     C_R   0.599317 0.466846 0.476007 0.005999
C51   C     C_R   0.623279 0.020870 0.557069 -0.013275
C52   C     C_R   0.376720 0.979130 0.442929 -0.013274
C53   C     C_3   0.082836 0.334649 0.507241 -0.309288
C54   C     C_3   0.917165 0.665351 0.492763 -0.309287
C55   C     C_3   0.886608 0.842273 0.423871 -0.305165
C56   C     C_R   0.605245 0.540439 0.506774 -0.012652
C57   C     C_3   0.113401 0.157725 0.576155 -0.305168
C58   C     C_R   0.589192 0.966383 0.456763 -0.009815
C59   C     C_R   0.410808 0.033617 0.543235 -0.009814
C60   C     C_2   0.413284 0.921882 0.915996 -0.109240
Cr1   Cr    Cr6+3 0.187610 0.750000 0.979860 1.006378
Cr2   Cr    Cr6+3 0.812390 0.250000 0.020140 1.006381
Cr3   Cr    Cr6+3 0.245810 0.750000 0.341640 1.005930
Cr4   Cr    Cr6+3 0.754190 0.250000 0.658360 1.005930
Cr5   Cr    Cr6+3 0.485760 0.750000 0.219910 0.991153
Cr6   Cr    Cr6+3 0.514240 0.250000 0.780090 0.991152
H1    H     H_    0.140577 0.545203 0.605662 0.134305
H2    H     H_    0.684455 0.383596 0.392601 0.140368
H3    H     H_    0.770480 0.060812 0.731397 0.131655
H4    H     H_    0.229520 0.939188 0.268599 0.131653
H5    H     H_    0.504672 0.046768 0.870955 0.133870
H6    H     H_    0.495325 0.953233 0.129045 0.133869
H7    H     H_    0.561419 0.561503 0.107895 0.167167
H8    H     H_    0.438580 0.438497 0.892105 0.167167
H9    H     H_    0.615018 0.063678 0.196559 0.109908
H10   H     H_    0.384983 0.936322 0.803442 0.109908
H11   H     H_    0.334605 0.549181 0.836826 0.104789
H12   H     H_    0.859423 0.454797 0.394338 0.134305
H13   H     H_    0.665395 0.450819 0.163174 0.104789
H14   H     H_    0.904227 0.048346 0.033084 0.163966
H15   H     H_    0.095770 0.951654 0.966914 0.163967
H16   H     H_    0.065155 0.558226 0.935911 0.168197
H17   H     H_    0.934845 0.441774 0.064089 0.168197
H18   H     H_    0.065549 0.069101 0.845880 0.117079
H19   H     H_    0.934450 0.930898 0.154120 0.117082
H20   H     H_    0.977715 0.552409 0.193905 0.094642
H21   H     H_    0.022285 0.447591 0.806095 0.094642
H22   H     H_    0.042576 0.431085 0.583111 0.252827
H23   H     H_    0.933817 0.002593 0.665446 0.123977
H24   H     H_    0.995182 0.313419 0.514309 0.152913
H25   H     H_    0.160702 0.311479 0.596811 0.143921
H26   H     H_    0.087169 0.318188 0.403213 0.143709
H27   H     H_    0.957423 0.568915 0.416888 0.252827
H28   H     H_    0.004819 0.686581 0.485695 0.152912
H29   H     H_    0.912833 0.681811 0.596792 0.143708
H30   H     H_    0.839298 0.688522 0.403195 0.143921
H31   H     H_    0.987550 0.933836 0.503302 0.255862
H32   H     H_    0.970193 0.820631 0.409899 0.164672
H33   H     H_    0.806863 0.829068 0.327434 0.146714
H34   H     H_    0.066183 0.997409 0.334547 0.123971
H35   H     H_    0.875781 0.815969 0.519535 0.144767
H36   H     H_    0.012447 0.066172 0.496682 0.255861
H37   H     H_    0.029809 0.179370 0.590104 0.164669
H38   H     H_    0.124261 0.184037 0.480517 0.144773
H39   H     H_    0.193131 0.170918 0.672615 0.146711
H40   H     H_    0.275472 0.366827 0.438512 0.124137
H41   H     H_    0.724528 0.633172 0.561489 0.124137
H42   H     H_    0.657341 0.910052 0.309980 0.144288
H43   H     H_    0.342658 0.089948 0.690018 0.144286
H44   H     H_    0.315545 0.616403 0.607398 0.140368
N1    N     N_2   0.084534 0.412054 0.515695 -0.534081
N2    N     N_2   0.915466 0.587946 0.484305 -0.534080
N3    N     N_2   0.899124 0.919157 0.442377 -0.539029
N4    N     N_2   0.100874 0.080844 0.557617 -0.539031
O1    O     O_R   0.267710 0.668200 0.902110 -0.526672
O2    O     O_R   0.883280 0.330790 0.732340 -0.521035
O3    O     O_R   0.883280 0.169210 0.732340 -0.537572
O4    O     O_R   0.116720 0.830790 0.267660 -0.537571
O5    O     O_R   0.366710 0.675440 0.427590 -0.495278
O6    O     O_R   0.633290 0.324560 0.572410 -0.495278
O7    O     O_R   0.633290 0.175440 0.572410 -0.481653
O8    O     O_R   0.366710 0.824560 0.427590 -0.481653
O9    O     O_R   0.534870 0.669390 0.371760 -0.518905
O10   O     O_R   0.465130 0.330610 0.628240 -0.518906
O11   O     O_R   0.465130 0.169390 0.628240 -0.535083
O12   O     O_R   0.732290 0.331800 0.097890 -0.526672
O13   O     O_R   0.534870 0.830610 0.371760 -0.535083
O14   O     O_R   0.453080 0.674480 0.075160 -0.496092
O15   O     O_R   0.546920 0.325520 0.924840 -0.496092
O16   O     O_R   0.546920 0.174480 0.924840 -0.523167
O17   O     O_R   0.453080 0.825520 0.075160 -0.523166
O18   O     O_3   0.306390 0.750000 0.180470 -0.263285
O19   O     O_3   0.693610 0.250000 0.819530 -0.263285
O20   O     O_R   0.732290 0.168200 0.097890 -0.514679
O21   O     O_R   0.267710 0.831800 0.902110 -0.514678
O22   O     O_R   0.099480 0.674460 0.038850 -0.499813
O23   O     O_R   0.900520 0.325540 0.961150 -0.499813
O24   O     O_R   0.900520 0.174460 0.961150 -0.498292
O25   O     O_R   0.099480 0.825540 0.038850 -0.498293
O26   O     O_R   0.116720 0.669210 0.267660 -0.521034

loop_
_geom_bond_atom_site_label_1
_geom_bond_atom_site_label_2
_ccdc_geom_bond_type
C44   C49   A    
C34   O4    A    
C57   H39   S    
C30   C51   A    
C33   C58   A    
Cr4   O2    S    
Cr3   O26   S    
C23   O24   A    
C4    C8    D    
C3    H13   S    
Cr5   O18   S    
C28   C56   A    
C7    C8    S    
C20   C30   S    
Cr5   O13   S    
Cr2   O19   S    
C38   C42   A    
C5    H6    S    
C3    C7    D    
C10   C15   D    
C5    C6    S    
Cr4   O7    S    
C34   O25   A    
Cr3   O5    S    
C35   C59   A    
C17   H16   S    
C11   C16   D    
C21   O8    A    
C4    H11   S    
C47   H3    S    
C37   N2    S    
C26   O21   A    
Cr1   O18   S    
C9    H19   S    
H22   N1    S    
C24   O15   A    
C11   H21   S    
C16   C17   S    
C40   H1    S    
C13   H20   S    
Cr1   O1    S    
C41   C46   A    
C21   O13   A    
C1    O22   A    
C19   C27   S    
C43   C48   A    
C54   H30   S    
C35   H43   S    
C27   C50   A    
C18   O9    A    
Cr6   O15   S    
C53   N1    S    
C24   O12   A    
C3    C24   S    
C2    C6    D    
C33   H42   S    
C36   N1    S    
C25   O16   A    
Cr5   O17   S    
C7    H8    S    
C6    H5    S    
C57   H37   S    
C19   O10   A    
Cr5   O14   S    
C36   C40   A    
C18   C28   S    
C43   H34   S    
C41   H12   S    
Cr2   O12   S    
C38   N3    S    
Cr1   O25   S    
C39   C43   A    
C55   N3    S    
Cr3   O18   S    
C21   C29   S    
C32   H41   S    
C16   H17   S    
C50   C56   A    
Cr4   O3    S    
C35   C39   A    
C9    C14   D    
C46   H2    S    
H36   N4    S    
C52   C59   A    
Cr6   O19   S    
C4    C22   S    
C28   C49   A    
C22   O14   A    
C15   H14   S    
C14   C15   S    
C45   C49   A    
C39   N4    S    
C30   C59   A    
C53   H26   S    
C20   O7    A    
C54   N2    S    
C51   C58   A    
C32   C37   A    
Cr2   O24   S    
C25   O20   A    
C54   H29   S    
C1    O26   A    
C53   H25   S    
C22   O1    A    
C19   O6    A    
C9    C34   S    
C31   H40   S    
Cr6   O10   S    
C1    C13   S    
H31   N3    S    
Cr3   O8    S    
Cr1   O21   S    
Cr3   O4    S    
C57   H38   S    
C46   C50   A    
Cr4   O19   S    
C5    C60   D    
C12   O23   A    
C48   H4    S    
C23   O3    A    
C47   C51   A    
C11   C12   S    
C57   N4    S    
C10   C23   S    
C55   H35   S    
C33   C38   A    
Cr4   O6    S    
Cr6   O11   S    
C13   C17   D    
C42   H23   S    
Cr2   O20   S    
C20   O11   A    
C27   C45   A    
C55   H32   S    
C10   H18   S    
C8    H7    S    
C60   H10   S    
C2    C25   S    
C42   C47   A    
Cr5   O9    S    
Cr2   O23   S    
C37   C41   A    
C54   H28   S    
C2    H9    S    
H27   N2    S    
C40   C44   A    
C29   C58   A    
C31   C45   A    
C55   H33   S    
C53   H24   S    
C31   C36   A    
C14   H15   S    
Cr6   O16   S    
C48   C52   A    
C26   C60   S    
C18   O5    A    
C32   C56   A    
C26   O17   A    
Cr1   O22   S    
C12   O2    A    
C29   C52   A    
C44   H44   S    
