data_mof_unit_67473.cif
_audit_creation_date              2013-03-05T15:40:59-0500
_audit_creation_method            fapswitch 2.2
_symmetry_space_group_name_H-M    P1
_symmetry_Int_Tables_number       1
_space_group_crystal_system       triclinic
_cell_length_a                    11.000761
_cell_length_b                    8.822792
_cell_length_c                    7.848148
_cell_angle_alpha                 104.038693
_cell_angle_beta                  95.099381
_cell_angle_gamma                 93.250836
_cell_volume                      733.626740796

loop_
_atom_site_label
_atom_site_type_symbol
_atom_site_description
_atom_site_fract_x
_atom_site_fract_y
_atom_site_fract_z
_atom_type_partial_charge
O1    O     O_R   0.509140 0.286130 0.619770 -0.574793
O2    O     O_R   0.485380 0.256770 0.308360 -0.529627
C1    C     C_R   0.496033 0.201639 0.453852 0.838168
O3    O     O_R   0.329570 0.514650 0.655700 -0.529805
O4    O     O_R   0.305810 0.485300 0.344290 -0.519827
C2    C     C_R   0.260389 0.493506 0.500727 0.946755
Cu1   Cu    Cu3+1 0.514070 0.517380 0.684380 1.246988
Cu2   Cu    Cu3+1 0.485930 0.482620 0.315620 1.239081
O5    O     O_R   0.514620 0.743230 0.691640 -0.501886
O6    O     O_R   0.490860 0.713870 0.380230 -0.551187
O7    O     O_R   0.694190 0.514700 0.655710 -0.510208
O8    O     O_R   0.670430 0.485350 0.344300 -0.507601
C3    C     C_R   0.503220 0.798216 0.546001 0.812439
C4    C     C_R   0.735556 0.481421 0.498120 0.934751
C5    C     C_3   0.075306 0.375760 0.639415 0.279444
C6    C     C_3   0.924873 0.338572 0.602183 0.255175
C7    C     C_3   0.073816 0.656514 0.574316 0.466304
C8    C     C_3   0.053180 0.382353 0.311845 0.277419
C9    C     C_3   0.119565 0.477667 0.504227 -0.523958
C10   C     C_3   0.872877 0.472433 0.505152 -0.521220
C11   C     C_3   0.930781 0.648567 0.595592 0.508544
C12   C     C_3   0.912473 0.421219 0.307160 0.449168
C13   C     C_2   0.481613 0.032957 0.431042 0.124169
C14   C     C_2   0.514255 0.966578 0.568192 0.172616
N1    N     N_2   0.464720 0.456420 0.038520 -0.115897
H1    H     H_    0.411899 0.365607 0.951385 0.264171
N2    N     N_2   0.535280 0.543580 0.961480 0.107053
N3    N     N_R   0.108970 0.474353 0.817099 0.176028
O9    O     O_R   0.028766 0.546451 0.906920 -0.197639
O10   O     O_R   0.221719 0.498669 0.887992 -0.227205
Cl1   Cl    Cl    0.889718 0.572631 0.195025 -0.252173
Cl2   Cl    Cl    0.111144 0.793932 0.449185 -0.255220
Cl3   Cl    Cl    0.848470 0.793035 0.513582 -0.293794
N4    N     N_R   0.421830 0.942889 0.262898 0.153019
O11   O     O_R   0.460080 0.962297 0.116839 -0.201216
O12   O     O_R   0.316013 0.866939 0.255233 -0.183125
Cl4   Cl    Cl    0.591089 0.070347 0.776584 -0.338165
Cl5   Cl    Cl    0.630180 0.696698 0.093733 -0.181735
N5    N     N_R   0.139448 0.230694 0.638710 0.203774
O13   O     O_R   0.256293 0.230300 0.626038 -0.334438
O14   O     O_R   0.097792 0.133246 0.724188 -0.136555
N6    N     N_R   0.881302 0.183906 0.481630 0.159046
O15   O     O_R   0.949381 0.067322 0.453663 -0.135477
O16   O     O_R   0.763612 0.147388 0.454592 -0.309538
N7    N     N_R   0.876631 0.322684 0.768652 0.209262
O17   O     O_R   0.809424 0.420376 0.858807 -0.192652
O18   O     O_R   0.889747 0.193156 0.817203 -0.132482
Cl6   Cl    Cl    0.162615 0.773299 0.772931 -0.261442
Cl7   Cl    Cl    0.889028 0.738169 0.813269 -0.188538
N8    N     N_R   0.107953 0.427068 0.167164 0.206488
O19   O     O_R   0.144832 0.572072 0.180801 -0.168265
O20   O     O_R   0.154077 0.318563 0.052544 -0.205459
N9    N     N_R   0.072117 0.211237 0.279809 0.166597
O21   O     O_R   0.004790 0.109830 0.153537 -0.093202
O22   O     O_R   0.183502 0.172997 0.305537 -0.249129
Cl8   Cl    Cl    0.808133 0.267881 0.162167 -0.273004

loop_
_geom_bond_atom_site_label_1
_geom_bond_atom_site_label_2
_geom_bond_distance
_ccdc_geom_bond_type
C6    N7    1.487218 S    
O4    Cu2   2.014783 S    
Cu1   O7    2.014783 S    
C13   C14   1.375315 D    
Cu2   N1    2.120632 S    
C6    N6    1.485198 S    
N1    N2    1.341914 D    
C8    C12   1.603462 S    
C1    C13   1.452927 S    
C7    Cl6   1.811518 S    
C6    C10   1.654517 S    
Cu2   O8    2.020221 S    
C13   N4    1.443292 S    
C11   Cl7   1.811042 S    
C14   Cl4   1.779744 S    
Cu1   Cu2   2.822227 S    
N5    O14   1.299619 A    
O1    Cu1   1.975704 S    
N7    O17   1.288227 A    
C5    C9    1.635877 S    
C2    C9    1.550835 S    
C5    N5    1.495233 S    
C5    N3    1.456564 S    
N6    O16   1.302191 A    
O3    Cu1   2.020222 S    
N3    O10   1.297396 A    
N3    O9    1.279325 A    
C7    C9    1.662501 S    
C10   C12   1.615681 S    
O2    C1    1.343976 A    
N4    O12   1.298934 A    
N9    O22   1.300751 A    
O4    C2    1.353620 A    
O7    C4    1.327387 A    
C7    C11   1.596417 S    
N8    O20   1.304435 A    
C11   Cl3   1.812210 S    
C12   Cl1   1.786291 S    
N2    Cl5   1.720280 S    
C5    C6    1.654571 S    
C4    C10   1.514016 S    
Cu1   N2    2.120632 S    
C10   C11   1.611423 S    
C8    N8    1.456019 S    
O3    C2    1.342585 A    
N4    O11   1.301213 A    
N6    O15   1.293879 A    
N7    O18   1.300842 A    
N5    O13   1.298140 A    
Cu1   O5    1.979226 S    
C7    Cl2   1.787690 S    
O5    C3    1.344603 A    
C8    C9    1.624333 S    
C12   Cl8   1.813133 S    
C8    N9    1.498894 S    
N8    O19   1.296046 A    
N1    H1    1.028588 S    
N9    O21   1.302049 A    
Cu2   O6    1.975704 S    
O2    Cu2   1.979227 S    
C3    C14   1.449773 S    
O8    C4    1.356910 A    
O1    C1    1.324979 A    
O6    C3    1.323717 A    
