data_mof_unit_40022.cif
_audit_creation_date              2012-12-10T18:09:09-0500
_audit_creation_method            fapswitch 2.2
_symmetry_space_group_name_H-M    P1
_symmetry_Int_Tables_number       1
_space_group_crystal_system       triclinic
_cell_length_a                    12.639141
_cell_length_b                    13.202462
_cell_length_c                    13.59304
_cell_angle_alpha                 90.151742
_cell_angle_beta                  94.680756
_cell_angle_gamma                 96.677878
_cell_volume                      2245.16939814

loop_
_atom_site_label
_atom_site_type_symbol
_atom_type_description
_atom_site_fract_x
_atom_site_fract_y
_atom_site_fract_z
_atom_type_partial_charge
C1    C     C_R   0.558450 0.691279 0.515219 0.851647
C2    C     C_R   0.459459 0.029984 0.454218 0.029093
C3    C     C_R   0.354177 0.999487 0.481338 -0.051026
C4    C     C_R   0.517998 0.496715 0.318422 0.887992
C5    C     C_R   0.334948 0.907535 0.531805 -0.115264
C6    C     C_R   0.417211 0.847837 0.552817 -0.164340
C7    C     C_R   0.491463 0.135057 0.443918 -0.131342
C8    C     C_R   0.305198 0.163834 0.427875 0.368688
C9    C     C_R   0.593745 0.801369 0.517219 -0.207982
C10   C     C_R   0.881200 0.316842 0.596262 -0.186503
C11   C     C_R   0.215322 0.634045 0.390224 0.030501
C12   C     C_1   0.531558 0.494030 0.217340 -0.120913
C13   C     C_R   0.114042 0.658080 0.359183 -0.179618
C14   C     C_R   0.024755 0.600036 0.391234 -0.085183
C15   C     C_R   0.036377 0.517667 0.455599 0.008951
C16   C     C_R   0.443335 0.310073 0.477690 0.957870
C17   C     C_R   0.141086 0.494377 0.485105 0.122539
C18   C     C_R   0.948500 0.460844 0.496395 -0.027202
C19   C     C_R   0.963227 0.369246 0.546965 0.063460
C20   C     C_R   0.062967 0.336936 0.558495 -0.103039
C21   C     C_R   0.151382 0.407017 0.546110 0.022446
C22   C     C_R   0.847584 0.494212 0.495203 0.044673
C23   C     C_R   0.273503 0.064224 0.459588 0.269130
C24   C     C_R   0.786689 0.358816 0.599334 0.098487
C25   C     C_R   0.482305 0.503837 0.681601 0.912139
C26   C     C_1   0.469601 0.506188 0.782842 -0.081800
C27   C     C_2   0.461613 0.507113 0.972818 -0.285950
C28   C     C_2   0.549538 0.490913 0.028738 0.432753
C29   C     C_1   0.542755 0.491939 0.131653 -0.081855
C30   C     C_1   0.461954 0.507386 0.869144 0.119062
C31   C     C_2   0.227457 0.405990 0.632428 0.474020
C32   C     C_2   0.606211 0.175935 0.441888 0.492320
C33   C     C_2   0.813146 0.944635 0.379521 0.578073
C34   C     C_R   0.413172 0.202598 0.447051 -0.299013
C35   C     C_R   0.698188 0.836742 0.492771 0.340937
C36   C     C_R   0.710481 0.915821 0.423882 -0.116547
C37   C     C_R   0.622911 0.968797 0.397975 -0.185651
C38   C     C_R   0.532796 0.957020 0.453461 0.113430
C39   C     C_R   0.514729 0.868530 0.509106 0.048801
H1    H     H_    0.402836 0.783777 0.601463 0.169421
H2    H     H_    0.259082 0.883656 0.560768 0.224530
H3    H     H_    0.628450 0.024537 0.339840 0.183888
H4    H     H_    0.779789 0.520143 0.107985 0.348797
H5    H     H_    0.236146 0.469850 0.684087 0.056991
H6    H     H_    0.105994 0.315004 0.308468 0.388384
H7    H     H_    0.109861 0.921100 0.352065 0.359983
H8    H     H_    0.630361 0.230527 0.386020 0.085964
H9    H     H_    0.952801 0.877516 0.640431 0.414812
H10   H     H_    0.878914 0.899322 0.392094 0.155227
H11   H     H_    0.721565 0.319873 0.636633 0.180264
H12   H     H_    0.072704 0.268078 0.600446 0.204513
H13   H     H_    0.891746 0.246913 0.635588 0.192595
H14   H     H_    0.825416 0.557735 0.452187 0.162583
H15   H     H_    0.284886 0.678044 0.364116 0.144735
H16   H     H_    0.947550 0.619432 0.362882 0.154499
H17   H     H_    0.104681 0.720851 0.309397 0.165532
H18   H     H_    0.388451 0.520318 0.005249 0.153914
N1    N     N_R   0.773270 0.445590 0.549770 -0.125694
N2    N     N_R   0.227520 0.553880 0.450750 -0.131663
O1    O     O_R   0.631100 0.627590 0.523760 -0.550033
O2    O     O_2   0.711120 0.558009 0.920437 -0.272869
O3    O     O_3   0.764001 0.452635 0.074629 -0.498322
O4    O     O_2   0.272240 0.330557 0.652614 -0.558883
O5    O     O_2   0.305982 0.287332 0.271007 -0.313112
O6    O     O_2   0.177715 0.133196 0.260578 -0.252594
O7    O     O_3   0.138090 0.283966 0.368324 -0.505206
O8    O     O_2   0.127205 0.012293 0.587033 -0.270272
O9    O     O_2   0.062744 0.097271 0.439155 -0.178700
O10   O     O_3   0.100497 0.909190 0.422901 -0.557881
O11   O     O_2   0.672897 0.152905 0.505476 -0.539814
O12   O     O_R   0.455900 0.662370 0.491970 -0.645501
O13   O     O_2   0.779764 0.735471 0.648990 -0.245063
O14   O     O_2   0.872644 0.738351 0.496928 -0.370970
O15   O     O_3   0.891234 0.903437 0.602895 -0.479814
O16   O     O_2   0.825569 0.019762 0.327618 -0.514122
O17   O     O_R   0.600200 0.480080 0.377830 -0.637805
O18   O     O_R   0.425000 0.514870 0.346040 -0.591077
O19   O     O_R   0.544100 0.337630 0.508030 -0.641960
O20   O     O_R   0.368900 0.372410 0.476240 -0.542036
O21   O     O_R   0.575000 0.485130 0.653960 -0.561285
O22   O     O_R   0.399800 0.519920 0.622170 -0.658649
O23   O     O_2   0.653576 0.374617 0.917453 -0.230343
S1    S     S_3+6 0.671565 0.468936 0.981583 0.076284
S2    S     S_3+6 0.231507 0.217449 0.328157 0.086384
S3    S     S_3+6 0.137233 0.023378 0.478103 0.072720
S4    S     S_3+6 0.811711 0.798347 0.561844 0.041444
Zn1   Zn    Zn3+2 0.616980 0.476780 0.521230 1.021586
Zn2   Zn    Zn3+2 0.383020 0.523220 0.478770 0.984834

loop_
_geom_bond_atom_site_label_1
_geom_bond_atom_site_label_2
_ccdc_geom_bond_type
O19   Zn1   S    
C15   C18   A    
O3    S1    S    
C12   C29   T    
C25   O21   A    
C3    C23   A    
C35   C36   A    
C10   H13   S    
N1    Zn1   S    
C33   C36   S    
C21   C31   S    
C1    O12   A    
C36   C37   A    
C20   H12   S    
C5    C6    A    
C35   S4    S    
C33   H10   S    
C9    C39   A    
C8    C23   A    
C18   C19   A    
C37   H3    S    
N2    Zn2   S    
O5    S2    D    
H7    O10   S    
C2    C7    A    
C16   C34   S    
C33   O16   D    
C19   C20   A    
O18   Zn2   S    
C4    C12   S    
C13   H17   S    
C14   H16   S    
C18   C22   A    
C13   C14   A    
C28   S1    S    
C25   O22   A    
O9    S3    D    
C11   N2    A    
O20   Zn2   S    
O1    Zn1   S    
C22   H14   S    
C24   H11   S    
O8    S3    D    
C31   H5    S    
C31   O4    D    
C1    C9    S    
C27   H18   S    
C1    O1    A    
O6    S2    D    
C32   O11   D    
C10   C24   A    
C25   C26   S    
C17   C21   A    
C37   C38   A    
H9    O15   S    
C2    C38   A    
C10   C19   A    
C6    C39   A    
C8    C34   A    
O15   S4    S    
O17   Zn1   S    
C11   H15   S    
C17   N2    A    
C26   C30   T    
O2    S1    D    
C7    C34   A    
C6    H1    S    
H6    O7    S    
O10   S3    S    
C15   C17   A    
C5    H2    S    
C28   C29   S    
C7    C32   S    
C8    S2    S    
C3    C5    A    
C22   N1    A    
O13   S4    D    
O21   Zn1   S    
C16   O20   A    
C2    C3    A    
C4    O18   A    
C11   C13   A    
C38   C39   A    
C32   H8    S    
C16   O19   A    
O14   S4    D    
C4    O17   A    
O22   Zn2   S    
O7    S2    S    
O12   Zn2   S    
C20   C21   A    
C24   N1    A    
O23   S1    D    
C23   S3    S    
C27   C28   D    
C9    C35   A    
C14   C15   A    
H4    O3    S    
C27   C30   S    
