data_mof_unit_50667.cif
_audit_creation_date              2013-03-05T16:48:42-0500
_audit_creation_method            fapswitch 2.2
_symmetry_space_group_name_H-M    P1
_symmetry_Int_Tables_number       1
_space_group_crystal_system       triclinic
_cell_length_a                    27.843144
_cell_length_b                    8.918035
_cell_length_c                    8.106222
_cell_angle_alpha                 89.148088
_cell_angle_beta                  90.089475
_cell_angle_gamma                 90.002347
_cell_volume                      2012.59969042

loop_
_atom_site_label
_atom_site_type_symbol
_atom_site_description
_atom_site_fract_x
_atom_site_fract_y
_atom_site_fract_z
_atom_type_partial_charge
O1    O     O_R   0.500000 0.285350 0.636850 -0.616171
O2    O     O_R   0.500000 0.714650 0.363150 -0.616113
O3    O     O_R   0.500000 0.714650 0.636850 -0.612780
O4    O     O_R   0.500000 0.285350 0.363150 -0.612816
C1    C     C_R   0.500000 0.218016 0.500780 0.944076
C2    C     C_R   0.500000 0.781984 0.499219 0.944196
O5    O     O_R   0.428760 0.500000 0.636860 -0.622791
O6    O     O_R   0.571240 0.500000 0.363140 -0.622738
O7    O     O_R   0.571240 0.500000 0.636860 -0.623026
O8    O     O_R   0.428760 0.500000 0.363140 -0.622970
C3    C     C_R   0.405892 0.499990 0.499865 0.884758
C4    C     C_R   0.594107 0.499921 0.500157 0.884762
Zn1   Zn    Zn3+2 0.500000 0.500000 0.682780 1.000312
Zn2   Zn    Zn3+2 0.500000 0.500000 0.317220 1.000358
C5    C     C_R   0.177529 0.366525 0.519841 0.572136
C6    C     C_R   0.822433 0.632630 0.482263 0.572050
C7    C     C_R   0.177464 0.630934 0.475445 0.572712
C8    C     C_R   0.822566 0.368216 0.526629 0.572811
O9    O     O_2   0.202417 0.236773 0.521069 -0.435665
O10   O     O_2   0.797485 0.762264 0.480715 -0.435883
O11   O     O_2   0.202270 0.760862 0.473745 -0.435160
O12   O     O_2   0.797823 0.238171 0.527968 -0.434949
N1    N     N_R   0.201479 0.498806 0.497879 -0.380109
N2    N     N_R   0.798519 0.500231 0.503843 -0.380111
C9    C     C_R   0.278554 0.545757 0.356170 0.031927
C10   C     C_R   0.721317 0.453099 0.644643 0.031738
C11   C     C_R   0.278497 0.452520 0.641057 0.031897
C12   C     C_R   0.721629 0.546418 0.359783 0.032100
C13   C     C_R   0.328513 0.544792 0.357305 -0.238107
C14   C     C_R   0.671367 0.454357 0.643076 -0.238110
C15   C     C_R   0.328458 0.454335 0.641058 -0.238291
C16   C     C_R   0.671660 0.544916 0.359364 -0.238268
C17   C     C_R   0.253079 0.498978 0.498340 0.199215
C18   C     C_R   0.746919 0.499870 0.502747 0.199196
C19   C     C_R   0.101769 0.498807 0.498543 -0.159908
C20   C     C_R   0.898227 0.500664 0.504508 -0.159918
C21   C     C_R   0.127392 0.366100 0.538510 -0.100056
C22   C     C_R   0.872591 0.633287 0.464289 -0.100062
C23   C     C_R   0.127333 0.631139 0.457060 -0.099362
C24   C     C_R   0.872675 0.368244 0.545714 -0.099351
C25   C     C_R   0.102181 0.238699 0.594922 0.479475
C26   C     C_R   0.897811 0.760831 0.408319 0.479614
C27   C     C_R   0.102092 0.757817 0.398725 0.480529
C28   C     C_R   0.897905 0.241702 0.604461 0.480425
C29   C     C_R   0.353544 0.499787 0.499455 -0.056308
C30   C     C_R   0.646455 0.499667 0.500768 -0.056304
H1    H     H_    0.347792 0.418028 0.750840 0.165481
H2    H     H_    0.652417 0.581380 0.249426 0.165396
H3    H     H_    0.347892 0.581356 0.247888 0.165508
H4    H     H_    0.651896 0.417855 0.752316 0.165574
C31   C     C_R   0.974502 0.368790 0.552720 0.025741
C32   C     C_R   0.025496 0.630873 0.450936 0.025719
C33   C     C_R   0.974455 0.631668 0.453480 0.025612
C34   C     C_R   0.025539 0.367998 0.550192 0.025641
C35   C     C_R   0.949252 0.500363 0.503485 0.083807
C36   C     C_R   0.050744 0.499247 0.500002 0.083808
C37   C     C_R   0.947658 0.242697 0.606446 -0.260958
C38   C     C_R   0.052338 0.756963 0.397199 -0.260870
C39   C     C_R   0.947563 0.759617 0.405639 -0.260601
C40   C     C_R   0.052431 0.240058 0.598075 -0.260677
H5    H     H_    0.963887 0.141847 0.654354 0.176262
H6    H     H_    0.036106 0.857906 0.349551 0.176241
H7    H     H_    0.963751 0.862412 0.363221 0.175485
H8    H     H_    0.036245 0.137369 0.640823 0.175517
C41   C     C_1   0.500000 0.065206 0.501120 -0.178883
C42   C     C_1   0.500000 0.934794 0.498880 -0.178904
N3    N     N_1   0.500000 0.500000 0.073640 -0.033299
N4    N     N_1   0.500000 0.500000 0.926360 -0.033315
C43   C     C_1   0.253949 0.399687 0.787520 0.243081
N5    N     N_1   0.234209 0.355530 0.903993 -0.128368
C44   C     C_1   0.746322 0.599068 0.213528 0.243268
N6    N     N_1   0.766183 0.643046 0.097232 -0.128389
C45   C     C_1   0.254066 0.598003 0.209085 0.243644
N7    N     N_1   0.234373 0.641712 0.092082 -0.128006
C46   C     C_1   0.745654 0.400652 0.791943 0.243481
N8    N     N_1   0.765219 0.356778 0.909118 -0.127995
Cl1   Cl    Cl    0.130337 0.078575 0.682751 -0.446708
Cl2   Cl    Cl    0.869684 0.920963 0.320405 -0.446457
Cl3   Cl    Cl    0.130219 0.915473 0.305690 -0.447262
Cl4   Cl    Cl    0.869746 0.084067 0.697401 -0.447530

loop_
_geom_bond_atom_site_label_1
_geom_bond_atom_site_label_2
_geom_bond_distance
_ccdc_geom_bond_type
C38   H6    1.073770 S    
C45   N7    1.157384 T    
O3    C2    1.259113 A    
C33   C39   1.413881 A    
C34   C40   1.413901 A    
C11   C17   1.412135 A    
O5    C3    1.279230 A    
C7    N1    1.364516 A    
O1    C1    1.263688 A    
C19   C21   1.415100 A    
C22   C26   1.406520 A    
C25   Cl1   1.768819 S    
C27   Cl3   1.768920 S    
C7    C23   1.403497 A    
O7    Zn1   2.018740 S    
C5    C21   1.404382 A    
C20   C24   1.414649 A    
C8    C24   1.403500 A    
C27   C38   1.385374 A    
C5    O9    1.348680 S    
C10   C18   1.411893 A    
N1    C17   1.436717 S    
Zn2   N3    1.974514 S    
C31   C37   1.413922 A    
C24   C28   1.405992 A    
C31   C35   1.419726 A    
C11   C43   1.443822 S    
C6    O10   1.348632 S    
C5    N1    1.364587 A    
C14   H4    1.084863 S    
C12   C18   1.412219 A    
C6    N2    1.364648 A    
C15   H1    1.084689 S    
C21   C25   1.406494 A    
C16   H2    1.084875 S    
O2    C2    1.263689 A    
C12   C16   1.391352 A    
C33   C35   1.419380 A    
C9    C13   1.391069 A    
C34   C36   1.419402 A    
C11   C15   1.391168 A    
N3    N4    1.193884 T    
C28   Cl4   1.768850 S    
C4    C30   1.457541 S    
O8    Zn2   2.018742 S    
C23   C27   1.406037 A    
C7    O11   1.348817 S    
C13   C29   1.399410 A    
C19   C23   1.414682 A    
C46   N8    1.157336 T    
C2    C42   1.362729 S    
C28   C37   1.385395 A    
O6    C4    1.279360 A    
C10   C46   1.443801 S    
C13   H3    1.084917 S    
C37   H5    1.073781 S    
C32   C38   1.413917 A    
C1    C41   1.362729 S    
C10   C14   1.390861 A    
C8    N2    1.364438 A    
C3    C29   1.457547 S    
C12   C44   1.443857 S    
O1    Zn1   1.955554 S    
C32   C33   1.421324 A    
O6    Zn2   2.017597 S    
C19   C36   1.420781 A    
C8    O12   1.348831 S    
C16   C30   1.399278 A    
C14   C30   1.399575 A    
C25   C40   1.385521 A    
O4    C1    1.259114 A    
O3    Zn1   1.944686 S    
C26   C39   1.385493 A    
C26   Cl2   1.768796 S    
C39   H7    1.073710 S    
C40   H8    1.073719 S    
C31   C34   1.421241 A    
C20   C22   1.415094 A    
C44   N6    1.157135 T    
C20   C35   1.420753 A    
C9    C45   1.443783 S    
O4    Zn2   1.944686 S    
C43   N5    1.157217 T    
O2    Zn2   1.955553 S    
O7    C4    1.278899 A    
N2    C18   1.436715 S    
O8    C3    1.279053 A    
O5    Zn1   2.017600 S    
C41   C42   1.163429 T    
C15   C29   1.399432 A    
C9    C17   1.411924 A    
C32   C36   1.419723 A    
C6    C22   1.404368 A    
Zn1   N4    1.974514 S    
