data_mof_unit_67806.cif
_audit_creation_date              2013-03-05T15:41:23-0500
_audit_creation_method            fapswitch 2.2
_symmetry_space_group_name_H-M    P1
_symmetry_Int_Tables_number       1
_space_group_crystal_system       triclinic
_cell_length_a                    8.22898
_cell_length_b                    8.870976
_cell_length_c                    10.984509
_cell_angle_alpha                 91.586579
_cell_angle_beta                  84.001463
_cell_angle_gamma                 90.20785
_cell_volume                      797.162623496

loop_
_atom_site_label
_atom_site_type_symbol
_atom_site_description
_atom_site_fract_x
_atom_site_fract_y
_atom_site_fract_z
_atom_type_partial_charge
O1    O     O_R   0.389250 0.738570 0.508370 -0.616965
O2    O     O_R   0.678390 0.711620 0.486510 -0.590314
C1    C     C_R   0.540600 0.791898 0.498777 0.880685
O3    O     O_R   0.355430 0.513500 0.696140 -0.591985
O4    O     O_R   0.644580 0.486550 0.674270 -0.565316
C2    C     C_R   0.500784 0.508355 0.740650 0.958305
Zn1   Zn    Zn3+2 0.306940 0.517990 0.514600 1.104330
Zn2   Zn    Zn3+2 0.693060 0.482010 0.485400 1.130359
O5    O     O_R   0.321610 0.288380 0.513490 -0.601179
O6    O     O_R   0.610750 0.261430 0.491630 -0.589071
O7    O     O_R   0.355420 0.513450 0.325730 -0.597749
O8    O     O_R   0.644570 0.486500 0.303860 -0.571010
C3    C     C_R   0.459213 0.208533 0.505103 0.888670
C4    C     C_R   0.503600 0.502035 0.258786 0.914843
C5    C     C_3   0.385346 0.636417 0.945681 0.291627
C6    C     C_3   0.380877 0.617432 0.085196 -0.081130
H1    H     H_    0.430441 0.723430 0.118278 0.180765
C7    C     C_3   0.459737 0.347883 0.927739 0.260413
C8    C     C_3   0.687119 0.552843 0.909826 0.376638
C9    C     C_3   0.505997 0.511996 0.877512 -0.379597
C10   C     C_3   0.516613 0.504485 0.120723 -0.361275
C11   C     C_3   0.501566 0.337107 0.063752 0.286986
C12   C     C_3   0.687137 0.570998 0.055014 0.280569
C13   C     C_2   0.557622 0.951379 0.483147 -0.040006
C14   C     C_2   0.442655 0.050750 0.528544 -0.016039
N1    N     N_2   0.950330 0.457950 0.465890 0.026552
N2    N     N_2   0.049670 0.542050 0.534110 0.027324
I1    I     I_    0.150846 0.668356 0.888494 0.010644
Br1   Br    Br    0.889031 0.497026 0.113624 -0.285642
Br2   Br    Br    0.556904 0.185385 0.817832 -0.293559
Br3   Br    Br    0.693232 0.209178 0.075677 -0.248717
I2    I     I_    0.765218 0.007414 0.366191 -0.084037
I3    I     I_    0.253608 0.007796 0.667695 -0.026931
I4    I     I_    0.048599 0.287570 0.360192 0.014258
I5    I     I_    0.000436 0.765513 0.539561 0.017436
Br4   Br    Br    0.433128 0.846288 0.910437 -0.330949
I6    I     I_    0.184343 0.730673 0.201923 -0.085452
I7    I     I_    0.210297 0.285256 0.918051 0.017641
I8    I     I_    0.371880 0.168176 0.170817 -0.104426
Br5   Br    Br    0.851182 0.404831 0.839507 -0.260143
Br6   Br    Br    0.773782 0.728190 0.816096 -0.294167
I9    I     I_    0.738627 0.798753 0.108167 -0.052387

loop_
_geom_bond_atom_site_label_1
_geom_bond_atom_site_label_2
_geom_bond_distance
_ccdc_geom_bond_type
O4    Zn2   2.070611 S    
C8    C12   1.598500 S    
C13   I2    2.094368 S    
C6    C10   1.588926 S    
C7    Br2   1.971057 S    
C2    C9    1.507891 S    
C8    C9    1.605696 S    
C6    I6    2.185361 S    
Zn2   O8    2.075614 S    
O2    C1    1.334013 A    
C7    I7    2.137151 S    
Zn1   N2    2.116456 S    
O1    Zn1   2.068932 S    
C10   C11   1.604684 S    
Zn1   O7    2.070610 S    
C3    C14   1.433610 S    
C1    C13   1.434437 S    
C5    C9    1.603576 S    
C12   I9    2.140714 S    
O3    Zn1   2.075615 S    
C11   I8    2.142760 S    
C12   Br1   1.964723 S    
C4    C10   1.509887 S    
O3    C2    1.340031 A    
O8    C4    1.317116 A    
C7    C9    1.601674 S    
C10   C12   1.626059 S    
N1    N2    1.370780 D    
O4    C2    1.335210 A    
O7    C4    1.359122 A    
C11   Br3   1.963943 S    
C5    I1    2.113239 S    
C5    C6    1.542964 S    
C5    Br4   1.942528 S    
Zn2   N1    2.116456 S    
C13   C14   1.343087 D    
Zn2   O6    2.068931 S    
C8    Br5   1.970295 S    
Zn1   O5    2.040500 S    
O5    C3    1.331458 A    
N2    I5    2.022765 S    
C7    C11   1.573330 S    
N1    I4    2.000458 S    
O2    Zn2   2.040500 S    
C8    Br6   1.978726 S    
C14   I3    2.105369 S    
C6    H1    1.091723 S    
O1    C1    1.325561 A    
O6    C3    1.325940 A    
