data_mof_unit_43380.cif
_audit_creation_date              2012-12-10T17:35:42-0500
_audit_creation_method            fapswitch 2.2
_symmetry_space_group_name_H-M    P1
_symmetry_Int_Tables_number       1
_space_group_crystal_system       triclinic
_cell_length_a                    10.51204
_cell_length_b                    12.034035
_cell_length_c                    12.89093
_cell_angle_alpha                 92.435649
_cell_angle_beta                  90.24828
_cell_angle_gamma                 85.429351
_cell_volume                      1624.07646027

loop_
_atom_site_label
_atom_site_type_symbol
_atom_type_description
_atom_site_fract_x
_atom_site_fract_y
_atom_site_fract_z
_atom_type_partial_charge
C1    C     C_R   0.498471 0.521389 0.700193 0.920251
C2    C     C_R   0.576653 0.162149 0.606829 0.561156
C3    C     C_R   0.523797 0.859380 0.556923 -0.109977
C4    C     C_R   0.476242 0.140615 0.443064 -0.123700
C5    C     C_R   0.526011 0.976060 0.545259 -0.178708
C6    C     C_R   0.474048 0.023935 0.454723 -0.179936
C7    C     C_R   0.742498 0.499044 0.497715 0.968576
C8    C     C_R   0.257501 0.500956 0.502286 0.969915
C9    C     C_3   0.972495 0.394000 0.489898 0.509521
C10   C     C_3   0.027501 0.606004 0.510106 0.509840
C11   C     C_3   0.046830 0.441338 0.583071 -0.508060
C12   C     C_R   0.501531 0.478607 0.299813 0.915864
C13   C     C_3   0.953166 0.558666 0.416933 -0.509062
C14   C     C_3   0.122731 0.502413 0.503416 -0.252982
C15   C     C_3   0.877266 0.497590 0.496587 -0.252055
C16   C     C_3   0.048453 0.454045 0.411872 0.469780
C17   C     C_3   0.951542 0.545959 0.588132 0.469061
C18   C     C_R   0.500198 0.465862 0.188896 -0.141796
C19   C     C_R   0.500079 0.534082 0.811120 -0.168599
C20   C     C_R   0.534703 0.645724 0.966482 0.447798
C21   C     C_R   0.466190 0.354041 0.033521 0.401817
C22   C     C_R   0.527162 0.635301 0.859336 -0.236736
C23   C     C_R   0.478129 0.442286 0.868148 -0.170327
C24   C     C_R   0.473111 0.364638 0.140685 -0.272781
C25   C     C_3   0.036590 0.207164 0.495115 -0.334805
C26   C     C_3   0.963400 0.792841 0.504895 -0.334782
C27   C     C_3   0.023172 0.381255 0.245889 -0.263059
C28   C     C_3   0.976801 0.618755 0.754117 -0.260127
C29   C     C_3   0.753313 0.232143 0.681378 -0.168847
C30   C     C_3   0.246743 0.767837 0.318612 -0.162987
C31   C     C_3   0.248588 0.042675 0.297918 -0.230616
C32   C     C_3   0.751406 0.957359 0.702194 -0.251545
C33   C     C_R   0.522561 0.557554 0.131869 -0.168150
C34   C     C_R   0.486069 0.448323 0.975063 -0.014524
C35   C     C_R   0.514880 0.551440 0.024946 -0.035292
C36   C     C_R   0.420405 0.953970 0.378654 0.406190
C37   C     C_R   0.579652 0.046028 0.621331 0.420523
C38   C     C_R   0.423389 0.837853 0.393155 0.561820
H1    H     H_    0.089747 0.395520 0.649241 0.186956
H2    H     H_    0.125166 0.224493 0.453878 0.198783
H3    H     H_    0.011080 0.123003 0.468246 0.172462
H4    H     H_    0.874829 0.775511 0.546139 0.198035
H5    H     H_    0.945759 0.794788 0.419903 0.170399
H6    H     H_    0.988909 0.877002 0.531764 0.174059
H7    H     H_    0.976657 0.459649 0.215784 0.165805
H8    H     H_    0.950200 0.327541 0.273826 0.193211
H9    H     H_    0.074187 0.335127 0.180138 0.206641
H10   H     H_    0.049767 0.672477 0.726183 0.197146
H11   H     H_    0.023322 0.540365 0.784222 0.165780
H12   H     H_    0.910247 0.604484 0.350764 0.186656
H13   H     H_    0.925773 0.664878 0.819864 0.204363
H14   H     H_    0.610485 0.938168 0.968314 0.410457
H15   H     H_    0.501872 0.105811 0.091636 0.369443
H16   H     H_    0.797038 0.197882 0.607000 0.148065
H17   H     H_    0.796459 0.184714 0.746378 0.174132
H18   H     H_    0.778735 0.319587 0.692674 0.196755
H19   H     H_    0.203561 0.815294 0.253644 0.176258
H20   H     H_    0.203029 0.802050 0.393011 0.147635
H21   H     H_    0.221345 0.680389 0.307282 0.195828
H22   H     H_    0.247695 0.134481 0.309697 0.175577
H23   H     H_    0.545453 0.633819 0.172234 0.250538
H24   H     H_    0.195112 0.008251 0.362202 0.084793
H25   H     H_    0.195575 0.026364 0.224982 0.218824
H26   H     H_    0.804971 0.991847 0.637998 0.088753
H27   H     H_    0.752329 0.865559 0.690334 0.179648
H28   H     H_    0.804299 0.973610 0.775204 0.208513
H29   H     H_    0.455097 0.366068 0.827787 0.252306
H30   H     H_    0.455446 0.294541 0.187030 0.199103
H31   H     H_    0.544285 0.705570 0.813023 0.221487
H32   H     H_    0.438705 0.178942 0.373958 0.197067
H33   H     H_    0.561353 0.821049 0.626019 0.201806
H34   H     H_    0.054222 0.205218 0.580109 0.173256
N1    N     N_R   0.523490 0.207800 0.519350 -0.174259
N2    N     N_R   0.476510 0.792200 0.480650 -0.176335
O1    O     O_R   0.506270 0.421700 0.658830 -0.574981
O2    O     O_3   0.066226 0.714887 0.526443 -0.607106
O3    O     O_3   0.112809 0.404368 0.323694 -0.615958
O4    O     O_3   0.887174 0.595633 0.676306 -0.617964
O5    O     O_2   0.461448 0.821327 0.093178 -0.228796
O6    O     O_2   0.690422 0.763672 0.084894 -0.340277
O7    O     O_3   0.587187 0.869421 0.930322 -0.513529
O8    O     O_2   0.310534 0.235680 0.915405 -0.280781
O9    O     O_2   0.538870 0.178670 0.905588 -0.262580
O10   O     O_3   0.414106 0.129187 0.068648 -0.490328
O11   O     O_3   0.619203 0.231187 0.685525 -0.551987
O12   O     O_R   0.493730 0.578300 0.341170 -0.576322
O13   O     O_3   0.380848 0.768827 0.314443 -0.553506
O14   O     O_3   0.375374 0.995167 0.285535 -0.543568
O15   O     O_3   0.624600 0.004844 0.714482 -0.528419
O16   O     O_R   0.491200 0.609310 0.646410 -0.633948
O17   O     O_R   0.508800 0.390690 0.353590 -0.636604
O18   O     O_R   0.693580 0.406210 0.506230 -0.592587
O19   O     O_R   0.306420 0.593790 0.493770 -0.591545
O20   O     O_R   0.678510 0.593830 0.493810 -0.621310
O21   O     O_R   0.321490 0.406170 0.506190 -0.619892
O22   O     O_3   0.933768 0.285118 0.473560 -0.609670
S1    S     S_3+6 0.569215 0.777348 0.022796 0.020407
S2    S     S_3+6 0.432044 0.222324 0.977075 0.029483
Zn1   Zn    Zn3+2 0.510060 0.374730 0.508290 0.998388
Zn2   Zn    Zn3+2 0.489940 0.625270 0.491710 1.000780

loop_
_geom_bond_atom_site_label_1
_geom_bond_atom_site_label_2
_ccdc_geom_bond_type
C1    O16   A    
C5    C37   A    
O6    S1    D    
C12   O17   A    
C19   C23   A    
C4    H32   S    
C26   H6    S    
C36   O14   S    
H15   O10   S    
C18   C24   A    
C9    C16   S    
C16   O3    S    
C25   H2    S    
C5    C6    A    
C11   C14   S    
O21   Zn1   S    
C29   H16   S    
C10   C17   S    
C30   H19   S    
C2    O11   S    
N1    Zn1   S    
C34   C35   A    
C23   H29   S    
C3    N2    A    
C33   C35   A    
C20   C35   A    
C10   O2    S    
C11   C17   S    
C20   S1    S    
O9    S2    D    
C26   O2    S    
O12   Zn2   S    
C22   H31   S    
C29   O11   S    
C27   H7    S    
C7    C15   S    
O8    S2    D    
C31   H24   S    
C8    O21   A    
O16   Zn2   S    
C26   H5    S    
C1    C19   S    
C1    O1    A    
C31   H25   S    
C19   C22   A    
C32   H26   S    
C4    C6    A    
C10   C14   S    
C25   H3    S    
N2    Zn2   S    
C21   C34   A    
C29   H17   S    
C27   O3    S    
C31   H22   S    
C3    H33   S    
C28   H11   S    
C32   O15   S    
O19   Zn2   S    
O20   Zn2   S    
C23   C34   A    
C30   H21   S    
O1    Zn1   S    
C25   H34   S    
C11   H1    S    
C9    C11   S    
C9    O22   S    
C4    N1    A    
C2    N1    A    
C27   H8    S    
C20   C22   A    
C13   C15   S    
C14   C16   S    
C21   C24   A    
C28   O4    S    
C26   H4    S    
C32   H28   S    
C38   N2    A    
C27   H9    S    
C15   C17   S    
C7    O20   A    
C28   H10   S    
C8    C14   S    
C31   O14   S    
O5    S1    D    
C8    O19   A    
C3    C5    A    
C10   C13   S    
C29   H18   S    
C12   O12   A    
C37   O15   S    
C38   O13   S    
O10   S2    S    
C36   C38   A    
C9    C15   S    
C21   S2    S    
C2    C37   A    
O7    S1    S    
C7    O18   A    
C30   H20   S    
C17   O4    S    
C28   H13   S    
C6    C36   A    
H14   O7    S    
C18   C33   A    
C24   H30   S    
C13   H12   S    
C25   O22   S    
C33   H23   S    
C13   C16   S    
C12   C18   S    
O17   Zn1   S    
C30   O13   S    
O18   Zn1   S    
C32   H27   S    
