data_mof_unit_12206.cif
_audit_creation_date              2012-12-11T15:49:07-0500
_audit_creation_method            fapswitch 2.2
_symmetry_space_group_name_H-M    P1
_symmetry_Int_Tables_number       1
_space_group_crystal_system       triclinic
_cell_length_a                    21.631778
_cell_length_b                    7.182398
_cell_length_c                    14.881732
_cell_angle_alpha                 89.907521
_cell_angle_beta                  106.36994
_cell_angle_gamma                 89.97468
_cell_volume                      2218.41183941

loop_
_atom_site_label
_atom_site_type_symbol
_atom_type_description
_atom_site_fract_x
_atom_site_fract_y
_atom_site_fract_z
_atom_type_partial_charge
O1    O     O_R   0.335860 0.638190 0.002110 -0.540976
O2    O     O_R   0.664140 0.361810 0.997890 -0.540976
O3    O     O_R   0.164140 0.138190 0.997890 -0.541205
O4    O     O_R   0.835860 0.861810 0.002110 -0.541205
O5    O     O_R   0.217530 0.305920 0.861960 -0.537741
O6    O     O_R   0.782470 0.694080 0.138040 -0.537741
O7    O     O_R   0.282470 0.805920 0.138040 -0.536074
O8    O     O_R   0.717530 0.194080 0.861960 -0.536074
C1    C     C_R   0.205840 0.476850 0.825848 0.694895
C2    C     C_R   0.794160 0.523150 0.174152 0.694895
C3    C     C_R   0.294193 0.976454 0.174208 0.695173
C4    C     C_R   0.705806 0.023546 0.825792 0.695174
O9    O     O_R   0.338690 0.308320 0.993240 -0.544943
O10   O     O_R   0.661310 0.691680 0.006760 -0.544943
O11   O     O_R   0.161310 0.808320 0.006760 -0.544754
O12   O     O_R   0.838690 0.191680 0.993240 -0.544754
O13   O     O_R   0.286170 0.140430 0.130100 -0.535760
O14   O     O_R   0.713830 0.859570 0.869900 -0.535760
O15   O     O_R   0.213830 0.640430 0.869900 -0.534842
O16   O     O_R   0.786170 0.359570 0.130100 -0.534842
C5    C     C_R   0.364976 0.477202 0.997804 0.671821
C6    C     C_R   0.635024 0.522797 0.002196 0.671820
C7    C     C_R   0.135023 0.977250 0.002193 0.671837
C8    C     C_R   0.864977 0.022749 0.997807 0.671839
O17   O     O_3   0.232630 0.472410 0.044750 -0.375736
O18   O     O_3   0.767370 0.527590 0.955250 -0.375735
O19   O     O_3   0.267370 0.972410 0.955250 -0.376054
O20   O     O_3   0.732630 0.027590 0.044750 -0.376055
V1    V     V_3+5 0.253220 0.196620 0.991700 1.413512
V2    V     V_3+5 0.746780 0.803380 0.008300 1.413512
V3    V     V_3+5 0.246780 0.696620 0.008300 1.417142
V4    V     V_3+5 0.753220 0.303380 0.991700 1.417142
C9    C     C_R   0.030076 0.826418 0.004421 -0.161523
C10   C     C_R   0.969924 0.173582 0.995579 -0.161523
C11   C     C_R   0.470088 0.326372 0.996148 -0.162250
C12   C     C_R   0.529911 0.673628 0.003851 -0.162250
H1    H     H_    0.052027 0.690113 0.007687 0.117950
H2    H     H_    0.947973 0.309887 0.992313 0.117950
H3    H     H_    0.448272 0.190042 0.993351 0.117926
H4    H     H_    0.551728 0.809958 0.006648 0.117925
C13   C     C_R   0.965116 0.837770 0.002834 -0.152960
C14   C     C_R   0.034883 0.162230 0.997166 -0.152960
C15   C     C_R   0.535048 0.337781 0.997747 -0.151719
C16   C     C_R   0.464952 0.662219 0.002252 -0.151719
H5    H     H_    0.939357 0.709460 0.005217 0.120554
H6    H     H_    0.060643 0.290540 0.994783 0.120554
H7    H     H_    0.560939 0.209460 0.995842 0.120807
H8    H     H_    0.439060 0.790540 0.004157 0.120807
C17   C     C_R   0.934019 0.011541 0.998364 -0.038358
C18   C     C_R   0.065981 0.988459 0.001636 -0.038358
C19   C     C_R   0.565982 0.511600 0.001647 -0.038692
C20   C     C_R   0.434017 0.488400 0.998352 -0.038692
C21   C     C_R   0.678129 0.018160 0.724182 -0.062099
C22   C     C_R   0.321871 0.981841 0.275818 -0.062100
C23   C     C_R   0.822013 0.515520 0.275612 -0.060969
C24   C     C_R   0.177987 0.484480 0.724388 -0.060968
C25   C     C_R   0.689671 0.062893 0.568245 0.214256
C26   C     C_R   0.310328 0.937116 0.431755 0.214256
C27   C     C_R   0.809240 0.522555 0.432174 0.217921
C28   C     C_R   0.190760 0.477453 0.567826 0.217919
C29   C     C_R   0.716801 0.052671 0.665399 -0.199973
C30   C     C_R   0.283198 0.947334 0.334601 -0.199974
C31   C     C_R   0.782456 0.524685 0.334808 -0.202032
C32   C     C_R   0.217544 0.475321 0.665192 -0.202031
C33   C     C_R   0.611895 0.993431 0.686968 -0.216161
C34   C     C_R   0.388105 0.006570 0.313032 -0.216161
C35   C     C_R   0.888742 0.505859 0.312476 -0.217206
C36   C     C_R   0.111258 0.494138 0.687524 -0.217206
C37   C     C_R   0.582038 0.006938 0.589441 0.042300
C38   C     C_R   0.417961 0.993070 0.410559 0.042300
C39   C     C_R   0.918102 0.506412 0.410301 0.041973
C40   C     C_R   0.081898 0.493589 0.589699 0.041972
C41   C     C_R   0.622115 0.043038 0.530148 0.117368
C42   C     C_R   0.377884 0.956974 0.469852 0.117369
C43   C     C_R   0.877094 0.512339 0.470161 0.115680
C44   C     C_R   0.122906 0.487665 0.529839 0.115681
C45   C     C_R   0.513714 0.989549 0.549404 0.078137
C46   C     C_R   0.486285 0.010462 0.450596 0.078137
C47   C     C_R   0.986675 0.501311 0.450265 0.078170
C48   C     C_R   0.013325 0.498690 0.549735 0.078170
C49   C     C_R   0.528106 0.047741 0.395017 -0.203450
C50   C     C_R   0.471893 0.952275 0.604983 -0.203450
C51   C     C_R   0.970503 0.500007 0.605994 -0.203398
C52   C     C_R   0.029497 0.499997 0.394006 -0.203399
C53   C     C_R   0.594120 0.062616 0.433814 -0.188593
C54   C     C_R   0.405879 0.937400 0.566186 -0.188593
C55   C     C_R   0.904323 0.507291 0.567126 -0.193039
C56   C     C_R   0.095677 0.492715 0.432874 -0.193039
H9    H     H_    0.623189 0.092301 0.386987 0.156532
H10   H     H_    0.376810 0.907721 0.613013 0.156532
H11   H     H_    0.874418 0.508269 0.614519 0.156464
H12   H     H_    0.125582 0.491740 0.385482 0.156464
H13   H     H_    0.414813 0.029834 0.263005 0.103401
H14   H     H_    0.585187 0.970162 0.736995 0.103401
H15   H     H_    0.084038 0.500986 0.737831 0.102380
H16   H     H_    0.915962 0.499004 0.262168 0.102380
H17   H     H_    0.231856 0.927246 0.304467 0.104403
H18   H     H_    0.768143 0.072759 0.695533 0.104403
H19   H     H_    0.269303 0.466092 0.695075 0.103335
H20   H     H_    0.730697 0.533917 0.304925 0.103335
H21   H     H_    0.511665 0.067760 0.320434 0.124733
H22   H     H_    0.488334 0.932262 0.679567 0.124732
H23   H     H_    0.986210 0.495009 0.681238 0.124577
H24   H     H_    0.013790 0.504997 0.318762 0.124577
N1    N     N_3   0.730277 0.097762 0.508288 -0.658431
H25   H     H_    0.777811 0.121971 0.547891 0.246383
H26   H     H_    0.731060 0.976541 0.469854 0.212159
N2    N     N_3   0.269722 0.902250 0.491713 -0.658431
H27   H     H_    0.222188 0.878037 0.452109 0.246384
H28   H     H_    0.268938 0.023474 0.530144 0.212159
N3    N     N_3   0.767809 0.531407 0.492631 -0.660794
H29   H     H_    0.719384 0.524289 0.453682 0.244725
H30   H     H_    0.774336 0.661813 0.525005 0.213218
N4    N     N_3   0.232191 0.468607 0.507369 -0.660796
H31   H     H_    0.280615 0.475727 0.546318 0.244726
H32   H     H_    0.225664 0.338202 0.474994 0.213218

loop_
_geom_bond_atom_site_label_1
_geom_bond_atom_site_label_2
_ccdc_geom_bond_type
O17   V3    S    
C51   C55   A    
C26   C30   A    
C55   H11   S    
O19   V1    S    
O13   V1    S    
C28   N4    S    
N3    H29   S    
C10   C14   A    
C40   C44   A    
O15   V3    S    
C39   C47   A    
N4    H31   S    
C49   H21   S    
C45   C46   A    
O1    C5    A    
N1    H26   S    
C51   H23   S    
O9    V1    S    
C47   C52   A    
O4    C8    A    
C38   C46   A    
C46   C49   A    
O1    V3    S    
N2    H27   S    
O2    V4    S    
C14   H6    S    
C25   C41   A    
O3    V1    S    
O3    C7    A    
C38   C42   A    
C37   C45   A    
C1    O15   A    
C32   H19   S    
C56   H12   S    
C2    O16   A    
C23   C31   A    
O2    C6    A    
C27   N3    S    
C24   C32   A    
C37   C41   A    
O14   V2    S    
C21   C33   A    
C44   C56   A    
C26   N2    S    
C4    C21   S    
C36   C40   A    
C16   C20   A    
O11   C7    A    
O12   C8    A    
C21   C29   A    
O10   V2    S    
C48   C51   A    
C13   C17   A    
O7    C3    A    
O5    V1    S    
C36   H15   S    
O7    V3    S    
C25   N1    S    
O8    V4    S    
C12   H4    S    
C54   H10   S    
C53   H9    S    
O18   V4    S    
C7    C18   S    
C22   C30   A    
C9    C18   A    
C24   C36   A    
C28   C44   A    
C9    H1    S    
C11   H3    S    
O5    C1    A    
C31   H20   S    
C30   H17   S    
C23   C35   A    
O8    C4    A    
C50   H22   S    
O9    C5    A    
N3    H30   S    
C1    C24   S    
C42   C54   A    
C25   C29   A    
C2    C23   S    
C3    C22   S    
C41   C53   A    
C12   C19   A    
C14   C18   A    
C34   H13   S    
C43   C55   A    
C33   H14   S    
O6    V2    S    
C35   H16   S    
C52   H24   S    
C12   C16   A    
C27   C43   A    
C11   C15   A    
C26   C42   A    
O16   V4    S    
C8    C17   S    
C3    O13   A    
C10   C17   A    
C10   H2    S    
C52   C56   A    
O6    C2    A    
N4    H32   S    
O11   V3    S    
C22   C34   A    
O12   V4    S    
N1    H25   S    
C27   C31   A    
C28   C32   A    
C9    C13   A    
O10   C6    A    
O20   V2    S    
C40   C48   A    
C50   C54   A    
C39   C43   A    
C29   H18   S    
C15   C19   A    
C34   C38   A    
C45   C50   A    
C33   C37   A    
N2    H28   S    
C35   C39   A    
O4    V2    S    
C47   C48   A    
C4    O14   A    
C11   C20   A    
C13   H5    S    
C15   H7    S    
C5    C20   S    
C49   C53   A    
C16   H8    S    
C6    C19   S    
