data_mof_unit_36091.cif
_audit_creation_date              2012-12-10T20:48:19-0500
_audit_creation_method            fapswitch 2.2
_symmetry_space_group_name_H-M    P1
_symmetry_Int_Tables_number       1
_space_group_crystal_system       triclinic
_cell_length_a                    10.982485
_cell_length_b                    9.148597
_cell_length_c                    8.307279
_cell_angle_alpha                 90.433032
_cell_angle_beta                  91.097515
_cell_angle_gamma                 88.792234
_cell_volume                      834.308393303

loop_
_atom_site_label
_atom_site_type_symbol
_atom_type_description
_atom_site_fract_x
_atom_site_fract_y
_atom_site_fract_z
_atom_type_partial_charge
C1    C     C_R   0.501696 0.218356 0.499635 0.882816
C2    C     C_1   0.508537 0.934861 0.500380 -0.196055
C3    C     C_3   0.065062 0.669414 0.490249 0.343878
C4    C     C_3   0.918137 0.667926 0.525500 0.244452
C5    C     C_3   0.119431 0.498554 0.498522 -0.185343
C6    C     C_3   0.877393 0.495327 0.504305 -0.203832
C7    C     C_3   0.118248 0.515667 0.816796 -0.853766
C8    C     C_3   0.128101 0.435554 0.179343 -0.828036
C9    C     C_3   0.872433 0.424362 0.824697 -0.834345
C10   C     C_3   0.877061 0.523968 0.184777 -0.837908
C11   C     C_3   0.143309 0.267257 0.708752 -0.837298
C12   C     C_R   0.257125 0.502005 0.498944 0.952719
C13   C     C_3   0.123744 0.239744 0.353043 -0.899107
C14   C     C_3   0.885996 0.234646 0.638772 -0.919251
C15   C     C_3   0.862910 0.273551 0.280952 -0.830513
C16   C     C_3   0.202720 0.884315 0.593928 -0.806535
C17   C     C_3   0.192965 0.794168 0.260450 -0.772506
C18   C     C_3   0.884852 0.874425 0.736161 -0.857693
C19   C     C_3   0.869591 0.911663 0.377855 -0.846818
C20   C     C_R   0.741610 0.493133 0.501651 0.875930
C21   C     C_R   0.506923 0.781094 0.500450 0.866174
C22   C     C_1   0.506105 0.064758 0.499441 -0.189202
C23   C     C_3   0.076379 0.418887 0.666028 0.369565
C24   C     C_3   0.071719 0.402248 0.344175 0.354027
C25   C     C_3   0.929932 0.396870 0.655355 0.379077
C26   C     C_3   0.924313 0.423585 0.331828 0.376886
H1    H     H_    0.177884 0.454989 0.899834 0.236765
H2    H     H_    0.803161 0.473643 0.112499 0.248466
H3    H     H_    0.825115 0.622688 0.206289 0.250718
H4    H     H_    0.943821 0.561177 0.101242 0.202828
H5    H     H_    0.105301 0.166624 0.663363 0.213377
H6    H     H_    0.241293 0.263697 0.680927 0.254524
H7    H     H_    0.135829 0.240951 0.838585 0.218489
H8    H     H_    0.078430 0.166097 0.427018 0.211432
H9    H     H_    0.116971 0.178655 0.236484 0.229840
H10   H     H_    0.221626 0.235236 0.388888 0.242880
H11   H     H_    0.927600 0.166218 0.551522 0.229227
H12   H     H_    0.189111 0.595355 0.804085 0.248230
H13   H     H_    0.903647 0.171207 0.750896 0.243988
H14   H     H_    0.786371 0.229428 0.614434 0.238389
H15   H     H_    0.911750 0.173824 0.308730 0.219239
H16   H     H_    0.769329 0.261138 0.324719 0.246304
H17   H     H_    0.858671 0.256231 0.148574 0.219272
H18   H     H_    0.089388 0.768092 0.726938 0.260745
H19   H     H_    0.224940 0.935616 0.712426 0.227714
H20   H     H_    0.156801 0.967205 0.519625 0.243418
H21   H     H_    0.289035 0.847712 0.545184 0.263170
H22   H     H_    0.014166 0.734094 0.245724 0.256141
H23   H     H_    0.048285 0.579289 0.879372 0.222226
H24   H     H_    0.189807 0.914816 0.270475 0.235888
H25   H     H_    0.195879 0.772302 0.128882 0.212966
H26   H     H_    0.277130 0.748297 0.313211 0.289726
H27   H     H_    0.798573 0.691366 0.714659 0.265496
H28   H     H_    0.795921 0.928563 0.704968 0.255908
H29   H     H_    0.957810 0.936500 0.681449 0.273017
H30   H     H_    0.897337 0.881665 0.868930 0.236075
H31   H     H_    0.751264 0.751698 0.426277 0.240427
H32   H     H_    0.859831 0.925924 0.245615 0.240737
H33   H     H_    0.962210 0.942637 0.415404 0.272330
H34   H     H_    0.220650 0.388347 0.157074 0.264007
H35   H     H_    0.801765 0.986222 0.434878 0.246122
H36   H     H_    0.073107 0.376272 0.088850 0.227882
H37   H     H_    0.133349 0.548872 0.145730 0.248777
H38   H     H_    0.780856 0.377627 0.842236 0.261220
H39   H     H_    0.928690 0.364396 0.914504 0.231875
H40   H     H_    0.863057 0.535578 0.866815 0.229911
N1    N     N_1   0.500000 0.500030 0.073640 -0.056382
N2    N     N_1   0.500000 0.500030 0.926360 -0.056412
N3    N     N_2   0.125276 0.761335 0.615026 -0.297729
N4    N     N_2   0.084241 0.731700 0.327852 -0.298457
N5    N     N_2   0.885237 0.720793 0.688237 -0.313710
N6    N     N_2   0.843879 0.761809 0.416200 -0.301839
O1    O     O_R   0.500000 0.285340 0.636850 -0.620034
O2    O     O_R   0.500000 0.285340 0.363150 -0.617567
O3    O     O_R   0.314790 0.499970 0.636880 -0.623880
O4    O     O_R   0.314790 0.499970 0.363120 -0.627946
O5    O     O_R   0.685210 0.499970 0.636880 -0.643677
O6    O     O_R   0.685210 0.499970 0.363120 -0.623247
O7    O     O_R   0.500000 0.714650 0.636900 -0.606838
O8    O     O_R   0.500000 0.714650 0.363100 -0.624581
Zn1   Zn    Zn3+2 0.500000 0.499990 0.682780 0.954352
Zn2   Zn    Zn3+2 0.500000 0.499990 0.317220 0.950889

loop_
_geom_bond_atom_site_label_1
_geom_bond_atom_site_label_2
_ccdc_geom_bond_type
C9    H38   S    
C17   H25   S    
C9    C25   S    
C20   O5    A    
N2    Zn1   S    
C3    N3    S    
C24   C26   S    
C13   H9    S    
C6    C25   S    
C7    H1    S    
C17   H26   S    
O6    Zn2   S    
C9    H40   S    
C14   H13   S    
C2    C22   T    
C18   H30   S    
C10   C26   S    
C11   H5    S    
C17   N4    S    
C14   C25   S    
C19   N6    S    
O2    Zn2   S    
C16   H21   S    
O1    Zn1   S    
C19   H32   S    
N1    N2    T    
C11   H7    S    
C3    N4    S    
C7    H23   S    
C13   H10   S    
O8    Zn2   S    
O4    Zn2   S    
O7    Zn1   S    
O3    Zn1   S    
C15   C26   S    
C19   H33   S    
C13   C24   S    
C16   H19   S    
C10   H4    S    
C5    C23   S    
O5    Zn1   S    
C21   O7    A    
C2    C21   S    
H18   N3    S    
C15   H15   S    
C18   H29   S    
C5    C12   S    
C4    C6    S    
C11   H6    S    
C12   O4    A    
C1    O2    A    
C16   H20   S    
C3    C4    S    
H27   N5    S    
C4    N6    S    
C10   H2    S    
C18   N5    S    
C16   N3    S    
C15   H16   S    
H22   N4    S    
C3    C5    S    
C17   H24   S    
C6    C20   S    
C20   O6    A    
C1    O1    A    
C15   H17   S    
C13   H8    S    
C8    H34   S    
C14   H11   S    
C10   H3    S    
C6    C26   S    
C5    C24   S    
C19   H35   S    
C7    C23   S    
C21   O8    A    
C11   C23   S    
C8    C24   S    
C7    H12   S    
C23   C25   S    
H31   N6    S    
C9    H39   S    
C18   H28   S    
C8    H37   S    
C14   H14   S    
C1    C22   S    
N1    Zn2   S    
C12   O3    A    
C4    N5    S    
C8    H36   S    
