data_mof_unit_66370.cif
_audit_creation_date              2013-03-05T15:59:58-0500
_audit_creation_method            fapswitch 2.2
_symmetry_space_group_name_H-M    P1
_symmetry_Int_Tables_number       1
_space_group_crystal_system       triclinic
_cell_length_a                    18.698216
_cell_length_b                    18.734329
_cell_length_c                    18.72629
_cell_angle_alpha                 109.546409
_cell_angle_beta                  109.398058
_cell_angle_gamma                 109.435098
_cell_volume                      5051.84706477

loop_
_atom_site_label
_atom_site_type_symbol
_atom_site_description
_atom_site_fract_x
_atom_site_fract_y
_atom_site_fract_z
_atom_type_partial_charge
O1    O     O_R   0.408340 0.551690 0.460080 -0.619680
O2    O     O_R   0.408400 0.448280 0.356690 -0.631923
C1    C     C_R   0.379967 0.500273 0.379729 0.870120
O3    O     O_R   0.591580 0.643330 0.551700 -0.586938
O4    O     O_R   0.591640 0.539920 0.448310 -0.601162
C2    C     C_R   0.619305 0.619898 0.499299 0.937655
Zn1   Zn    Zn3+2 0.499960 0.569050 0.569040 1.049794
Zn2   Zn    Zn3+2 0.500040 0.430950 0.430960 0.999742
O5    O     O_R   0.591600 0.551720 0.643310 -0.610885
O6    O     O_R   0.591660 0.448310 0.539920 -0.597083
O7    O     O_R   0.408360 0.460080 0.551690 -0.625564
O8    O     O_R   0.408420 0.356670 0.448300 -0.625852
C3    C     C_R   0.621660 0.501576 0.620020 0.932925
C4    C     C_R   0.379792 0.379778 0.500072 0.841165
C5    C     C_R   0.756613 0.755746 0.574441 0.086995
C6    C     C_R   0.683597 0.684852 0.497620 -0.070168
C7    C     C_R   0.675267 0.677500 0.417617 -0.193392
H1    H     H_    0.618844 0.622905 0.356009 0.157499
C8    C     C_R   0.739983 0.742401 0.417647 -0.201101
H2    H     H_    0.732921 0.737236 0.356024 0.158439
C9    C     C_R   0.814006 0.812672 0.497601 -0.047858
C10   C     C_R   0.820224 0.816121 0.574428 0.103458
C11   C     C_3   0.875205 0.868584 0.671637 -0.525848
C12   C     C_3   0.802554 0.798483 0.671714 0.116559
H3    H     H_    0.937935 0.868185 0.695212 0.185386
H4    H     H_    0.881484 0.934390 0.698507 0.260267
H5    H     H_    0.823076 0.758419 0.696759 0.134883
C13   C     C_R   0.249348 0.423421 0.236326 -0.166080
H6    H     H_    0.247822 0.362083 0.224554 0.161166
C14   C     C_R   0.184627 0.424255 0.174368 -0.229196
H7    H     H_    0.134022 0.363696 0.114118 0.162343
C15   C     C_R   0.186207 0.503141 0.189322 -0.139341
C16   C     C_R   0.252115 0.582346 0.267229 0.308715
C17   C     C_R   0.316358 0.580371 0.329309 -0.234072
H8    H     H_    0.367316 0.640214 0.390089 0.196723
C18   C     C_R   0.314531 0.501329 0.313804 -0.078050
C19   C     C_R   0.321626 0.241918 0.499415 -0.178039
H9    H     H_    0.377148 0.235735 0.499125 0.152678
C20   C     C_R   0.258375 0.178679 0.500780 -0.172084
H10   H     H_    0.264580 0.123192 0.500803 0.156014
C21   C     C_R   0.186466 0.186499 0.500205 -0.012216
C22   C     C_R   0.177913 0.257661 0.499719 -0.180980
H11   H     H_    0.122218 0.263670 0.499664 0.147864
C23   C     C_R   0.242540 0.322274 0.501105 -0.175648
H12   H     H_    0.236480 0.377907 0.501377 0.148992
C24   C     C_R   0.313722 0.313729 0.500224 -0.009532
C25   C     C_R   0.772057 0.525667 0.691084 0.006307
C26   C     C_R   0.833511 0.522905 0.754997 -0.269927
H13   H     H_    0.897213 0.539470 0.760478 0.147444
C27   C     C_R   0.813802 0.499459 0.812339 -0.011012
C28   C     C_R   0.732344 0.477793 0.806514 -0.163014
H14   H     H_    0.717106 0.460075 0.851229 0.156872
C29   C     C_R   0.670553 0.480554 0.743617 -0.217982
H15   H     H_    0.607193 0.463562 0.739058 0.144466
C30   C     C_R   0.689773 0.503660 0.685914 -0.021849
O9    O     O_R   0.051710 0.908420 0.460050 -0.617753
O10   O     O_R   0.948260 0.908480 0.356680 -0.628251
C31   C     C_R   0.000020 0.879875 0.379765 0.847137
O11   O     O_R   0.960120 0.908380 0.551680 -0.633784
O12   O     O_R   0.856660 0.908440 0.448310 -0.591112
C32   C     C_R   0.879988 0.879469 0.499342 0.933271
Zn3   Zn    Zn3+2 0.069080 0.999990 0.569020 0.980398
Zn4   Zn    Zn3+2 0.930920 0.000070 0.430980 1.017423
O13   O     O_R   0.051740 0.091590 0.643330 -0.623205
O14   O     O_R   0.948290 0.091650 0.539960 -0.593502
O15   O     O_R   0.143330 0.091630 0.551690 -0.621998
O16   O     O_R   0.039880 0.091690 0.448320 -0.624513
C33   C     C_R   0.998849 0.118967 0.620148 0.933818
C34   C     C_R   0.120255 0.120305 0.500067 0.848511
O17   O     O_R   0.948270 0.540000 0.091680 -0.636381
O18   O     O_R   0.051700 0.643420 0.091650 -0.589943
C35   C     C_R   0.999552 0.620283 0.119899 0.911897
O19   O     O_R   0.039910 0.448390 0.091720 -0.621282
O20   O     O_R   0.143340 0.551810 0.091690 -0.592929
C36   C     C_R   0.120171 0.501239 0.121323 0.936859
Zn5   Zn    Zn3+2 0.930940 0.431040 0.000110 0.988694
Zn6   Zn    Zn3+2 0.069060 0.569140 0.000070 1.009359
O21   O     O_R   0.948300 0.356760 0.908530 -0.618186
O22   O     O_R   0.051730 0.460180 0.908500 -0.629831
O23   O     O_R   0.856660 0.448370 0.908490 -0.625908
O24   O     O_R   0.960090 0.551790 0.908450 -0.630729
C37   C     C_R   0.999777 0.379823 0.879580 0.877327
C38   C     C_R   0.879652 0.499820 0.879493 0.861508
C39   C     C_R   0.999967 0.821948 0.242152 -0.166528
H16   H     H_    0.000467 0.877756 0.236383 0.150665
C40   C     C_R   0.001101 0.758597 0.178742 -0.180555
H17   H     H_    0.001807 0.765032 0.123543 0.148630
C41   C     C_R   0.999505 0.686353 0.186064 0.001390
C42   C     C_R   0.998192 0.677515 0.256873 -0.115834
H18   H     H_    0.997443 0.621592 0.262533 0.156419
C43   C     C_R   0.999838 0.742238 0.321679 -0.180656
H19   H     H_    0.999515 0.736010 0.377078 0.147116
C44   C     C_R   0.000012 0.813771 0.313626 -0.011585
C45   C     C_R   0.917679 0.169723 0.685212 0.303845
C46   C     C_R   0.919674 0.236043 0.749261 -0.229483
H20   H     H_    0.859809 0.227185 0.750378 0.193049
C47   C     C_R   0.998750 0.313337 0.812556 -0.078386
C48   C     C_R   0.076698 0.326050 0.812800 -0.169927
H21   H     H_    0.138055 0.385909 0.862209 0.159447
C49   C     C_R   0.075869 0.260413 0.750021 -0.230478
H22   H     H_    0.136451 0.270350 0.750140 0.158326
C50   C     C_R   0.996942 0.183053 0.686314 -0.138964
C51   C     C_2   0.798483 0.554032 0.634263 0.356926
H23   H     H_    0.858141 0.558701 0.634811 0.073304
O25   O     O_2   0.756485 0.574836 0.588407 -0.597842
N1    N     N_R   0.836193 0.089345 0.622099 0.216192
O26   O     O_R   0.833922 0.014599 0.598048 -0.398351
O27   O     O_R   0.762656 0.089853 0.597697 -0.353873
N2    N     N_R   0.755169 0.831797 0.708692 0.246366
O28   O     O_R   0.723117 0.876090 0.682494 -0.321409
O29   O     O_R   0.742678 0.814958 0.766869 -0.370483
N3    N     N_R   0.253143 0.663750 0.285377 0.209897
O30   O     O_R   0.180694 0.666182 0.264513 -0.414113
O31   O     O_R   0.327183 0.737111 0.333699 -0.357997

loop_
_geom_bond_atom_site_label_1
_geom_bond_atom_site_label_2
_geom_bond_distance
_ccdc_geom_bond_type
C28   C29   1.378945 A    
Zn4   O14   2.014917 S    
C21   C22   1.397161 A    
C8    H2    1.083510 S    
C12   H5    1.112751 S    
C4    C24   1.429940 S    
C15   C36   1.429438 S    
N3    O31   1.301450 A    
C47   C48   1.394582 A    
C20   C21   1.397131 A    
C29   H15   1.084375 S    
Zn1   O7    2.016527 S    
O12   Zn4   2.016435 S    
O13   C33   1.277077 A    
C21   C34   1.429889 S    
C13   H6    1.083689 S    
C8    C9    1.408018 A    
C31   C44   1.428655 S    
C39   C40   1.381848 A    
N2    O29   1.300356 A    
C14   H7    1.084148 S    
O7    C4    1.277530 A    
C40   C41   1.396965 A    
O15   C34   1.278257 A    
N1    O26   1.300490 A    
C5    C6    1.381174 A    
O22   C37   1.278712 A    
C17   H8    1.084038 S    
C11   H4    1.111827 S    
O5    C3    1.276206 A    
C49   H22   1.084226 S    
Zn3   O13   2.014567 S    
C35   C41   1.429150 S    
C5    C10   1.341313 A    
C46   H20   1.084077 S    
C6    C7    1.407264 A    
O20   Zn6   2.016935 S    
C11   C12   1.544492 S    
C33   C50   1.428421 S    
C42   C43   1.381909 A    
C9    C32   1.416940 S    
C43   H19   1.083775 S    
Zn6   O22   2.015141 S    
C9    C10   1.381732 A    
O19   C36   1.277150 A    
C22   C23   1.382356 A    
O3    Zn1   2.015483 S    
N3    O30   1.300488 A    
O24   C38   1.278519 A    
C23   C24   1.397145 A    
C27   C38   1.434489 S    
O10   Zn4   2.014352 S    
C29   C30   1.396970 A    
Zn4   O16   2.015653 S    
O11   C32   1.276003 A    
C25   C51   1.487135 S    
O20   C36   1.277317 A    
Zn3   O15   2.016479 S    
C28   H14   1.083537 S    
C16   C17   1.387991 A    
C39   H16   1.083797 S    
O3    C2    1.274928 A    
C20   H10   1.083780 S    
C40   H17   1.083774 S    
C7    C8    1.400923 A    
C27   C28   1.394667 A    
O12   C32   1.275075 A    
O1    C1    1.277955 A    
C19   H9    1.083782 S    
C43   C44   1.396899 A    
O21   C37   1.278132 A    
C25   C26   1.386731 A    
Zn6   O24   2.016147 S    
Zn2   O8    2.015482 S    
O14   C33   1.277239 A    
C49   C50   1.397087 A    
C7    H1    1.083505 S    
C51   O25   1.218876 D    
C16   N3    1.439100 S    
C45   C50   1.410415 A    
C5    C12   1.491326 S    
O8    C4    1.277489 A    
C48   C49   1.379236 A    
O17   Zn5   2.015144 S    
O19   Zn5   2.016062 S    
O9    Zn3   2.014704 S    
C22   H11   1.083781 S    
O18   Zn6   2.014055 S    
C23   H12   1.083782 S    
C25   C30   1.413769 A    
Zn1   O5    2.016228 S    
C45   N1    1.439429 S    
O11   Zn3   2.015566 S    
O1    Zn1   2.016718 S    
O2    Zn2   2.016227 S    
C12   N2    1.463017 S    
Zn5   O23   2.016933 S    
Zn5   O21   2.014054 S    
O6    C3    1.275689 A    
O4    Zn2   2.016527 S    
C46   C47   1.396614 A    
C15   C16   1.410387 A    
C13   C14   1.379485 A    
O2    C1    1.278036 A    
C42   H18   1.083789 S    
O18   C35   1.278015 A    
C19   C20   1.382349 A    
N2    O28   1.302483 A    
C14   C15   1.397119 A    
O10   C31   1.277881 A    
O4    C2    1.274019 A    
N1    O27   1.301455 A    
C1    C18   1.431986 S    
C26   H13   1.084932 S    
C26   C27   1.397344 A    
O23   C38   1.279941 A    
C37   C47   1.431466 S    
O9    C31   1.278006 A    
C17   C18   1.396523 A    
C39   C44   1.396936 A    
C11   H3    1.111229 S    
C45   C46   1.387773 A    
C2    C6    1.415672 S    
C41   C42   1.397186 A    
C13   C18   1.394763 A    
Zn2   O6    2.016721 S    
C48   H21   1.083648 S    
C51   H23   1.085788 S    
C10   C11   1.491277 S    
O17   C35   1.277760 A    
O16   C34   1.278241 A    
C19   C24   1.397189 A    
C3    C30   1.427214 S    
