data_mof_unit_56274.cif
_audit_creation_date              2012-12-10T17:03:59-0500
_audit_creation_method            fapswitch 2.2
_symmetry_space_group_name_H-M    P1
_symmetry_Int_Tables_number       1
_space_group_crystal_system       triclinic
_cell_length_a                    18.951457
_cell_length_b                    18.481829
_cell_length_c                    18.671833
_cell_angle_alpha                 108.721275
_cell_angle_beta                  109.814737
_cell_angle_gamma                 108.951138
_cell_volume                      5090.82003

loop_
_atom_site_label
_atom_site_type_symbol
_atom_type_description
_atom_site_fract_x
_atom_site_fract_y
_atom_site_fract_z
_atom_type_partial_charge
C1    C     C_R   0.999308 0.120148 0.619448 0.933833
C2    C     C_R   0.179968 0.180564 0.416189 -0.037061
C3    C     C_R   0.315153 0.316818 0.504468 -0.164626
C4    C     C_R   0.319402 0.322631 0.584516 -0.019999
C5    C     C_R   0.247076 0.260519 0.577731 0.031950
C6    C     C_R   0.183370 0.185619 0.495624 -0.164975
C7    C     C_R   0.389431 0.388847 0.671158 -0.004816
C8    C     C_R   0.378705 0.399025 0.743880 -0.240092
C9    C     C_R   0.304029 0.342518 0.735592 0.003454
C10   C     C_R   0.239497 0.273634 0.653546 -0.065940
C11   C     C_R   0.866752 0.080052 0.670082 -0.210820
C12   C     C_R   0.119024 0.117227 0.495991 0.821246
C13   C     C_R   0.813826 0.058271 0.705608 0.018211
C14   C     C_R   0.846300 0.109845 0.795997 -0.039847
C15   C     C_R   0.924862 0.189956 0.844062 -0.091662
C16   C     C_R   0.960539 0.221796 0.797647 0.008166
C17   C     C_R   0.942146 0.160866 0.717260 0.004563
C18   C     C_R   0.996193 0.185468 0.683536 -0.187919
C19   C     C_R   0.050421 0.273597 0.714273 0.545649
C20   C     C_R   0.057450 0.336392 0.785128 -0.191810
C21   C     C_R   0.011526 0.311649 0.825964 -0.209476
C22   C     C_R   0.807380 0.692708 0.378384 0.606030
C23   C     C_R   0.999339 0.878540 0.380244 1.009605
C24   C     C_R   0.752333 0.612256 0.301097 -0.171500
C25   C     C_R   0.669680 0.561041 0.282093 -0.285187
C26   C     C_R   0.643438 0.585894 0.342681 -0.058525
C27   C     C_R   0.699077 0.664729 0.423111 -0.015146
C28   C     C_R   0.775812 0.723489 0.433802 -0.122262
C29   C     C_R   0.820673 0.809766 0.502356 -0.279278
C30   C     C_R   0.804778 0.831760 0.572055 0.365034
C31   C     C_R   0.733859 0.771450 0.566853 0.430993
C32   C     C_R   0.681246 0.687241 0.493095 -0.243894
C33   C     C_R   0.160123 0.893379 0.384271 -0.289717
C34   C     C_R   0.881491 0.879050 0.500552 1.053251
C35   C     C_R   0.229506 0.923024 0.371408 -0.290899
C36   C     C_R   0.217245 0.892380 0.287219 0.459194
C37   C     C_R   0.138674 0.817545 0.216850 0.462602
C38   C     C_R   0.072173 0.778206 0.234389 -0.023808
C39   C     C_R   0.078228 0.827091 0.313282 -0.061848
C40   C     C_R   0.000677 0.812635 0.314447 -0.134777
C41   C     C_R   0.921527 0.742041 0.243586 0.547399
C42   C     C_R   0.922238 0.677420 0.180922 -0.346772
C43   C     C_R   0.997312 0.694032 0.176623 -0.118216
C44   C     C_R   0.619882 0.498498 0.619557 0.865061
C45   C     C_R   0.118656 0.107417 0.330304 -0.042368
C46   C     C_R   0.382903 0.380464 0.503518 0.811819
C47   C     C_R   0.378916 0.499293 0.380567 0.924432
C48   C     C_R   0.616625 0.620657 0.496146 0.968757
C49   C     C_R   0.881151 0.491904 0.871566 0.930566
C50   C     C_R   0.005158 0.379421 0.885480 0.922828
C51   C     C_R   0.119069 0.501915 0.122888 0.860021
C52   C     C_R   0.998168 0.621724 0.116933 0.919629
C53   C     C_R   0.796938 0.614206 0.684453 -0.289185
C54   C     C_R   0.880049 0.656999 0.698437 0.611231
C55   C     C_R   0.940371 0.633227 0.734234 -0.327616
C56   C     C_R   0.106757 0.117929 0.255377 -0.090735
C57   C     C_R   0.918290 0.566591 0.755742 -0.039659
C58   C     C_R   0.837679 0.531500 0.752856 0.101728
C59   C     C_R   0.773805 0.548515 0.708265 -0.012970
C60   C     C_R   0.687225 0.493416 0.681108 -0.093163
C61   C     C_R   0.665590 0.417131 0.690550 -0.033029
C62   C     C_R   0.730409 0.411314 0.749082 -0.086341
C63   C     C_R   0.816450 0.476790 0.789109 -0.177013
C64   C     C_R   0.218462 0.461394 0.379971 -0.354838
C65   C     C_R   0.143444 0.449319 0.384178 -0.041498
C66   C     C_R   0.082822 0.461156 0.327387 0.580120
C67   C     C_R   0.157085 0.199449 0.265721 -0.076896
C68   C     C_R   0.098293 0.483791 0.267235 -0.319815
C69   C     C_R   0.170689 0.489162 0.258228 0.057551
C70   C     C_R   0.233830 0.482975 0.318514 0.113295
C71   C     C_R   0.311395 0.499720 0.316395 -0.051375
C72   C     C_R   0.325603 0.520676 0.254728 0.003941
C73   C     C_R   0.259769 0.517591 0.190752 -0.281575
C74   C     C_R   0.183481 0.502896 0.192220 -0.062344
C75   C     C_R   0.224873 0.264675 0.348318 -0.140941
C76   C     C_R   0.240400 0.254037 0.422978 0.041528
H1    H     H_    0.845275 0.037090 0.602889 0.153586
H2    H     H_    0.097220 0.404577 0.806264 0.181364
H3    H     H_    0.773402 0.589395 0.255543 0.170902
H4    H     H_    0.626626 0.500266 0.221414 0.167890
H5    H     H_    0.578608 0.542867 0.323853 0.203462
H6    H     H_    0.171835 0.926495 0.449501 0.210220
H7    H     H_    0.290872 0.976792 0.425883 0.196183
H8    H     H_    0.863761 0.615777 0.134028 0.174039
H9    H     H_    0.750208 0.630343 0.651714 0.131444
H10   H     H_    0.002554 0.662431 0.738872 0.149727
H11   H     H_    0.264590 0.453607 0.425593 0.153389
H12   H     H_    0.053738 0.499104 0.229736 0.178702
H13   H     H_    0.269382 0.530018 0.140868 0.156982
H14   H     H_    0.265353 0.325041 0.353753 0.176025
H15   H     H_    0.430698 0.449465 0.808766 0.176883
H16   H     H_    0.182509 0.231099 0.650071 0.222805
O1    O     O_R   0.051710 0.091600 0.643330 -0.607204
O2    O     O_R   0.591640 0.448340 0.539940 -0.571280
O3    O     O_R   0.408370 0.460150 0.551730 -0.641562
O4    O     O_R   0.408410 0.356720 0.448320 -0.589503
O5    O     O_R   0.408360 0.551760 0.460120 -0.618685
O6    O     O_R   0.408400 0.448330 0.356700 -0.610225
O7    O     O_R   0.591600 0.643380 0.551740 -0.564785
O8    O     O_R   0.591640 0.539950 0.448320 -0.654577
O9    O     O_R   0.960070 0.551730 0.908390 -0.613817
O10   O     O_R   0.856640 0.448280 0.908400 -0.627591
O11   O     O_R   0.051720 0.460120 0.908370 -0.614541
O12   O     O_R   0.948270 0.091620 0.539910 -0.642894
O13   O     O_R   0.948290 0.356670 0.908380 -0.643203
O14   O     O_R   0.143340 0.551720 0.091580 -0.641245
O15   O     O_R   0.039910 0.448270 0.091590 -0.626694
O16   O     O_R   0.051690 0.643330 0.091600 -0.594314
O17   O     O_R   0.948270 0.539880 0.091610 -0.632494
O18   O     O_R   0.143340 0.091610 0.551710 -0.633692
O19   O     O_R   0.039890 0.091630 0.448290 -0.608051
O20   O     O_R   0.051730 0.908380 0.460090 -0.654758
O21   O     O_R   0.948290 0.908400 0.356670 -0.562565
O22   O     O_R   0.960110 0.908370 0.551710 -0.623321
O23   O     O_R   0.856660 0.908390 0.448290 -0.627279
O24   O     O_R   0.591600 0.551770 0.643360 -0.610369
Zn1   Zn    Zn3+2 0.069070 0.999990 0.569050 0.977410
Zn2   Zn    Zn3+2 0.930930 0.000010 0.430950 1.017111
Zn3   Zn    Zn3+2 0.499980 0.569110 0.569080 1.044813
Zn4   Zn    Zn3+2 0.500030 0.430990 0.430980 1.019033
Zn5   Zn    Zn3+2 0.069050 0.569070 0.999980 0.938716
Zn6   Zn    Zn3+2 0.930930 0.430930 0.000000 0.973285
C77   C     C_2   0.296594 0.353818 0.814461 0.437558
H17   H     H_    0.345761 0.411161 0.876848 0.043871
O25   O     O_2   0.236574 0.298988 0.811266 -0.560385
C78   C     C_2   0.725666 0.982708 0.645093 0.563325
H18   H     H_    0.710359 0.936421 0.581527 0.074103
O26   O     O_2   0.668048 0.973518 0.662743 -0.525008
C79   C     C_2   0.799320 0.081939 0.839951 0.570245
H19   H     H_    0.795702 0.129862 0.888512 0.077919
O27   O     O_2   0.766742 0.006030 0.824509 -0.540732
C80   C     C_2   0.978610 0.233460 0.941033 0.446968
H20   H     H_    0.041707 0.290086 0.974093 0.075332
O28   O     O_2   0.955701 0.205789 0.984950 -0.605062
O29   O     O_3   0.853195 0.915457 0.642058 -0.647888
C81   C     C_3   0.931856 0.927712 0.701415 -0.231358
H21   H     H_    0.947951 0.875375 0.676921 0.190485
H22   H     H_    0.931178 0.933686 0.762145 0.176422
H23   H     H_    0.984412 0.990440 0.718820 0.197082
O30   O     O_3   0.892700 0.740517 0.402605 -0.616819
C82   C     C_3   0.934094 0.689516 0.407479 -0.329256
H24   H     H_    0.920931 0.646447 0.341924 0.180634
H25   H     H_    0.915816 0.649836 0.438577 0.148172
H26   H     H_    0.004404 0.734144 0.447854 0.207472
C83   C     C_2   0.074600 0.018689 0.317824 0.508621
H27   H     H_    0.107818 0.001353 0.363067 -0.001406
O31   O     O_2   0.001313 0.965495 0.258735 -0.548516
O32   O     O_3   0.709536 0.798799 0.628368 -0.561673
C84   C     C_3   0.761604 0.804142 0.706941 -0.147340
H28   H     H_    0.792165 0.871505 0.760654 0.221758
H29   H     H_    0.813175 0.787821 0.707461 0.146630
H30   H     H_    0.720376 0.759146 0.721092 0.179977
O33   O     O_3   0.845343 0.732141 0.242217 -0.603836
C85   C     C_3   0.791630 0.730593 0.167143 -0.242497
H31   H     H_    0.763846 0.667686 0.107901 0.154722
H32   H     H_    0.825978 0.786787 0.159492 0.199088
H33   H     H_    0.737425 0.736183 0.173905 0.188772
O34   O     O_3   0.281894 0.936531 0.274089 -0.625093
C86   C     C_3   0.279550 0.012628 0.275825 -0.260479
H34   H     H_    0.295863 0.059762 0.341436 0.170347
H35   H     H_    0.215897 0.996494 0.225827 0.205917
H36   H     H_    0.328273 0.045446 0.260467 0.196900
O35   O     O_3   0.116621 0.798661 0.131274 -0.577485
C87   C     C_3   0.179963 0.790574 0.110616 -0.097621
H37   H     H_    0.219150 0.769890 0.150465 0.135958
H38   H     H_    0.221631 0.852438 0.115814 0.177576
H39   H     H_    0.147268 0.739727 0.041588 0.147735
C88   C     C_2   0.578183 0.339645 0.634056 0.375897
H40   H     H_    0.542661 0.313257 0.662692 0.114057
O36   O     O_2   0.546184 0.303062 0.555025 -0.543571
O37   O     O_3   0.901305 0.719755 0.673318 -0.646987
C89   C     C_3   0.893059 0.679922 0.590542 -0.379989
H41   H     H_    0.825034 0.630597 0.540576 0.178143
H42   H     H_    0.935070 0.649541 0.590659 0.180688
H43   H     H_    0.913962 0.731055 0.572145 0.209855
C90   C     C_2   0.045190 0.043600 0.165780 0.454865
H44   H     H_    0.994989 0.048366 0.120875 0.057801
O38   O     O_2   0.052174 0.977925 0.140805 -0.532693
C91   C     C_2   0.973392 0.524742 0.763214 0.464350
H45   H     H_    0.040582 0.561918 0.783115 0.036467
O39   O     O_2   0.943358 0.447340 0.742936 -0.601535
C92   C     C_2   0.710791 0.331969 0.760212 0.464135
H46   H     H_    0.754269 0.305055 0.764793 0.088512
O40   O     O_2   0.648664 0.298389 0.767912 -0.584963
C93   C     C_2   0.409702 0.552119 0.257935 0.378418
H47   H     H_    0.412444 0.537394 0.198094 0.064423
O41   O     O_2   0.476311 0.599864 0.327447 -0.601705
C94   C     C_2   0.131336 0.424960 0.449265 0.427855
H48   H     H_    0.180081 0.416656 0.491768 0.053429
O42   O     O_2   0.067362 0.413374 0.456286 -0.538187
O43   O     O_3   0.011784 0.457320 0.335126 -0.578118
C95   C     C_3   0.937507 0.381838 0.262033 -0.231391
H49   H     H_    0.882012 0.374733 0.272625 0.191382
H50   H     H_    0.942903 0.321689 0.253291 0.169065
H51   H     H_    0.923514 0.387584 0.201868 0.146677
C96   C     C_2   0.144239 0.215674 0.190110 0.410140
H52   H     H_    0.092795 0.165894 0.124891 0.076904
O44   O     O_2   0.191314 0.285519 0.199621 -0.572493
C97   C     C_2   0.477695 0.442509 0.691776 0.477756
H53   H     H_    0.498274 0.420543 0.646647 0.020428
O45   O     O_2   0.528594 0.511062 0.759917 -0.570388
O46   O     O_3   0.096368 0.298603 0.674845 -0.643380
C98   C     C_3   0.050734 0.320376 0.615875 -0.276090
H54   H     H_    0.046610 0.379052 0.650420 0.184718
H55   H     H_    0.985354 0.264454 0.565832 0.180106
H56   H     H_    0.085901 0.336357 0.581393 0.213513

loop_
_geom_bond_atom_site_label_1
_geom_bond_atom_site_label_2
_ccdc_geom_bond_type
C8    C9    A    
C66   C68   A    
C98   H54   S    
C40   C41   A    
C16   C21   A    
C49   C63   S    
C25   H4    S    
C77   H17   S    
C73   C74   A    
C77   O25   D    
C35   C36   A    
C51   C74   S    
O16   Zn5   S    
O37   C89   S    
C12   O18   A    
C83   H27   S    
C53   C59   A    
O29   C81   S    
C53   C54   A    
C79   O27   D    
C23   O20   A    
C98   H55   S    
C1    C18   S    
C33   C39   A    
C47   O6    A    
C56   C90   S    
O19   Zn2   S    
C45   C83   S    
C36   C37   A    
C84   H29   S    
C49   O9    A    
C30   C31   A    
O17   Zn6   S    
C93   O41   D    
C62   C92   S    
C51   O15   A    
C23   C40   S    
C22   O30   S    
C94   O42   D    
C18   C19   A    
C41   C42   A    
C92   H46   S    
C11   H1    S    
C75   H14   S    
C33   C35   A    
O35   C87   S    
O2    Zn4   S    
C11   C17   A    
C46   O3    A    
C86   H34   S    
C45   C56   A    
C16   C17   A    
C50   O13   A    
C86   H35   S    
C70   C71   A    
O8    Zn4   S    
C64   C70   A    
C29   C30   A    
C33   H6    S    
C64   H11   S    
C85   H32   S    
C61   C62   A    
C89   H43   S    
C36   O34   S    
C37   O35   S    
C25   C26   A    
C88   O36   D    
C65   C94   S    
C10   H16   S    
C97   H53   S    
O33   C85   S    
C22   C28   A    
C13   C14   A    
C72   C73   A    
C32   C48   S    
C87   H37   S    
C51   O14   A    
C2    C6    A    
O1    Zn1   S    
C81   H23   S    
O18   Zn1   S    
C5    C10   A    
C21   C50   S    
C83   O31   D    
C89   H42   S    
O12   Zn2   S    
C2    C45   A    
C38   C39   A    
C48   O8    A    
C98   H56   S    
O46   C98   S    
C15   C80   S    
O43   C95   S    
C95   H51   S    
C88   H40   S    
C7    C8    A    
C42   H8    S    
C24   C25   A    
C85   H33   S    
C96   O44   D    
C82   H26   S    
C39   C40   A    
C57   C91   S    
C35   H7    S    
C68   C69   A    
O3    Zn3   S    
C34   O23   A    
C29   C34   S    
C19   O46   S    
O9    Zn5   S    
C3    C4    A    
C91   H45   S    
C60   C61   A    
C95   H50   S    
O5    Zn3   S    
C75   C76   A    
C59   C60   A    
C37   C38   A    
C23   O21   A    
C24   H3    S    
C31   C32   A    
O23   Zn2   S    
C66   O43   S    
C62   C63   A    
C17   C18   A    
C26   C27   A    
C86   H36   S    
C69   C74   A    
C8    H15   S    
O30   C82   S    
C3    C76   A    
C1    O12   A    
C47   C71   S    
C85   H31   S    
C31   O32   S    
C80   O28   D    
C90   H44   S    
C65   C66   A    
C26   H5    S    
C55   C57   A    
O34   C86   S    
C68   H12   S    
C22   C24   A    
C84   H30   S    
C67   C75   A    
C42   C43   A    
C13   C78   S    
C67   C96   S    
O11   Zn5   S    
C49   O10   A    
C2    C76   A    
C89   H41   S    
C81   H22   S    
C79   H19   S    
C9    C10   A    
C58   C63   A    
C48   O7    A    
C54   C55   A    
C28   C29   A    
C78   O26   D    
C41   O33   S    
C27   C32   A    
C54   O37   S    
O4    Zn4   S    
C87   H39   S    
C96   H52   S    
O6    Zn4   S    
C34   O22   A    
C56   C67   A    
C19   C20   A    
C3    C46   S    
C47   O5    A    
O24   Zn3   S    
C20   H2    S    
O20   Zn1   S    
C61   C88   S    
C64   C65   A    
C55   H10   S    
C82   H25   S    
C58   C59   A    
C73   H13   S    
C38   C43   A    
O10   Zn6   S    
C84   H28   S    
C95   H49   S    
C6    C12   S    
C11   C13   A    
C93   H47   S    
C5    C6    A    
C52   O17   A    
C44   C60   S    
C78   H18   S    
C4    C5    A    
O14   Zn5   S    
C87   H38   S    
C9    C77   S    
O13   Zn6   S    
C80   H20   S    
O32   C84   S    
C7    C97   S    
C69   C70   A    
C43   C52   S    
C92   O40   D    
C72   C93   S    
O22   Zn1   S    
C44   O2    A    
O7    Zn3   S    
O21   Zn2   S    
C50   O11   A    
C46   O4    A    
C20   C21   A    
C44   O24   A    
C4    C7    A    
C1    O1    A    
C30   O29   S    
C27   C28   A    
C97   O45   D    
C14   C15   A    
C94   H48   S    
C52   O16   A    
C53   H9    S    
O15   Zn6   S    
C71   C72   A    
C57   C58   A    
C82   H24   S    
C12   O19   A    
C81   H21   S    
C15   C16   A    
C90   O38   D    
C91   O39   D    
C14   C79   S    
