data_mof_unit_19325.cif
_audit_creation_date              2012-12-11T14:49:42-0500
_audit_creation_method            fapswitch 2.2
_symmetry_space_group_name_H-M    P1
_symmetry_Int_Tables_number       1
_space_group_crystal_system       triclinic
_cell_length_a                    11.001787
_cell_length_b                    10.989895
_cell_length_c                    18.809699
_cell_angle_alpha                 90.001987
_cell_angle_beta                  90.000063
_cell_angle_gamma                 119.987137
_cell_volume                      1969.8154062

loop_
_atom_site_label
_atom_site_type_symbol
_atom_type_description
_atom_site_fract_x
_atom_site_fract_y
_atom_site_fract_z
_atom_type_partial_charge
C1    C     C_R   0.529755 0.470787 0.647081 0.589002
C2    C     C_R   0.463457 0.530223 0.355329 0.631707
C3    C     C_R   0.469850 0.933888 0.144842 0.612831
C4    C     C_R   0.067074 0.536569 0.355394 0.621900
C5    C     C_R   0.393072 0.032947 0.534507 -0.040663
C6    C     C_R   0.637961 0.608804 0.965164 -0.038153
C7    C     C_R   0.967011 0.360153 0.534455 -0.044177
C8    C     C_R   0.393146 0.033038 0.965512 -0.040655
C9    C     C_R   0.637953 0.608799 0.534837 -0.038126
C10   C     C_R   0.966988 0.360171 0.965545 -0.044222
C11   C     C_R   0.970690 0.374996 0.040362 -0.016987
C12   C     C_R   0.940871 0.470020 0.852973 0.593574
C13   C     C_R   0.624136 0.596858 0.459991 -0.013589
C14   C     C_R   0.405191 0.030750 0.040342 -0.015859
C15   C     C_R   0.970728 0.374943 0.459631 -0.017129
C16   C     C_R   0.624138 0.596850 0.040009 -0.013639
C17   C     C_R   0.405166 0.030686 0.459680 -0.015914
C18   C     C_R   0.480160 0.969701 0.430392 -0.031430
C19   C     C_R   0.488682 0.519269 0.069472 -0.030570
C20   C     C_R   0.031716 0.511148 0.430628 -0.023495
C21   C     C_R   0.480187 0.969763 0.069624 -0.031093
C22   C     C_R   0.488688 0.519253 0.430523 -0.030302
C23   C     C_R   0.529279 0.059288 0.646986 0.596921
C24   C     C_R   0.031757 0.511196 0.069364 -0.023376
C25   C     C_R   0.006937 0.481524 0.922298 -0.023250
C26   C     C_R   0.516991 0.524388 0.577723 -0.035359
C27   C     C_R   0.475073 0.993578 0.922454 -0.022777
C28   C     C_R   0.006918 0.481509 0.577696 -0.023399
C29   C     C_R   0.516998 0.524432 0.922271 -0.035242
C30   C     C_R   0.475005 0.993495 0.577567 -0.022642
C31   C     C_R   0.538899 0.910136 0.475238 0.396022
C32   C     C_R   0.370038 0.457086 0.024876 0.388761
C33   C     C_R   0.091759 0.629386 0.475606 0.391046
C34   C     C_R   0.529754 0.470796 0.852918 0.589021
C35   C     C_R   0.538929 0.910214 0.024778 0.396103
C36   C     C_R   0.370037 0.456977 0.475112 0.388798
C37   C     C_R   0.091852 0.629429 0.024388 0.391109
C38   C     C_R   0.082794 0.614086 0.951739 0.419129
C39   C     C_R   0.384519 0.462879 0.547711 0.436739
C40   C     C_R   0.532988 0.919163 0.952182 0.439466
C41   C     C_R   0.082738 0.614062 0.548255 0.419015
C42   C     C_R   0.384525 0.463013 0.952275 0.437032
C43   C     C_R   0.532917 0.919065 0.547837 0.439443
C44   C     C_2   0.291919 0.069870 0.567079 0.685372
C45   C     C_R   0.940863 0.470015 0.647025 0.593543
C46   C     C_2   0.774418 0.714214 0.932800 0.690539
C47   C     C_2   0.926821 0.221128 0.566747 0.708263
C48   C     C_2   0.292098 0.070061 0.932923 0.685673
C49   C     C_2   0.774418 0.714212 0.567206 0.690570
C50   C     C_2   0.926848 0.221128 0.933273 0.707975
C51   C     C_2   0.914946 0.251741 0.089053 0.656374
C52   C     C_2   0.747134 0.667077 0.411466 0.670166
C53   C     C_2   0.338038 0.087612 0.088345 0.658003
C54   C     C_2   0.915114 0.251648 0.410946 0.656507
C55   C     C_2   0.747133 0.667069 0.088537 0.670063
C56   C     C_R   0.529304 0.059320 0.853028 0.596822
C57   C     C_2   0.338052 0.087587 0.411689 0.658150
C58   C     C_R   0.463455 0.530223 0.144670 0.631605
C59   C     C_R   0.469849 0.933886 0.355162 0.612375
C60   C     C_R   0.067087 0.536580 0.144602 0.621705
Cr1   Cr    Cr6+3 0.776430 0.541680 0.750000 1.155917
Cr2   Cr    Cr6+3 0.765250 0.223570 0.750000 1.135668
Cr3   Cr    Cr6+3 0.458320 0.234750 0.750000 1.135705
Cr4   Cr    Cr6+3 0.541680 0.776430 0.250000 1.142439
Cr5   Cr    Cr6+3 0.223570 0.765250 0.250000 1.144440
Cr6   Cr    Cr6+3 0.234750 0.458320 0.250000 1.157277
F1    F     F_    0.603378 0.842540 0.448889 -0.575218
F2    F     F_    0.143662 0.729447 0.590431 -0.564211
F3    F     F_    0.268230 0.401471 0.910836 -0.532071
F4    F     F_    0.591409 0.861773 0.589609 -0.538001
F5    F     F_    0.237980 0.389533 0.051392 -0.579600
F6    F     F_    0.160471 0.761618 0.449306 -0.580630
F7    F     F_    0.603290 0.842546 0.051129 -0.575291
F8    F     F_    0.237972 0.389364 0.448595 -0.579498
F9    F     F_    0.160652 0.761661 0.050692 -0.580941
F10   F     F_    0.143729 0.729457 0.909559 -0.564142
F11   F     F_    0.268212 0.401277 0.589141 -0.532027
F12   F     F_    0.591449 0.861837 0.910412 -0.537985
H1    H     H_    0.148277 0.030566 0.643691 0.341627
H2    H     H_    0.800860 0.157251 0.323439 0.351170
H3    H     H_    0.846075 0.648133 0.174317 0.351529
H4    H     H_    0.160400 0.080989 0.378694 0.374569
H5    H     H_    0.984368 0.821567 0.939551 0.408385
H6    H     H_    0.966000 0.112677 0.641031 0.348313
H7    H     H_    0.148365 0.030730 0.856358 0.341632
H8    H     H_    0.984364 0.821597 0.560460 0.408338
H9    H     H_    0.966049 0.112663 0.858997 0.348250
H10   H     H_    0.800201 0.157317 0.176419 0.351290
H11   H     H_    0.846089 0.648124 0.325695 0.351549
H12   H     H_    0.160548 0.081694 0.121005 0.374919
O1    O     O_R   0.916700 0.566820 0.669930 -0.440065
O2    O     O_R   0.566820 0.916700 0.330070 -0.464165
O3    O     O_R   0.083300 0.650120 0.169930 -0.463666
O4    O     O_R   0.349880 0.433180 0.330070 -0.432582
O5    O     O_R   0.649840 0.534790 0.674920 -0.495960
O6    O     O_R   0.884950 0.350160 0.825080 -0.500247
O7    O     O_R   0.465210 0.115050 0.674920 -0.493307
O8    O     O_R   0.649840 0.534790 0.825080 -0.496002
O9    O     O_R   0.884950 0.350160 0.674920 -0.500304
O10   O     O_R   0.465210 0.115050 0.825080 -0.493321
O11   O     O_R   0.534790 0.649840 0.174920 -0.473068
O12   O     O_R   0.650120 0.083300 0.830070 -0.438997
O13   O     O_R   0.350160 0.884950 0.325080 -0.464334
O14   O     O_R   0.115050 0.465210 0.174920 -0.473668
O15   O     O_R   0.534790 0.649840 0.325080 -0.473174
O16   O     O_R   0.350160 0.884950 0.174920 -0.464175
O17   O     O_R   0.115050 0.465210 0.325080 -0.473639
O18   O     O_3   0.666667 0.333333 0.750000 -0.345897
O19   O     O_3   0.333333 0.666667 0.250000 -0.336655
O20   O     O_2   0.277079 0.164132 0.542308 -0.436522
O21   O     O_R   0.211999 0.995042 0.626043 -0.587597
O22   O     O_2   0.776202 0.784235 0.881855 -0.393076
O23   O     O_R   0.433180 0.349880 0.669930 -0.438696
O24   O     O_R   0.900831 0.737212 0.961506 -0.641097
O25   O     O_2   0.827260 0.114177 0.543560 -0.443451
O26   O     O_R   0.004113 0.212526 0.623583 -0.560252
O27   O     O_2   0.277608 0.164602 0.957580 -0.436888
O28   O     O_R   0.211968 0.995089 0.874042 -0.587584
O29   O     O_2   0.776213 0.784183 0.618175 -0.393131
O30   O     O_R   0.900830 0.737265 0.538483 -0.640946
O31   O     O_2   0.827420 0.114112 0.956541 -0.443316
O32   O     O_R   0.004096 0.212580 0.876385 -0.560245
O33   O     O_2   0.953571 0.165369 0.083507 -0.370274
O34   O     O_R   0.916700 0.566820 0.830070 -0.440087
O35   O     O_R   0.823707 0.239599 0.143857 -0.681255
O36   O     O_2   0.826615 0.794070 0.414579 -0.351616
O37   O     O_R   0.765581 0.587912 0.358878 -0.677838
O38   O     O_2   0.409542 0.177624 0.132043 -0.490705
O39   O     O_R   0.193245 0.035192 0.085214 -0.537773
O40   O     O_2   0.953333 0.165002 0.416747 -0.369948
O41   O     O_R   0.824435 0.239713 0.355889 -0.681237
O42   O     O_2   0.826630 0.794064 0.085418 -0.351746
O43   O     O_R   0.765560 0.587910 0.141136 -0.677862
O44   O     O_2   0.409812 0.178489 0.368394 -0.490722
O45   O     O_R   0.650120 0.083300 0.669930 -0.438944
O46   O     O_R   0.193061 0.034334 0.414426 -0.537450
O47   O     O_R   0.433180 0.349880 0.830070 -0.438639
O48   O     O_R   0.566820 0.916700 0.169930 -0.464262
O49   O     O_R   0.083300 0.650120 0.330070 -0.463544
O50   O     O_R   0.349880 0.433180 0.169930 -0.432750

loop_
_geom_bond_atom_site_label_1
_geom_bond_atom_site_label_2
_ccdc_geom_bond_type
C46   O22   D    
C29   C42   A    
C51   O33   D    
C11   C24   A    
Cr1   O8    S    
C50   O32   S    
Cr6   O17   S    
Cr4   O15   S    
Cr4   O48   S    
C31   F1    S    
C54   O41   S    
C37   C38   A    
C31   C43   A    
Cr1   O34   S    
C39   F11   S    
C14   C21   A    
Cr2   O6    S    
C26   C39   A    
C49   O30   S    
Cr2   O18   S    
C28   C41   A    
C2    O15   A    
Cr1   O18   S    
C9    C13   A    
C33   F6    S    
H12   O39   S    
C2    C22   S    
C57   O46   S    
C41   F2    S    
C24   C60   S    
Cr6   O4    S    
C60   O3    A    
Cr5   O3    S    
C37   F9    S    
H6    O26   S    
H2    O41   S    
C38   F10   S    
Cr3   O47   S    
H5    O24   S    
C15   C20   A    
C50   O31   D    
C1    O23   A    
C45   O1    A    
C19   C32   A    
C52   O37   S    
C9    C26   A    
C24   C37   A    
C32   F5    S    
C19   C58   S    
C32   C42   A    
C47   O26   S    
C54   O40   D    
C4    O17   A    
C28   C45   S    
C46   O24   S    
C51   O35   S    
C23   C30   S    
Cr6   O14   S    
C2    O4    A    
C9    C49   S    
C15   C54   S    
C45   O9    A    
C3    O48   A    
C52   O36   D    
C27   C56   S    
C48   O28   S    
Cr4   O11   S    
Cr3   O10   S    
C55   O43   S    
C6    C16   A    
C29   C34   S    
C42   F3    S    
C7    C28   A    
C7    C47   S    
Cr2   O45   S    
C47   O25   D    
C8    C48   S    
H10   O35   S    
C53   O38   D    
C25   C38   A    
C13   C52   S    
C12   O34   A    
C27   C40   A    
C1    O5    A    
C6    C29   A    
C17   C18   A    
Cr6   O50   S    
C58   O11   A    
Cr5   O19   S    
C36   F8    S    
C20   C33   A    
C10   C25   A    
C23   O7    A    
C5    C44   S    
C43   F4    S    
C1    C26   S    
C40   F12   S    
C57   O44   D    
C3    C21   S    
C53   O39   S    
Cr5   O13   S    
C10   C50   S    
Cr5   O16   S    
C5    C30   A    
H11   O37   S    
C58   O50   A    
C35   F7    S    
C8    C14   A    
C6    C46   S    
C36   C39   A    
H9    O32   S    
Cr1   O5    S    
H3    O43   S    
C48   O27   D    
C21   C35   A    
C4    C20   S    
H1    O21   S    
C22   C36   A    
C34   O47   A    
C23   O45   A    
C12   C25   S    
C33   C41   A    
C3    O16   A    
C16   C55   S    
C59   O13   A    
Cr3   O7    S    
C4    O49   A    
Cr4   O19   S    
C49   O29   D    
C16   C19   A    
C7    C15   A    
C34   O8    A    
C13   C22   A    
C35   C40   A    
C59   O2    A    
Cr6   O19   S    
H4    O46   S    
H7    O28   S    
C30   C43   A    
Cr5   O49   S    
C11   C51   S    
C10   C11   A    
C56   O12   A    
Cr2   O9    S    
Cr3   O23   S    
C44   O21   S    
C18   C59   S    
C14   C53   S    
C5    C17   A    
C55   O42   D    
C8    C27   A    
C56   O10   A    
C12   O6    A    
H8    O30   S    
C18   C31   A    
Cr4   O2    S    
Cr3   O18   S    
C60   O14   A    
Cr1   O1    S    
C17   C57   S    
Cr2   O12   S    
C44   O20   D    
