data_mof_unit_59978.cif
_audit_creation_date              2012-10-26T21:06:33-0400
_audit_creation_method            fapswitch 2.2
_symmetry_space_group_name_H-M    P1
_symmetry_Int_Tables_number       1
_space_group_crystal_system       triclinic
_cell_length_a                    15.86704
_cell_length_b                    10.797851
_cell_length_c                    9.596248
_cell_angle_alpha                 91.081302
_cell_angle_beta                  91.163199
_cell_angle_gamma                 91.973339
_cell_volume                      1642.49576785

loop_
_atom_site_label
_atom_site_type_symbol
_atom_type_description
_atom_site_fract_x
_atom_site_fract_y
_atom_site_fract_z
_atom_type_partial_charge
C1    C     C_R   0.499694 0.262334 0.499119 0.543646
C2    C     C_R   0.551926 0.578989 0.080179 0.029229
C3    C     C_R   0.339940 0.499668 0.498779 0.544868
C4    C     C_R   0.660060 0.500332 0.501221 0.544868
C5    C     C_3   0.970538 0.396382 0.561808 -0.099175
C6    C     C_3   0.029462 0.603618 0.438192 -0.099175
C7    C     C_3   0.024291 0.399113 0.428101 -0.100933
C8    C     C_3   0.975709 0.600887 0.571899 -0.100933
C9    C     C_1   0.250202 0.499606 0.496409 -0.039031
C10   C     C_1   0.749798 0.500394 0.503591 -0.039031
C11   C     C_3   0.030272 0.497124 0.629640 0.028020
C12   C     C_R   0.500305 0.737665 0.500881 0.543646
C13   C     C_3   0.969728 0.502876 0.370360 0.028020
C14   C     C_3   0.082958 0.499817 0.497691 0.051660
C15   C     C_3   0.917042 0.500183 0.502309 0.051660
C16   C     C_1   0.174645 0.499651 0.496179 -0.064755
C17   C     C_1   0.825355 0.500349 0.503821 -0.064756
C18   C     C_R   0.536044 0.063841 0.389098 -0.143589
C19   C     C_R   0.463955 0.936158 0.610901 -0.143589
C20   C     C_3   0.934549 0.506171 0.221978 -0.407749
C21   C     C_3   0.065451 0.493829 0.778022 -0.407749
C22   C     C_3   0.387977 0.322348 0.127908 -0.251250
C23   C     C_R   0.536365 0.935613 0.390120 -0.139201
C24   C     C_3   0.414700 0.190696 0.093187 -0.452559
C25   C     C_3   0.612024 0.677651 0.872092 -0.251251
C26   C     C_3   0.585305 0.809303 0.906814 -0.452560
C27   C     C_R   0.463634 0.064387 0.609880 -0.139200
C28   C     C_R   0.500630 0.871619 0.501388 0.022723
C29   C     C_R   0.499369 0.128381 0.498612 0.022723
C30   C     C_R   0.447859 0.418586 0.067614 0.130593
C31   C     C_R   0.552141 0.581414 0.932386 0.130594
C32   C     C_R   0.448074 0.421011 0.919821 0.029230
Cu1   Cu    Cu3+1 0.500000 0.500020 0.640660 0.919445
Cu2   Cu    Cu3+1 0.500000 0.499980 0.359340 0.919445
H1    H     H_    0.045020 0.317115 0.368066 0.099780
H2    H     H_    0.593557 0.641217 0.141416 0.116454
H3    H     H_    0.987211 0.507652 0.147595 0.122434
H4    H     H_    0.893171 0.422774 0.200393 0.134706
H5    H     H_    0.897381 0.590505 0.208678 0.131137
H6    H     H_    0.012789 0.492348 0.852405 0.122434
H7    H     H_    0.102619 0.409495 0.791322 0.131137
H8    H     H_    0.106829 0.577226 0.799607 0.134706
H9    H     H_    0.403682 0.168192 0.980789 0.125124
H10   H     H_    0.482569 0.180859 0.118766 0.164837
H11   H     H_    0.377269 0.123000 0.154488 0.142482
H12   H     H_    0.954980 0.682884 0.631934 0.099780
H13   H     H_    0.381672 0.330039 0.240487 0.215360
H14   H     H_    0.323541 0.334851 0.083862 0.101466
H15   H     H_    0.517438 0.819147 0.881224 0.164839
H16   H     H_    0.596316 0.831801 0.019215 0.125124
H17   H     H_    0.622743 0.876999 0.845524 0.142480
H18   H     H_    0.676460 0.665144 0.916137 0.101468
H19   H     H_    0.618328 0.669960 0.759513 0.215361
H20   H     H_    0.945607 0.312096 0.613644 0.102133
H21   H     H_    0.054393 0.687904 0.386356 0.102133
H22   H     H_    0.565964 0.112480 0.304732 0.119739
H23   H     H_    0.434034 0.887520 0.695267 0.119738
H24   H     H_    0.565439 0.886609 0.305094 0.115713
H25   H     H_    0.434560 0.113390 0.694905 0.115713
H26   H     H_    0.406443 0.358782 0.858584 0.116454
N1    N     N_R   0.500020 0.500030 0.852070 -0.233277
N2    N     N_R   0.499980 0.499970 0.147930 -0.233277
O1    O     O_R   0.500000 0.319660 0.618740 -0.504449
O2    O     O_R   0.500000 0.680340 0.381260 -0.504449
O3    O     O_R   0.499990 0.319630 0.381170 -0.515683
O4    O     O_R   0.500010 0.680370 0.618830 -0.515683
O5    O     O_R   0.379080 0.500000 0.618760 -0.496860
O6    O     O_R   0.620920 0.500000 0.381240 -0.496861
O7    O     O_R   0.379080 0.499970 0.381190 -0.513037
O8    O     O_R   0.620920 0.500030 0.618810 -0.513038

loop_
_geom_bond_atom_site_label_1
_geom_bond_atom_site_label_2
_ccdc_geom_bond_type
C32   N1    A    
C23   H24   S    
C22   H14   S    
C5    C7    S    
C25   C31   S    
C3    C9    S    
C6    C14   S    
C20   H4    S    
C31   N1    A    
C1    O3    A    
C18   H22   S    
C6    H21   S    
Cu1   O1    S    
Cu1   N1    S    
C26   H16   S    
C4    O8    A    
C22   H13   S    
C25   H18   S    
C18   C29   A    
C27   H25   S    
C26   H17   S    
C19   H23   S    
C6    C13   S    
C30   C32   A    
C20   H3    S    
Cu2   O7    S    
C1    C29   S    
C21   H6    S    
C7    H1    S    
Cu1   O8    S    
C12   C28   S    
C8    C11   S    
C21   H7    S    
C24   H11   S    
C1    O1    A    
Cu2   O3    S    
Cu2   O2    S    
C19   C27   A    
C3    O7    A    
C9    C16   T    
C25   H19   S    
Cu1   O4    S    
C5    C11   S    
C8    C15   S    
C8    H12   S    
C13   C15   S    
C30   N2    A    
C19   C28   A    
C12   O2    A    
C11   C14   S    
C14   C16   S    
C5    C15   S    
C27   C29   A    
C32   H26   S    
C10   C17   T    
Cu2   O6    S    
C18   C23   A    
C2    N2    A    
C5    H20   S    
Cu2   N2    S    
Cu1   Cu2   S    
C24   H10   S    
Cu1   O5    S    
C15   C17   S    
C22   C24   S    
C2    H2    S    
C4    O6    A    
C20   H5    S    
C24   H9    S    
C6    C8    S    
C7    C13   S    
C22   C30   S    
C13   C20   S    
C25   C26   S    
C23   C28   A    
C12   O4    A    
C11   C21   S    
C7    C14   S    
C3    O5    A    
C21   H8    S    
C4    C10   S    
C2    C31   A    
C26   H15   S    
