data_mof_unit_51938.cif
_audit_creation_date              2012-12-10T18:39:53-0500
_audit_creation_method            fapswitch 2.2
_symmetry_space_group_name_H-M    P1
_symmetry_Int_Tables_number       1
_space_group_crystal_system       triclinic
_cell_length_a                    15.126703
_cell_length_b                    13.784642
_cell_length_c                    23.520974
_cell_angle_alpha                 90.002486
_cell_angle_beta                  90.389567
_cell_angle_gamma                 89.999575
_cell_volume                      4904.39040697

loop_
_atom_site_label
_atom_site_type_symbol
_atom_type_description
_atom_site_fract_x
_atom_site_fract_y
_atom_site_fract_z
_atom_type_partial_charge
C1    C     C_R   0.329774 0.500057 0.499953 0.754192
C2    C     C_R   0.670225 0.500056 0.500062 0.754211
C3    C     C_R   0.523662 0.430047 0.234825 0.395185
C4    C     C_R   0.476401 0.429936 0.765170 0.395115
C5    C     C_R   0.527859 0.424243 0.294503 -0.203563
C6    C     C_R   0.472198 0.424166 0.705489 -0.203527
C7    C     C_R   0.493983 0.501368 0.327911 -0.327023
C8    C     C_R   0.505956 0.501377 0.672096 -0.327117
C9    C     C_R   0.454381 0.582208 0.300537 0.341027
C10   C     C_R   0.545394 0.582299 0.699493 0.341431
C11   C     C_R   0.459685 0.591997 0.241591 0.357647
C12   C     C_R   0.540114 0.592009 0.758444 0.357245
C13   C     C_R   0.492267 0.515336 0.208567 0.080579
C14   C     C_R   0.507673 0.515262 0.791447 0.080692
C15   C     C_R   0.095134 0.583904 0.483463 -0.168730
C16   C     C_R   0.904648 0.417303 0.483319 -0.175066
C17   C     C_R   0.904848 0.583841 0.516742 -0.168621
C18   C     C_R   0.095361 0.417262 0.516699 -0.175058
C19   C     C_R   0.186941 0.584066 0.484018 -0.215319
C20   C     C_R   0.812889 0.416945 0.483902 -0.212888
C21   C     C_R   0.813041 0.584004 0.516159 -0.215432
C22   C     C_R   0.187119 0.416905 0.516086 -0.212885
C23   C     C_R   0.233392 0.500334 0.499974 -0.020352
C24   C     C_R   0.766604 0.500328 0.500083 -0.020386
C25   C     C_R   0.048562 0.500621 0.500079 0.113816
C26   C     C_R   0.951433 0.500614 0.500041 0.113757
C27   C     C_R   0.499166 0.500011 0.390741 0.870364
C28   C     C_R   0.500819 0.500015 0.609261 0.870250
C29   C     C_R   0.553179 0.106577 0.538050 -0.392396
C30   C     C_R   0.546517 0.893815 0.458943 -0.385876
C31   C     C_R   0.446832 0.106574 0.461940 -0.392473
C32   C     C_R   0.453494 0.893827 0.541053 -0.386203
C33   C     C_R   0.555054 0.209479 0.536455 0.597131
C34   C     C_R   0.549091 0.790963 0.460658 0.589226
C35   C     C_R   0.444955 0.209477 0.463539 0.597056
C36   C     C_R   0.450911 0.790966 0.539343 0.589321
C37   C     C_R   0.500005 0.054480 0.499995 0.067340
C38   C     C_R   0.500003 0.945962 0.499996 0.062776
C39   C     C_R   0.583958 0.525644 0.881954 0.550280
C40   C     C_R   0.415966 0.525638 0.118059 0.550353
C41   C     C_R   0.426277 0.532101 0.878876 0.576886
C42   C     C_R   0.573641 0.532261 0.121136 0.576853
C43   C     C_R   0.422556 0.536647 0.938228 -0.042666
C44   C     C_R   0.577358 0.536772 0.061783 -0.042615
C45   C     C_R   0.501768 0.537231 0.969981 -0.030519
C46   C     C_R   0.498146 0.537252 0.030030 -0.030496
C47   C     C_R   0.584352 0.536353 0.941759 -0.079978
C48   C     C_R   0.415563 0.536310 0.058253 -0.079996
C49   C     C_R   0.341166 0.541272 0.966076 -0.216407
C50   C     C_R   0.658744 0.541459 0.033934 -0.216408
C51   C     C_R   0.336446 0.542828 0.025415 -0.011324
C52   C     C_R   0.663463 0.542975 0.974595 -0.011320
Cu1   Cu    Cu3+1 0.500000 0.596430 0.500000 1.012575
Cu2   Cu    Cu3+1 0.500000 0.403570 0.500000 1.008321
H1    H     H_    0.280275 0.544909 0.941559 0.183368
H2    H     H_    0.719632 0.545175 0.058450 0.183367
H3    H     H_    0.060731 0.648576 0.469426 0.122383
H4    H     H_    0.938832 0.352715 0.469225 0.121626
H5    H     H_    0.939241 0.648469 0.530862 0.122454
H6    H     H_    0.061187 0.352630 0.530729 0.121624
H7    H     H_    0.221432 0.649296 0.471332 0.130102
H8    H     H_    0.778151 0.351772 0.471246 0.136387
H9    H     H_    0.778536 0.649189 0.528913 0.130037
H10   H     H_    0.221864 0.351695 0.528664 0.136345
H11   H     H_    0.593111 0.067172 0.568581 0.157061
H12   H     H_    0.581547 0.933053 0.426236 0.154164
H13   H     H_    0.406905 0.067167 0.431406 0.157091
H14   H     H_    0.418487 0.933092 0.573761 0.154163
N1    N     N_R   0.505885 0.524789 0.852223 -0.429617
N2    N     N_R   0.494040 0.524883 0.147791 -0.429672
N3    N     N_R   0.500000 0.258690 0.500000 -0.230363
N4    N     N_R   0.500000 0.741310 0.500000 -0.242635
O1    O     O_R   0.371460 0.581430 0.500000 -0.588870
O2    O     O_R   0.628540 0.418570 0.500000 -0.568959
O3    O     O_R   0.628540 0.581430 0.500000 -0.589111
O4    O     O_R   0.371460 0.418570 0.500000 -0.569034
O5    O     O_R   0.499970 0.581450 0.417880 -0.504536
O6    O     O_R   0.500030 0.418550 0.582120 -0.547376
O7    O     O_R   0.500030 0.581450 0.582120 -0.504497
O8    O     O_R   0.499970 0.418550 0.417880 -0.547365
O9    O     O_2   0.660128 0.512151 0.853573 -0.544188
O10   O     O_2   0.339808 0.512071 0.146441 -0.544130
O11   O     O_2   0.350883 0.534165 0.847850 -0.543207
O12   O     O_2   0.649035 0.534419 0.152160 -0.543160
O13   O     O_3   0.605106 0.262507 0.575111 -0.583390
C53   C     C_3   0.694379 0.231708 0.577555 0.037076
H15   H     H_    0.736511 0.296381 0.570319 0.173417
H16   H     H_    0.713065 0.177911 0.544252 0.113678
C54   C     C_3   0.715507 0.192600 0.636983 -0.362558
H17   H     H_    0.703755 0.250625 0.668883 0.220914
H18   H     H_    0.671356 0.130648 0.646996 0.207313
C55   C     C_3   0.811472 0.159308 0.641543 -0.914089
H19   H     H_    0.824250 0.099667 0.610914 0.251121
H20   H     H_    0.824931 0.132260 0.685216 0.257603
H21   H     H_    0.856924 0.220687 0.632639 0.256367
O14   O     O_3   0.594353 0.738869 0.419722 -0.567494
C56   C     C_3   0.684218 0.766997 0.416122 0.039994
H22   H     H_    0.725227 0.701068 0.422759 0.174544
H23   H     H_    0.706005 0.820373 0.449074 0.108398
C57   C     C_3   0.702649 0.806333 0.356552 -0.352625
H24   H     H_    0.685491 0.750062 0.324451 0.234129
H25   H     H_    0.660914 0.871115 0.348265 0.214884
C58   C     C_3   0.799585 0.834327 0.349915 -0.920547
H26   H     H_    0.817596 0.892227 0.380738 0.250253
H27   H     H_    0.810739 0.861955 0.306202 0.259639
H28   H     H_    0.842752 0.770218 0.357085 0.259187
O15   O     O_3   0.394918 0.262502 0.424875 -0.583415
C59   C     C_3   0.305646 0.231709 0.422415 0.037004
H29   H     H_    0.263514 0.296386 0.429643 0.173378
H30   H     H_    0.286943 0.177916 0.455712 0.113680
C60   C     C_3   0.284541 0.192599 0.362982 -0.362550
H31   H     H_    0.296338 0.250610 0.331083 0.220909
H32   H     H_    0.328673 0.130621 0.352983 0.207331
C61   C     C_3   0.188564 0.159356 0.358396 -0.914055
H33   H     H_    0.175736 0.099738 0.389028 0.251129
H34   H     H_    0.175126 0.132295 0.314722 0.257615
H35   H     H_    0.143132 0.220765 0.367279 0.256337
O16   O     O_3   0.405684 0.738845 0.580286 -0.567163
C62   C     C_3   0.315917 0.767234 0.584131 0.040007
H36   H     H_    0.274710 0.701429 0.577572 0.174347
H37   H     H_    0.294052 0.820688 0.551249 0.108406
C63   C     C_3   0.297966 0.806556 0.643770 -0.352489
H38   H     H_    0.315140 0.750171 0.675798 0.234159
H39   H     H_    0.339957 0.871162 0.651997 0.214945
C64   C     C_3   0.201165 0.834916 0.650665 -0.920755
H40   H     H_    0.183160 0.892938 0.619921 0.250311
H41   H     H_    0.190362 0.862514 0.694423 0.259617
H42   H     H_    0.157751 0.770987 0.643560 0.259208
C65   C     C_R   0.247757 0.557022 0.050503 0.169356
C66   C     C_R   0.228985 0.641481 0.081662 -0.063718
C67   C     C_R   0.144541 0.656137 0.103908 -0.134587
C68   C     C_R   0.078055 0.587422 0.094549 -0.102870
C69   C     C_R   0.095899 0.503898 0.062943 -0.132381
C70   C     C_R   0.180380 0.488690 0.040863 -0.148100
H43   H     H_    0.279793 0.695612 0.088763 0.124866
H44   H     H_    0.130547 0.720959 0.128206 0.127800
H45   H     H_    0.012639 0.599042 0.111622 0.132457
H46   H     H_    0.044212 0.451020 0.055466 0.128542
H47   H     H_    0.193377 0.423793 0.016338 0.127694
C71   C     C_R   0.752142 0.557236 0.949505 0.169374
C72   C     C_R   0.770846 0.641691 0.918330 -0.063747
C73   C     C_R   0.855278 0.656411 0.896080 -0.134629
C74   C     C_R   0.921818 0.587763 0.905452 -0.102839
C75   C     C_R   0.904042 0.504246 0.937075 -0.132303
C76   C     C_R   0.819572 0.488974 0.959157 -0.148129
H48   H     H_    0.719995 0.695770 0.911219 0.124916
H49   H     H_    0.869220 0.721228 0.871769 0.127784
H50   H     H_    0.987224 0.599432 0.888375 0.132441
H51   H     H_    0.955771 0.451421 0.944562 0.128561
H52   H     H_    0.806627 0.424082 0.983695 0.127680
O17   O     O_3   0.558611 0.355387 0.202542 -0.574851
C77   C     C_3   0.489199 0.300611 0.177890 0.075266
H53   H     H_    0.467326 0.335245 0.137564 0.161258
H54   H     H_    0.431024 0.293547 0.206576 0.122081
C78   C     C_3   0.523436 0.198981 0.164306 -0.327680
H55   H     H_    0.579666 0.204510 0.134293 0.230948
H56   H     H_    0.547581 0.163766 0.203990 0.226352
C79   C     C_3   0.451200 0.136034 0.137719 -0.933762
H57   H     H_    0.395636 0.126742 0.167880 0.257544
H58   H     H_    0.478528 0.063436 0.127435 0.254437
H59   H     H_    0.426089 0.169741 0.097864 0.261026
O18   O     O_3   0.441553 0.355202 0.797437 -0.574880
C80   C     C_3   0.511038 0.300552 0.822102 0.075271
H60   H     H_    0.532793 0.335189 0.862455 0.161281
H61   H     H_    0.569266 0.293654 0.793445 0.122131
C81   C     C_3   0.476975 0.198830 0.835625 -0.327818
H62   H     H_    0.420725 0.204194 0.865634 0.230931
H63   H     H_    0.452903 0.163621 0.795920 0.226315
C82   C     C_3   0.549314 0.135994 0.862184 -0.933467
H64   H     H_    0.604911 0.126884 0.832030 0.257503
H65   H     H_    0.522118 0.063315 0.872411 0.254580
H66   H     H_    0.574340 0.169683 0.902068 0.260960
C83   C     C_R   0.569734 0.337540 0.320452 0.244566
C84   C     C_R   0.655116 0.343372 0.343977 -0.104449
C85   C     C_R   0.695316 0.260563 0.366866 -0.150290
C86   C     C_R   0.650454 0.171895 0.366745 -0.127783
C87   C     C_R   0.565571 0.165650 0.343283 -0.160635
C88   C     C_R   0.525210 0.248143 0.320287 -0.058453
H67   H     H_    0.690546 0.411658 0.344194 0.118172
H68   H     H_    0.761567 0.264825 0.384253 0.121310
H69   H     H_    0.681568 0.107966 0.384605 0.124902
H70   H     H_    0.530900 0.096959 0.343083 0.124063
H71   H     H_    0.459253 0.242405 0.302580 0.105996
C89   C     C_R   0.430402 0.337423 0.679524 0.244754
C90   C     C_R   0.345061 0.343202 0.655932 -0.104333
C91   C     C_R   0.304928 0.260360 0.633032 -0.150258
C92   C     C_R   0.349812 0.171705 0.633218 -0.127653
C93   C     C_R   0.434652 0.165509 0.656749 -0.160820
C94   C     C_R   0.474951 0.248039 0.679746 -0.058443
H72   H     H_    0.309610 0.411476 0.655669 0.118098
H73   H     H_    0.238711 0.264586 0.615588 0.121266
H74   H     H_    0.318748 0.107748 0.615353 0.124933
H75   H     H_    0.469339 0.096827 0.656999 0.124031
H76   H     H_    0.540879 0.242338 0.697502 0.105938
O19   O     O_3   0.415341 0.656482 0.331117 -0.576642
C95   C     C_3   0.330216 0.627855 0.349387 0.096320
H77   H     H_    0.314554 0.671518 0.387676 0.160601
H78   H     H_    0.326740 0.550236 0.362646 0.104779
C96   C     C_3   0.260315 0.648933 0.303566 -0.332242
H79   H     H_    0.265504 0.725918 0.289924 0.236680
H80   H     H_    0.271824 0.601751 0.266040 0.252207
C97   C     C_3   0.167286 0.630032 0.325705 -0.928257
H81   H     H_    0.160762 0.553458 0.339820 0.265903
H82   H     H_    0.118270 0.643867 0.291299 0.264009
H83   H     H_    0.152643 0.679008 0.361943 0.250662
O20   O     O_3   0.584222 0.656728 0.668935 -0.576449
C98   C     C_3   0.669431 0.628405 0.650660 0.096440
H84   H     H_    0.684947 0.672097 0.612359 0.160565
H85   H     H_    0.673146 0.550788 0.637417 0.104731
C99   C     C_3   0.739276 0.649776 0.696470 -0.332276
H86   H     H_    0.733852 0.726753 0.710094 0.236612
H87   H     H_    0.727921 0.602580 0.734007 0.252235
C100  C     C_3   0.832358 0.631202 0.674328 -0.928541
H88   H     H_    0.839117 0.554639 0.660235 0.265982
H89   H     H_    0.881338 0.645253 0.708726 0.264004
H90   H     H_    0.846840 0.680197 0.638073 0.250548
O21   O     O_3   0.426577 0.674765 0.215816 -0.585698
C101  C     C_3   0.496455 0.739767 0.203554 0.068815
H91   H     H_    0.482484 0.772230 0.161200 0.156829
H92   H     H_    0.562789 0.704564 0.200448 0.142442
C102  C     C_3   0.499666 0.821050 0.247945 -0.320267
H93   H     H_    0.433190 0.854769 0.251595 0.232018
H94   H     H_    0.518509 0.790440 0.289972 0.254771
C103  C     C_3   0.566659 0.899061 0.232004 -0.964349
H95   H     H_    0.634012 0.867318 0.229407 0.264560
H96   H     H_    0.567076 0.956872 0.264889 0.255077
H97   H     H_    0.548853 0.932148 0.190440 0.263724
O22   O     O_3   0.573010 0.674857 0.784241 -0.585875
C104  C     C_3   0.502968 0.739633 0.796537 0.069999
H98   H     H_    0.516322 0.771254 0.839191 0.156503
H99   H     H_    0.436541 0.704456 0.798974 0.142246
C105  C     C_3   0.500480 0.821763 0.752681 -0.321077
H100  H     H_    0.566979 0.855655 0.749777 0.231453
H101  H     H_    0.482484 0.791934 0.710309 0.254919
C106  C     C_3   0.433078 0.899353 0.768621 -0.964050
H102  H     H_    0.365719 0.867457 0.770486 0.264519
H103  H     H_    0.433195 0.957798 0.736128 0.255237
H104  H     H_    0.450055 0.931650 0.810539 0.263626

loop_
_geom_bond_atom_site_label_1
_geom_bond_atom_site_label_2
_ccdc_geom_bond_type
C79   H58   S    
C69   C70   A    
C78   H56   S    
C15   H3    S    
C82   H64   S    
Cu1   O5    S    
C66   H43   S    
C5    C83   S    
C103  H95   S    
C65   C66   A    
C61   H33   S    
C51   C65   S    
C101  H91   S    
C90   H72   S    
C60   H32   S    
C45   C46   A    
C89   C90   A    
C31   H13   S    
C37   C38   S    
C40   N2    A    
C17   C26   A    
C32   C36   A    
C41   N1    A    
Cu1   O7    S    
C34   O14   S    
C15   C19   A    
C104  C105  S    
O13   C53   S    
C84   C85   A    
C53   H16   S    
C74   C75   A    
C12   O22   S    
C13   N2    S    
C87   H70   S    
C41   O11   S    
C29   C33   A    
C42   N2    A    
C7    C27   S    
C59   H29   S    
C30   C38   A    
C40   C48   A    
C22   C23   A    
C103  H96   S    
C91   H73   S    
C28   O7    A    
C33   O13   S    
O16   C62   S    
C105  H100  S    
C79   H59   S    
Cu2   O2    S    
C94   H76   S    
C99   H86   S    
C48   C51   A    
Cu2   N3    S    
C80   H60   S    
C68   C69   A    
C49   C51   A    
C97   H83   S    
C98   C99   S    
C50   C52   A    
C106  H102  S    
C10   O20   S    
C32   C38   A    
C54   H18   S    
C36   O16   S    
C11   O21   S    
C88   H71   S    
C3    C13   A    
C32   H14   S    
C100  H89   S    
O17   C77   S    
C35   N3    A    
C96   H79   S    
C18   C22   A    
C78   C79   S    
C81   H63   S    
C106  H103  S    
C81   H62   S    
Cu1   O3    S    
C18   C25   A    
C42   C44   A    
C95   C96   S    
C57   H25   S    
O22   C104  S    
C56   H23   S    
C104  H98   S    
C44   C46   A    
C56   H22   S    
Cu2   O8    S    
C45   C47   A    
C16   C26   A    
C86   H69   S    
C46   C48   A    
C97   H81   S    
C30   C34   A    
C98   H84   S    
C61   H35   S    
C20   C24   A    
C80   C81   S    
C42   O12   S    
C71   C72   A    
C39   O9    S    
C4    C6    A    
C67   H44   S    
C70   H47   S    
C5    C7    A    
O20   C98   S    
C43   C49   A    
C6    C8    A    
O19   C95   S    
C3    C5    A    
O21   C101  S    
C83   C84   A    
C57   C58   S    
C17   C21   A    
C31   C37   A    
C6    C89   S    
C93   C94   A    
C58   H28   S    
C19   C23   A    
C97   H82   S    
C75   H51   S    
C40   O10   S    
C106  H104  S    
C96   C97   S    
C102  H93   S    
C9    C11   A    
C105  C106  S    
C101  H92   S    
C85   C86   A    
C77   C78   S    
C100  H88   S    
C16   C20   A    
O14   C56   S    
C55   H20   S    
C39   N1    A    
C58   H27   S    
C16   H4    S    
C54   C55   S    
C64   H41   S    
C43   C45   A    
C96   H80   S    
C92   H74   S    
C30   H12   S    
C62   H37   S    
C10   C12   A    
C72   H48   S    
C17   H5    S    
Cu2   O4    S    
C4    O18   S    
C18   H6    S    
C86   C87   A    
C77   H54   S    
C93   H75   S    
C1    C23   S    
C99   H87   S    
C2    C24   S    
C64   H40   S    
C8    C28   S    
C14   N1    S    
C29   H11   S    
C91   C92   A    
O15   C59   S    
C63   H39   S    
C67   C68   A    
C54   H17   S    
C103  H97   S    
C34   N4    A    
C58   H26   S    
C56   C57   S    
C28   O6    A    
C101  C102  S    
C39   C47   A    
O18   C80   S    
C82   H65   S    
C100  H90   S    
C44   C50   A    
C7    C9    A    
C15   C25   A    
C60   H31   S    
C80   H61   S    
C105  H101  S    
C53   H15   S    
C1    O4    A    
C62   C63   S    
C73   H49   S    
C8    C10   A    
Cu1   O1    S    
C41   C43   A    
C76   H52   S    
C12   C14   A    
C95   H77   S    
C27   O5    A    
C53   C54   S    
C2    O2    A    
C71   C76   A    
C61   H34   S    
C62   H36   S    
C9    O19   S    
Cu1   Cu2   S    
C47   C52   A    
C102  C103  S    
C99   C100  S    
C3    O17   S    
C59   C60   S    
C75   C76   A    
C1    O1    A    
C63   C64   S    
C66   C67   A    
C25   C26   S    
C92   C93   A    
C104  H99   S    
C4    C14   A    
C49   H1    S    
C72   C73   A    
C11   C13   A    
C90   C91   A    
C79   H57   S    
C83   C88   A    
C19   H7    S    
C64   H42   S    
C55   H19   S    
C52   C71   S    
C59   H30   S    
C60   C61   S    
C31   C35   A    
C55   H21   S    
C20   H8    S    
C50   H2    S    
C74   H50   S    
C21   H9    S    
C95   H78   S    
C35   O15   S    
C33   N3    A    
C85   H68   S    
C22   H10   S    
C65   C70   A    
C69   H46   S    
C77   H53   S    
C27   O8    A    
C81   C82   S    
C102  H94   S    
C87   C88   A    
C21   C24   A    
C29   C37   A    
C78   H55   S    
C98   H85   S    
C73   C74   A    
C57   H24   S    
C82   H66   S    
C68   H45   S    
C63   H38   S    
Cu1   N4    S    
C84   H67   S    
C89   C94   A    
C2    O3    A    
C36   N4    A    
Cu2   O6    S    
