data_mof_unit_33947.cif
_audit_creation_date              2013-03-05T15:43:32-0500
_audit_creation_method            fapswitch 2.2
_symmetry_space_group_name_H-M    P1
_symmetry_Int_Tables_number       1
_space_group_crystal_system       triclinic
_cell_length_a                    10.026794
_cell_length_b                    10.698749
_cell_length_c                    13.138513
_cell_angle_alpha                 90.209376
_cell_angle_beta                  70.041925
_cell_angle_gamma                 90.613462
_cell_volume                      1324.7006882

loop_
_atom_site_label
_atom_site_type_symbol
_atom_site_description
_atom_site_fract_x
_atom_site_fract_y
_atom_site_fract_z
_atom_type_partial_charge
O1    O     O_R   0.386950 0.680940 0.500020 -0.599371
O2    O     O_R   0.613110 0.680900 0.499980 -0.611280
C1    C     C_R   0.500016 0.737632 0.502102 0.930707
O3    O     O_R   0.330780 0.500000 0.653640 -0.613471
O4    O     O_R   0.556930 0.499960 0.653610 -0.609684
C2    C     C_R   0.421164 0.493343 0.704037 0.855446
Zn1   Zn    Zn3+2 0.349000 0.500030 0.500020 0.979542
Zn2   Zn    Zn3+2 0.651000 0.499970 0.499980 0.941846
O5    O     O_R   0.386890 0.319100 0.500020 -0.556498
O6    O     O_R   0.613050 0.319060 0.499980 -0.635965
O7    O     O_R   0.443070 0.500040 0.346390 -0.606923
O8    O     O_R   0.669220 0.500000 0.346360 -0.615524
C3    C     C_R   0.502786 0.262502 0.492081 0.819453
C4    C     C_R   0.578758 0.499334 0.295836 0.883466
C5    C     C_R   0.767815 0.369354 0.020175 -0.183202
H1    H     H_    0.823455 0.389542 0.163366 0.153830
H2    H     H_    0.769869 0.282486 0.829010 0.154970
H3    H     H_    0.861971 0.316082 0.978111 0.144601
C6    C     C_R   0.625683 0.481049 0.179539 -0.055535
C7    C     C_R   0.237269 0.534025 0.881322 -0.191417
C8    C     C_R   0.198868 0.549104 0.992587 -0.141088
C9    C     C_R   0.295933 0.522765 0.043924 -0.181129
C10   C     C_R   0.431315 0.473826 0.984744 0.088716
C11   C     C_R   0.459828 0.439551 0.875913 0.087094
C12   C     C_R   0.539409 0.457583 0.029827 0.080983
C13   C     C_R   0.663013 0.388828 0.973319 0.173120
C14   C     C_R   0.678737 0.338915 0.871919 -0.245079
C15   C     C_R   0.578479 0.363908 0.823605 -0.195850
C16   C     C_R   0.529001 0.510424 0.128964 -0.238792
C17   C     C_R   0.747827 0.413380 0.124346 -0.192087
C18   C     C_R   0.369696 0.483667 0.821915 -0.118171
H4    H     H_    0.442632 0.571510 0.171001 0.157262
H5    H     H_    0.165289 0.565297 0.841367 0.159803
H6    H     H_    0.260986 0.538315 0.130210 0.136005
H7    H     H_    0.095896 0.586559 0.038540 0.151449
H8    H     H_    0.593962 0.321919 0.745425 0.172167
C19   C     C_2   0.622084 0.067823 0.474869 -0.289393
C20   C     C_2   0.516110 0.133101 0.460573 0.151271
H9    H     H_    0.701879 0.111879 0.502392 0.171532
C21   C     C_2   0.623305 0.933221 0.470690 -0.106537
C22   C     C_2   0.500669 0.870154 0.507703 -0.264981
H10   H     H_    0.725135 0.886467 0.442499 0.178468
H11   H     H_    0.398993 0.916254 0.541502 0.170215
C23   C     C_2   0.104325 0.434717 0.432575 -0.088934
N1    N     N_2   0.148270 0.498670 0.498870 -0.191151
H12   H     H_    0.179068 0.374250 0.374647 0.188142
H13   H     H_    0.080533 0.561197 0.549748 0.160341
C24   C     C_2   0.956238 0.440851 0.428445 -0.138664
N2    N     N_2   0.852610 0.498640 0.498840 -0.189227
H14   H     H_    0.935342 0.391671 0.363022 0.160506
H15   H     H_    0.869511 0.539290 0.564282 0.170686
N3    N     N_R   0.426613 0.081985 0.404248 0.209062
O9    O     O_R   0.293260 0.111703 0.433421 -0.395876
O10   O     O_R   0.481174 0.013526 0.318162 -0.374855

loop_
_geom_bond_atom_site_label_1
_geom_bond_atom_site_label_2
_geom_bond_distance
_ccdc_geom_bond_type
C4    C6    1.450290 S    
O4    Zn2   1.914206 S    
C10   C11   1.407154 A    
C19   C20   1.343579 D    
C8    H7    1.082888 S    
C5    H3    1.083789 S    
O8    C4    1.293945 A    
Zn2   O8    1.963505 S    
C7    C8    1.388042 A    
C24   H14   1.084836 S    
O2    C1    1.283781 A    
C3    C20   1.438008 S    
C11   C18   1.411426 A    
C19   H9    1.086855 S    
C8    C9    1.391752 A    
C23   N1    1.293120 D    
Zn1   O7    1.914206 S    
C22   H11   1.086241 S    
C13   C14   1.392153 A    
O3    Zn1   1.963505 S    
C7    H5    1.083280 S    
Zn1   N1    2.017782 S    
C21   H10   1.086876 S    
C24   N2    1.292610 D    
N3    O10   1.301963 A    
C2    C18   1.459469 S    
C16   H4    1.079393 S    
C10   C12   1.413791 A    
C12   C16   1.389276 A    
O4    C2    1.296020 A    
C9    H6    1.079050 S    
O7    C4    1.294412 A    
O2    Zn2   1.976641 S    
C20   N3    1.446325 S    
H1    C17   1.083223 S    
C19   C21   1.440942 S    
H2    C14   1.083938 S    
C23   C24   1.506358 S    
N3    O9    1.301614 A    
C15   H8    1.081780 S    
C5    C17   1.394740 A    
O3    C2    1.294676 A    
N1    H13   1.025757 S    
C14   C15   1.388388 A    
Zn1   O5    1.976643 S    
O5    C3    1.288337 A    
C9    C10   1.418830 A    
C21   C22   1.334242 D    
C5    C13   1.404952 A    
N2    H15   1.025811 S    
C12   C13   1.419750 A    
O1    Zn1   1.968559 S    
C6    C17   1.399565 A    
Zn2   N2    2.016641 S    
O6    C3    1.289495 A    
Zn2   O6    1.968559 S    
C1    C22   1.419517 S    
C11   C15   1.414574 A    
C23   H12   1.084808 S    
O1    C1    1.288493 A    
C7    C18   1.402613 A    
C6    C16   1.388474 A    
