data_mof_unit_56512.cif
_audit_creation_date              2012-12-11T14:45:25-0500
_audit_creation_method            fapswitch 2.2
_symmetry_space_group_name_H-M    P1
_symmetry_Int_Tables_number       1
_space_group_crystal_system       triclinic
_cell_length_a                    25.012076
_cell_length_b                    7.179781
_cell_length_c                    14.422764
_cell_angle_alpha                 89.836809
_cell_angle_beta                  102.714499
_cell_angle_gamma                 88.625327
_cell_volume                      2525.73165504

loop_
_atom_site_label
_atom_site_type_symbol
_atom_type_description
_atom_site_fract_x
_atom_site_fract_y
_atom_site_fract_z
_atom_type_partial_charge
O1    O     O_R   0.319150 0.364170 0.330530 -0.534720
O2    O     O_R   0.680850 0.635830 0.669470 -0.534720
O3    O     O_R   0.180850 0.864170 0.169470 -0.533842
O4    O     O_R   0.819150 0.135830 0.830530 -0.533842
O5    O     O_R   0.210330 0.696850 0.354180 -0.541256
O6    O     O_R   0.789670 0.303150 0.645820 -0.541257
O7    O     O_R   0.289670 0.196850 0.145820 -0.539419
O8    O     O_R   0.710330 0.803150 0.854180 -0.539419
C1    C     C_R   0.197080 0.526424 0.377867 0.686675
C2    C     C_R   0.802920 0.473576 0.622133 0.686675
C3    C     C_R   0.302753 0.024482 0.122002 0.683276
C4    C     C_R   0.697247 0.975517 0.877998 0.683276
O9    O     O_R   0.320550 0.694110 0.341970 -0.537843
O10   O     O_R   0.679450 0.305890 0.658030 -0.537843
O11   O     O_R   0.179450 0.194110 0.158030 -0.537588
O12   O     O_R   0.820550 0.805890 0.841970 -0.537588
O13   O     O_R   0.291860 0.861000 0.157170 -0.540289
O14   O     O_R   0.708140 0.139000 0.842830 -0.540289
O15   O     O_R   0.208140 0.361000 0.342830 -0.538774
O16   O     O_R   0.791860 0.639000 0.657170 -0.538774
C5    C     C_R   0.341982 0.523235 0.360766 0.700374
C6    C     C_R   0.658018 0.476765 0.639234 0.700374
C7    C     C_R   0.157806 0.028161 0.139328 0.701367
C8    C     C_R   0.842194 0.971839 0.860672 0.701366
O17   O     O_3   0.240460 0.529330 0.189380 -0.376113
O18   O     O_3   0.759540 0.470670 0.810620 -0.376113
O19   O     O_3   0.259540 0.029330 0.310620 -0.377786
O20   O     O_3   0.740460 0.970670 0.689380 -0.377786
V1    V     V_3+5 0.251770 0.805510 0.261240 1.443673
V2    V     V_3+5 0.748230 0.194490 0.738760 1.443673
V3    V     V_3+5 0.248230 0.305510 0.238760 1.442852
V4    V     V_3+5 0.751770 0.694490 0.761240 1.442852
C9    C     C_R   0.101759 0.029918 0.078204 -0.195717
C10   C     C_R   0.898241 0.970082 0.921796 -0.195717
C11   C     C_R   0.397678 0.503931 0.421968 -0.196360
C12   C     C_R   0.602322 0.496069 0.578032 -0.196360
C13   C     C_R   0.960947 0.840602 0.062752 0.445492
C14   C     C_R   0.039053 0.159398 0.937248 0.445492
C15   C     C_R   0.542358 0.662408 0.445547 0.451956
C16   C     C_R   0.457642 0.337592 0.554453 0.451956
C17   C     C_R   0.908608 0.857064 0.002942 -0.331133
C18   C     C_R   0.091392 0.142936 0.997058 -0.331133
C19   C     C_R   0.594338 0.625036 0.503450 -0.328709
C20   C     C_R   0.405662 0.374964 0.496550 -0.328709
C21   C     C_R   0.941701 0.069203 0.897742 0.369709
C22   C     C_R   0.058299 0.930797 0.102258 0.369709
C23   C     C_R   0.556907 0.400783 0.597109 0.372444
C24   C     C_R   0.443093 0.599217 0.402891 0.372445
C25   C     C_R   0.995056 0.058294 0.958515 -0.065174
C26   C     C_R   0.004944 0.941706 0.041485 -0.065174
C27   C     C_R   0.503747 0.433372 0.538048 -0.064037
C28   C     C_R   0.496253 0.566628 0.461952 -0.064037
H1    H     H_    0.124789 0.219943 0.980015 0.134861
H2    H     H_    0.875211 0.780056 0.019985 0.134861
H3    H     H_    0.370662 0.301139 0.509514 0.134454
H4    H     H_    0.629338 0.698861 0.490486 0.134454
C29   C     C_R   0.664489 0.986637 0.949972 -0.030690
C30   C     C_R   0.335511 0.013363 0.050028 -0.030690
C31   C     C_R   0.835641 0.476897 0.549813 -0.035753
C32   C     C_R   0.164359 0.523102 0.450187 -0.035753
C33   C     C_R   0.658216 0.015817 0.113673 -0.157718
C34   C     C_R   0.341784 0.984183 0.886327 -0.157719
C35   C     C_R   0.843437 0.429118 0.387831 -0.158345
C36   C     C_R   0.156563 0.570882 0.612169 -0.158345
C37   C     C_R   0.689887 0.003212 0.045705 -0.172124
C38   C     C_R   0.310113 0.996788 0.954295 -0.172124
C39   C     C_R   0.811429 0.438834 0.455350 -0.172800
C40   C     C_R   0.188571 0.561166 0.544650 -0.172800
C41   C     C_R   0.607370 0.982937 0.921785 -0.206053
C42   C     C_R   0.392630 0.017063 0.078215 -0.206053
C43   C     C_R   0.892122 0.503759 0.577179 -0.196492
C44   C     C_R   0.107878 0.496241 0.422821 -0.196492
C45   C     C_R   0.574040 0.995827 0.989276 0.083977
C46   C     C_R   0.425960 0.004173 0.010724 0.083977
C47   C     C_R   0.926001 0.489890 0.510456 0.081978
C48   C     C_R   0.073999 0.510110 0.489544 0.081978
C49   C     C_R   0.600773 0.012374 0.086436 0.133253
C50   C     C_R   0.399227 0.987626 0.913564 0.133253
C51   C     C_R   0.900298 0.453026 0.414503 0.135163
C52   C     C_R   0.099702 0.546974 0.585497 0.135163
C53   C     C_R   0.515408 0.993146 0.963727 0.045641
C54   C     C_R   0.484592 0.006854 0.036273 0.045641
C55   C     C_R   0.984285 0.508710 0.535792 0.048929
C56   C     C_R   0.015715 0.491290 0.464208 0.048929
C57   C     C_R   0.513420 0.022814 0.131834 -0.149682
C58   C     C_R   0.486580 0.977186 0.868166 -0.149682
C59   C     C_R   0.987799 0.456571 0.369701 -0.144599
C60   C     C_R   0.012201 0.543428 0.630299 -0.144599
C61   C     C_R   0.570191 0.025667 0.155980 -0.184430
C62   C     C_R   0.429809 0.974332 0.844020 -0.184430
C63   C     C_R   0.931401 0.437957 0.345753 -0.191440
C64   C     C_R   0.068598 0.562043 0.654247 -0.191440
H5    H     H_    0.590425 0.038703 0.230212 0.123468
H6    H     H_    0.409575 0.961297 0.769788 0.123468
H7    H     H_    0.911924 0.410229 0.272369 0.122075
H8    H     H_    0.088076 0.589771 0.727631 0.122075
H9    H     H_    0.409346 0.029511 0.153325 0.120615
H10   H     H_    0.590654 0.970489 0.846675 0.120615
H11   H     H_    0.091872 0.469770 0.348570 0.122336
H12   H     H_    0.908128 0.530230 0.651430 0.122336
H13   H     H_    0.265842 0.993442 0.932341 0.103620
H14   H     H_    0.734158 0.006557 0.067659 0.103620
H15   H     H_    0.232203 0.584180 0.565912 0.105893
H16   H     H_    0.767797 0.415820 0.434088 0.105893
H17   H     H_    0.678668 0.028592 0.187791 0.112300
H18   H     H_    0.321332 0.971407 0.812209 0.112300
H19   H     H_    0.823808 0.399948 0.314723 0.113182
H20   H     H_    0.176192 0.600051 0.685277 0.113182
H21   H     H_    0.493482 0.033684 0.190572 0.163629
H22   H     H_    0.506517 0.966315 0.809428 0.163629
H23   H     H_    0.008220 0.442221 0.311711 0.154993
H24   H     H_    0.991780 0.557778 0.688289 0.154993
O21   O     O_3   0.066416 0.826863 0.185358 -0.603954
H25   H     H_    0.097155 0.877259 0.233118 0.283914
O22   O     O_3   0.933584 0.173137 0.814642 -0.603953
H26   H     H_    0.902845 0.122740 0.766882 0.283913
O23   O     O_3   0.437099 0.720070 0.326115 -0.605960
H27   H     H_    0.404187 0.689557 0.277194 0.282847
O24   O     O_3   0.562901 0.279930 0.673885 -0.605960
H28   H     H_    0.595813 0.310442 0.722806 0.282847
O25   O     O_3   0.969483 0.725113 0.141866 -0.604731
H29   H     H_    0.934713 0.665454 0.145937 0.277851
O26   O     O_3   0.030517 0.274887 0.858134 -0.604731
H30   H     H_    0.065286 0.334546 0.854063 0.277851
O27   O     O_3   0.536235 0.793520 0.373264 -0.605037
H31   H     H_    0.572254 0.847201 0.372181 0.275773
O28   O     O_3   0.463765 0.206480 0.626736 -0.605037
H32   H     H_    0.427746 0.152799 0.627819 0.275773

loop_
_geom_bond_atom_site_label_1
_geom_bond_atom_site_label_2
_ccdc_geom_bond_type
O17   V3    S    
O1    C5    A    
C15   O27   S    
C59   C63   A    
O19   V1    S    
O13   V1    S    
O3    C7    A    
C56   C59   A    
O1    V3    S    
C44   C48   A    
O15   V3    S    
C48   C56   A    
C53   C54   A    
O26   H30   S    
C14   C25   A    
C35   C51   A    
C50   C62   A    
O7    C3    A    
C49   C61   A    
O5    C1    A    
C9    C18   A    
C36   C40   A    
O9    V1    S    
C58   H22   S    
O10   V2    S    
C14   C18   A    
C57   H21   S    
C18   H1    S    
O4    C8    A    
C59   H23   S    
C32   C44   A    
O22   H26   S    
C64   H8    S    
C12   C23   A    
O2    V4    S    
O3    V1    S    
C31   C39   A    
C1    O15   A    
C60   C64   A    
C2    O16   A    
C7    C9    S    
O2    C6    A    
C40   H15   S    
C41   C45   A    
O14   V2    S    
C3    C30   S    
C33   H17   S    
C16   C20   A    
C51   C63   A    
C14   O26   S    
C42   H9    S    
C41   H10   S    
O11   C7    A    
C55   C60   A    
O12   C8    A    
C61   H5    S    
C9    C22   A    
C36   C52   A    
C38   H13   S    
C10   C17   A    
C37   H14   S    
C46   C54   A    
C11   C24   A    
C45   C53   A    
C30   C38   A    
C39   H16   S    
C62   H6    S    
O5    V1    S    
C35   C39   A    
O7    V3    S    
C34   C38   A    
C27   C28   A    
O8    V4    S    
C58   C62   A    
C33   C49   A    
C57   C61   A    
O18   V4    S    
C30   C42   A    
C15   C19   A    
C16   O28   S    
C8    C10   S    
C52   C64   A    
C42   C46   A    
C21   O22   S    
C55   C56   A    
C21   C25   A    
O8    C4    A    
C34   H18   S    
C53   C58   A    
O9    C5    A    
C10   C21   A    
C11   C20   A    
O25   H29   S    
C13   O25   S    
C4    C29   S    
O6    V2    S    
O27   H31   S    
C35   H19   S    
O28   H32   S    
C54   C57   A    
O21   H25   S    
O16   V4    S    
C3    O13   A    
C22   O21   S    
C34   C50   A    
C48   C52   A    
C29   C37   A    
O6    C2    A    
C23   C27   A    
O24   H28   S    
O11   V3    S    
C24   O23   S    
C5    C11   S    
O12   V4    S    
C16   C27   A    
C6    C12   S    
C43   H12   S    
C22   C26   A    
C1    C32   S    
O10   C6    A    
O20   V2    S    
C2    C31   S    
O23   H27   S    
C43   C47   A    
C13   C26   A    
C20   H3    S    
C47   C55   A    
C23   O24   S    
C15   C28   A    
C13   C17   A    
C17   H2    S    
C63   H7    S    
C60   H24   S    
C33   C37   A    
C19   H4    S    
C24   C28   A    
C32   C40   A    
C25   C26   A    
C46   C50   A    
C4    O14   A    
C45   C49   A    
C12   C19   A    
C29   C41   A    
C47   C51   A    
O4    V2    S    
C36   H20   S    
C31   C43   A    
C44   H11   S    
