data_mof_unit_25752.cif
_audit_creation_date              2012-12-10T17:35:04-0500
_audit_creation_method            fapswitch 2.2
_symmetry_space_group_name_H-M    P1
_symmetry_Int_Tables_number       1
_space_group_crystal_system       triclinic
_cell_length_a                    12.028735
_cell_length_b                    12.83135
_cell_length_c                    15.746662
_cell_angle_alpha                 90.641613
_cell_angle_beta                  87.13121
_cell_angle_gamma                 94.580814
_cell_volume                      2419.55413496

loop_
_atom_site_label
_atom_site_type_symbol
_atom_type_description
_atom_site_fract_x
_atom_site_fract_y
_atom_site_fract_z
_atom_type_partial_charge
C1    C     C_R   0.523287 0.700369 0.499909 0.874999
C2    C     C_R   0.540248 0.811987 0.501485 -0.048124
C3    C     C_R   0.643760 0.971615 0.454434 -0.009200
C4    C     C_R   0.500900 0.499987 0.661517 0.890103
C5    C     C_R   0.634562 0.863152 0.460656 -0.280372
C6    C     C_R   0.457718 0.867255 0.541314 -0.252508
C7    C     C_R   0.462275 0.974070 0.533255 0.157864
C8    C     C_R   0.553057 0.027061 0.486717 0.152281
C9    C     C_R   0.547702 0.132434 0.471313 -0.233741
C10   C     C_R   0.371202 0.133614 0.555398 -0.013890
C11   C     C_R   0.373788 0.027124 0.568082 -0.269748
C12   C     C_3   0.395880 0.548227 0.050697 -0.138165
C13   C     C_R   0.951093 0.400935 0.423127 -0.235802
C14   C     C_R   0.836153 0.411882 0.428418 0.059258
C15   C     C_R   0.859564 0.542114 0.536202 0.072130
C16   C     C_R   0.476481 0.299218 0.502200 0.878803
C17   C     C_R   0.978229 0.542514 0.526135 0.062092
C18   C     C_R   0.022702 0.465663 0.472256 0.018937
C19   C     C_R   0.138567 0.455487 0.468347 0.056333
C20   C     C_R   0.168428 0.597484 0.563996 -0.066142
C21   C     C_R   0.054760 0.614802 0.567634 -0.082496
C22   C     C_R   0.499117 0.499871 0.338473 0.900357
C23   C     C_3   0.498903 0.496745 0.082886 0.219123
C24   C     C_3   0.401918 0.548493 0.952165 -0.532941
C25   C     C_3   0.612032 0.558566 0.949425 -0.187990
C26   C     C_3   0.606541 0.559809 0.048382 -0.381739
C27   C     C_1   0.497214 0.499035 0.249753 -0.150270
C28   C     C_3   0.506003 0.494337 0.916928 0.246594
C29   C     C_2   0.286237 0.494825 0.084687 0.436516
C30   C     C_2   0.275379 0.184211 0.595587 0.444300
C31   C     C_2   0.749032 0.021280 0.414446 0.395136
C32   C     C_2   0.025490 0.715767 0.605657 0.431655
C33   C     C_2   0.807001 0.595412 0.609375 0.525115
C34   C     C_3   0.501949 0.382760 0.049645 -0.492372
C35   C     C_2   0.720586 0.523370 0.909948 0.514036
C36   C     C_2   0.573706 0.303710 0.912450 0.434938
C37   C     C_3   0.494569 0.379424 0.951647 -0.141261
C38   C     C_1   0.497166 0.498016 0.174502 -0.073266
C39   C     C_1   0.504633 0.496365 0.825309 -0.065088
C40   C     C_1   0.502942 0.498299 0.750169 -0.124735
C41   C     C_R   0.460607 0.186672 0.507373 -0.105351
H1    H     H_    0.580485 0.351146 0.068997 0.194292
H2    H     H_    0.324694 0.508864 0.926415 0.185503
H3    H     H_    0.261904 0.414687 0.066665 0.067607
H4    H     H_    0.611062 0.173941 0.430681 0.197565
H5    H     H_    0.252245 0.170211 0.662229 0.051693
H6    H     H_    0.796274 0.977960 0.367446 0.074037
H7    H     H_    0.700041 0.818397 0.432621 0.167058
H8    H     H_    0.227400 0.650408 0.596198 0.123390
H9    H     H_    0.069333 0.747656 0.659923 0.064796
H10   H     H_    0.742277 0.647299 0.600768 0.102567
H11   H     H_    0.739244 0.535246 0.842484 0.133124
H12   H     H_    0.305392 0.984973 0.604054 0.139163
H13   H     H_    0.609459 0.641021 0.928639 0.103211
H14   H     H_    0.606904 0.642238 0.071399 0.151721
H15   H     H_    0.680434 0.527806 0.075156 0.225726
H16   H     H_    0.409535 0.344529 0.937839 0.109577
H17   H     H_    0.577670 0.228171 0.942019 0.064280
H18   H     H_    0.386909 0.826355 0.575491 0.146852
H19   H     H_    0.173977 0.396764 0.427666 0.149089
H20   H     H_    0.406363 0.630803 0.929655 0.183621
H21   H     H_    0.983907 0.343032 0.380186 0.167754
H22   H     H_    0.781368 0.363234 0.389265 0.150318
H23   H     H_    0.432037 0.331625 0.079510 0.154668
H24   H     H_    0.400036 0.631112 0.073217 0.171007
N1    N     N_R   0.207800 0.519340 0.515510 -0.099011
N2    N     N_R   0.792190 0.480660 0.484490 -0.154480
O1    O     O_R   0.421690 0.658830 0.504140 -0.624168
O2    O     O_2   0.216171 0.234354 0.553567 -0.539028
O3    O     O_2   0.787957 0.107343 0.437007 -0.562821
O4    O     O_2   0.958468 0.767767 0.573214 -0.581178
O5    O     O_2   0.835952 0.580887 0.681230 -0.604571
O6    O     O_2   0.787647 0.481840 0.951472 -0.548204
O7    O     O_2   0.630497 0.323233 0.847327 -0.543218
O8    O     O_R   0.609320 0.646410 0.494190 -0.654747
O9    O     O_R   0.406150 0.506210 0.627840 -0.618192
O10   O     O_R   0.593770 0.493790 0.617880 -0.615197
O11   O     O_R   0.390680 0.353590 0.505810 -0.573521
O12   O     O_R   0.578310 0.341170 0.495860 -0.611567
O13   O     O_R   0.406230 0.506210 0.382120 -0.604130
O14   O     O_R   0.593850 0.493790 0.372160 -0.625713
O15   O     O_2   0.223760 0.541602 0.132188 -0.552820
Zn1   Zn    Zn3+2 0.374720 0.508290 0.506640 0.986107
Zn2   Zn    Zn3+2 0.625280 0.491710 0.493360 0.962468

loop_
_geom_bond_atom_site_label_1
_geom_bond_atom_site_label_2
_ccdc_geom_bond_type
C9    H4    S    
C24   H20   S    
C12   C29   S    
C34   C37   S    
C34   H1    S    
C26   H14   S    
C30   O2    D    
C7    C8    A    
C25   C28   S    
C7    C11   A    
C12   C23   S    
C13   C18   A    
C20   N1    A    
C36   C37   S    
C18   C19   A    
C36   H17   S    
O12   Zn2   S    
O8    Zn2   S    
C27   C38   T    
C1    O1    A    
C19   N1    A    
C1    C2    S    
C23   C26   S    
C33   O5    D    
N1    Zn1   S    
O11   Zn1   S    
C31   O3    D    
C13   H21   S    
C4    C40   S    
C8    C9    A    
C14   N2    A    
C11   H12   S    
N2    Zn2   S    
C31   H6    S    
C13   C14   A    
C10   C41   A    
C2    C6    A    
O13   Zn1   S    
O9    Zn1   S    
C21   C32   S    
C32   O4    D    
C5    H7    S    
C1    O8    A    
C22   O14   A    
C25   H13   S    
C3    C8    A    
C39   C40   T    
O10   Zn2   S    
C25   C26   S    
C17   C21   A    
C20   H8    S    
C10   C30   S    
C23   C34   S    
C15   N2    A    
C34   H23   S    
C17   C18   A    
C3    C31   S    
C32   H9    S    
C36   O7    D    
C25   C35   S    
C22   C27   S    
C29   H3    S    
C2    C5    A    
O14   Zn2   S    
C15   C17   A    
C35   O6    D    
O1    Zn1   S    
C6    H18   S    
C30   H5    S    
C24   C28   S    
C3    C5    A    
C26   H15   S    
C6    C7    A    
C19   H19   S    
C33   H10   S    
C23   C38   S    
C12   H24   S    
C12   C24   S    
C9    C41   A    
C28   C39   S    
C16   O12   A    
C22   O13   A    
C4    O10   A    
C28   C37   S    
C14   H22   S    
C16   O11   A    
C4    O9    A    
C10   C11   A    
C29   O15   D    
C20   C21   A    
C35   H11   S    
C24   H2    S    
C16   C41   S    
C15   C33   S    
C37   H16   S    
