data_mof_unit_62281.cif
_audit_creation_date              2012-12-10T16:50:29-0500
_audit_creation_method            fapswitch 2.2
_symmetry_space_group_name_H-M    P1
_symmetry_Int_Tables_number       1
_space_group_crystal_system       triclinic
_cell_length_a                    19.292666
_cell_length_b                    18.653705
_cell_length_c                    18.776181
_cell_angle_alpha                 108.908514
_cell_angle_beta                  110.29602
_cell_angle_gamma                 109.928611
_cell_volume                      5154.3589474

loop_
_atom_site_label
_atom_site_type_symbol
_atom_type_description
_atom_site_fract_x
_atom_site_fract_y
_atom_site_fract_z
_atom_type_partial_charge
C1    C     C_R   0.380858 0.379948 0.499172 1.042382
C2    C     C_R   0.600807 0.336212 0.618719 0.040677
C3    C     C_2   0.255078 0.258071 0.577909 0.103986
C4    C     C_R   0.619559 0.500823 0.620387 0.928484
C5    C     C_2   0.180690 0.193017 0.504084 -0.324103
C6    C     C_2   0.314145 0.328774 0.574056 -0.122743
C7    C     C_2   0.320875 0.311521 0.502582 -0.322653
C8    C     C_2   0.165210 0.473708 0.239623 -0.255420
C9    C     C_2   0.183000 0.508450 0.191607 -0.337592
C10   C     C_2   0.233577 0.481390 0.313713 0.028495
C11   C     C_2   0.302927 0.483692 0.309782 -0.346184
C12   C     C_R   0.756905 0.583817 0.760370 0.044982
C13   C     C_2   0.738866 0.748383 0.420312 -0.188395
C14   C     C_2   0.820461 0.798144 0.486315 -0.349273
C15   C     C_2   0.678009 0.678675 0.423808 -0.265209
C16   C     C_R   0.618123 0.620749 0.500076 0.908116
C17   C     C_2   0.677101 0.692823 0.498464 -0.147410
C18   C     C_R   0.994484 0.379974 0.876216 0.943366
C19   C     C_R   0.878601 0.501633 0.878510 0.878031
C20   C     C_R   0.002953 0.619660 0.120652 0.923253
C21   C     C_R   0.116400 0.501561 0.118702 0.948440
C22   C     C_R   0.002581 0.121585 0.619084 0.949729
C23   C     C_R   0.815288 0.503228 0.812509 -0.187360
C24   C     C_R   0.118160 0.121138 0.501391 0.961161
C25   C     C_R   0.997996 0.879219 0.380091 0.917554
C26   C     C_R   0.882054 0.876064 0.495538 0.921400
C27   C     C_2   0.999889 0.257759 0.676559 0.134358
C28   C     C_R   0.376727 0.495352 0.379392 0.973062
C29   C     C_2   0.011776 0.194389 0.687591 -0.326588
C30   C     C_2   0.009006 0.328328 0.749355 -0.214027
C31   C     C_2   0.984736 0.311242 0.803385 -0.367745
C32   C     C_2   0.002442 0.745364 0.321970 -0.264602
C33   C     C_2   0.984685 0.805091 0.308022 -0.151878
C34   C     C_R   0.749740 0.423142 0.735105 0.044609
C35   C     C_2   0.992892 0.672070 0.251400 -0.184722
C36   C     C_2   0.021179 0.688474 0.199656 -0.350245
C37   C     C_R   0.769841 0.666096 0.767489 -0.133782
C38   C     C_R   0.836306 0.745204 0.843877 -0.111900
C39   C     C_R   0.891450 0.744335 0.914202 -0.138808
C40   C     C_R   0.883287 0.664643 0.906351 -0.146801
C41   C     C_R   0.818660 0.583809 0.827379 0.078986
C42   C     C_2   0.217747 0.479385 0.385298 0.418963
C43   C     C_2   0.724257 0.783368 0.576179 0.403302
C44   C     C_2   0.937836 0.790607 0.217509 0.407010
C45   C     C_R   0.677035 0.420448 0.680250 0.079849
C46   C     C_2   0.514337 0.323545 0.592437 0.379338
C47   C     C_R   0.684247 0.501627 0.688774 -0.176842
C48   C     C_R   0.754122 0.345250 0.712371 -0.141601
C49   C     C_R   0.683747 0.264999 0.640818 -0.138447
C50   C     C_R   0.606266 0.259837 0.595965 -0.230646
H1    H     H_    0.549361 0.195575 0.547262 0.132242
H2    H     H_    0.633176 0.614930 0.364126 0.180212
H3    H     H_    0.730015 0.671086 0.714617 0.185585
H4    H     H_    0.034980 0.199216 0.751585 0.135462
H5    H     H_    0.032937 0.393626 0.756580 0.172908
H6    H     H_    0.952310 0.244320 0.790928 0.159183
H7    H     H_    0.023978 0.750109 0.385873 0.181155
H8    H     H_    0.961537 0.605974 0.241114 0.181384
H9    H     H_    0.059847 0.756067 0.216393 0.174216
H10   H     H_    0.844423 0.807301 0.848776 0.165950
H11   H     H_    0.941857 0.805659 0.974339 0.155192
H12   H     H_    0.161230 0.196400 0.444118 0.143195
H13   H     H_    0.928347 0.667558 0.962595 0.153084
H14   H     H_    0.811950 0.345926 0.749101 0.138185
H15   H     H_    0.687686 0.205823 0.623968 0.146476
H16   H     H_    0.171564 0.496468 0.393658 0.050045
H17   H     H_    0.741635 0.840999 0.568485 0.088415
H18   H     H_    0.926281 0.261153 0.572272 0.189628
H19   H     H_    0.033006 0.319842 0.613247 0.176910
H20   H     H_    0.896064 0.724456 0.161018 0.084857
H21   H     H_    0.458944 0.266460 0.531099 0.058633
H22   H     H_    0.283345 0.321306 0.702908 0.177565
H23   H     H_    0.355240 0.394204 0.631877 0.185657
H24   H     H_    0.334300 0.265282 0.687126 0.208271
H25   H     H_    0.286990 0.244578 0.448388 0.134379
H26   H     H_    0.099793 0.441475 0.226229 0.171283
H27   H     H_    0.248889 0.547593 0.209048 0.156834
H28   H     H_    0.303583 0.470724 0.249361 0.138185
H29   H     H_    0.716612 0.759192 0.365265 0.184140
H30   H     H_    0.843047 0.780774 0.536270 0.175221
N1    N     N_3   0.983478 0.260416 0.597098 -0.421817
N2    N     N_3   0.275298 0.262359 0.660832 -0.420212
O1    O     O_R   0.409870 0.358470 0.449260 -0.654503
O2    O     O_R   0.948030 0.090450 0.538510 -0.594734
O3    O     O_R   0.141850 0.090470 0.551380 -0.594244
O4    O     O_R   0.409230 0.460600 0.550770 -0.576758
O5    O     O_R   0.039050 0.090460 0.448590 -0.619064
O6    O     O_R   0.051970 0.909550 0.461490 -0.635050
O7    O     O_R   0.949170 0.909540 0.358700 -0.584665
O8    O     O_R   0.960950 0.909540 0.551410 -0.624924
O9    O     O_R   0.858150 0.909530 0.448620 -0.624295
O10   O     O_R   0.591360 0.448940 0.540280 -0.639005
O11   O     O_R   0.590720 0.551070 0.641790 -0.611326
O12   O     O_R   0.048480 0.460610 0.906920 -0.614572
O13   O     O_R   0.590770 0.539400 0.449230 -0.632582
O14   O     O_R   0.590130 0.641530 0.550740 -0.599477
O15   O     O_R   0.409280 0.448930 0.358210 -0.637025
O16   O     O_R   0.408640 0.551060 0.459720 -0.588127
O17   O     O_R   0.946350 0.358500 0.906960 -0.626543
O18   O     O_2   0.251857 0.454764 0.432303 -0.572762
O19   O     O_2   0.744030 0.794151 0.649646 -0.586578
O20   O     O_2   0.945883 0.852799 0.205503 -0.559844
O21   O     O_2   0.503662 0.373393 0.642543 -0.598571
O22   O     O_R   0.854760 0.448970 0.905840 -0.611565
O23   O     O_R   0.956890 0.551080 0.905790 -0.630424
O24   O     O_R   0.945260 0.539450 0.086770 -0.618202
O25   O     O_R   0.047380 0.641560 0.086730 -0.631239
O26   O     O_R   0.036850 0.448980 0.087900 -0.620555
O27   O     O_R   0.138970 0.551100 0.087860 -0.625430
O28   O     O_R   0.050830 0.090460 0.641300 -0.627287
Zn1   Zn    Zn3+2 0.500430 0.431810 0.432220 0.952613
Zn2   Zn    Zn3+2 0.499570 0.568190 0.567780 1.027966
Zn3   Zn    Zn3+2 0.928680 0.431850 0.996880 0.960000
Zn4   Zn    Zn3+2 0.065060 0.568210 0.996820 0.953484
Zn5   Zn    Zn3+2 0.068640 0.000010 0.568630 0.970809
Zn6   Zn    Zn3+2 0.931360 0.999990 0.431370 0.997498

loop_
_geom_bond_atom_site_label_1
_geom_bond_atom_site_label_2
_ccdc_geom_bond_type
C28   O15   A    
C13   H29   S    
C22   C29   S    
C10   C42   S    
O4    Zn2   S    
C35   C36   D    
C36   H9    S    
C17   C43   S    
O12   Zn4   S    
C2    C46   S    
O14   Zn2   S    
C37   C38   A    
C40   H13   S    
C49   H15   S    
C35   H8    S    
H18   N1    S    
C30   C31   D    
O15   Zn1   S    
C48   H14   S    
C27   C29   D    
C29   H4    S    
C8    H26   S    
O9    Zn6   S    
C12   C37   A    
C2    C50   A    
C8    C9    D    
C22   O28   A    
C44   H20   S    
C14   H30   S    
C31   H6    S    
C24   O3    A    
C20   O25   A    
C37   H3    S    
C3    C6    S    
O7    Zn6   S    
O2    Zn6   S    
C13   C14   D    
C27   C30   S    
C32   H7    S    
H24   N2    S    
C12   C47   A    
C20   O24   A    
C45   C47   A    
C2    C45   A    
C39   H11   S    
C16   O14   A    
O16   Zn2   S    
O24   Zn3   S    
C32   C35   S    
O23   Zn4   S    
C27   N1    S    
C39   C40   A    
C44   O20   D    
C16   C17   S    
C7    H25   S    
C26   O9    A    
C15   H2    S    
C25   O6    A    
O22   Zn3   S    
C22   O2    A    
O26   Zn3   S    
C19   C23   S    
C43   O19   D    
O25   Zn4   S    
C12   C41   A    
C11   H28   S    
C42   O18   D    
C19   O22   A    
O3    Zn5   S    
C26   O8    A    
C23   C34   A    
C3    N2    S    
C50   H1    S    
C46   H21   S    
C34   C45   A    
C9    H27   S    
O8    Zn5   S    
C14   C26   S    
O5    Zn6   S    
O27   Zn4   S    
C38   H10   S    
C19   O23   A    
C8    C10   S    
C48   C49   A    
C13   C15   S    
C18   O12   A    
O1    Zn1   S    
C34   C48   A    
C18   O17   A    
C6    H23   S    
C46   O21   D    
C28   O16   A    
C1    O4    A    
C15   C17   D    
C40   C41   A    
C16   O13   A    
C1    C7    S    
C33   C44   S    
C3    C5    D    
O17   Zn3   S    
C21   O27   A    
O10   Zn1   S    
C6    C7    D    
C1    O1    A    
C30   H5    S    
C25   O7    A    
C23   C41   A    
C32   C33   D    
O6    Zn5   S    
O13   Zn1   S    
C9    C21   S    
C38   C39   A    
C5    C24   S    
C11   C28   S    
C5    H12   S    
C24   O5    A    
C21   O26   A    
H19   N1    S    
C10   C11   D    
O11   Zn2   S    
C4    O11   A    
C20   C36   S    
C43   H17   S    
C49   C50   A    
C42   H16   S    
C18   C31   S    
O28   Zn5   S    
H22   N2    S    
C25   C33   S    
C4    O10   A    
C4    C47   S    
