data_mof_unit_11325.cif
_audit_creation_date              2012-12-11T15:39:30-0500
_audit_creation_method            fapswitch 2.2
_symmetry_space_group_name_H-M    P1
_symmetry_Int_Tables_number       1
_space_group_crystal_system       triclinic
_cell_length_a                    6.985586
_cell_length_b                    15.133494
_cell_length_c                    16.635439
_cell_angle_alpha                 95.251641
_cell_angle_beta                  91.442355
_cell_angle_gamma                 91.049525
_cell_volume                      1750.3247311

loop_
_atom_site_label
_atom_site_type_symbol
_atom_type_description
_atom_site_fract_x
_atom_site_fract_y
_atom_site_fract_z
_atom_type_partial_charge
O1    O     O_R   0.633330 0.174290 0.828230 -0.548930
O2    O     O_R   0.366670 0.825710 0.171770 -0.543965
O3    O     O_R   0.301450 0.154140 0.662030 -0.527289
O4    O     O_R   0.698550 0.845860 0.337970 -0.529375
O5    O     O_R   0.133140 0.325730 0.671770 -0.523613
O6    O     O_R   0.866860 0.674270 0.328230 -0.537966
C1    C     C_R   0.469447 0.128770 0.636153 0.797518
C2    C     C_R   0.531576 0.865934 0.368240 0.790609
O7    O     O_R   0.303490 0.163670 0.827000 -0.543721
O8    O     O_R   0.696510 0.836330 0.173000 -0.533942
O9    O     O_R   0.135190 0.335320 0.837920 -0.519215
O10   O     O_R   0.864810 0.664680 0.162080 -0.519366
C3    C     C_R   0.472884 0.143044 0.853686 0.662863
C4    C     C_R   0.527117 0.856957 0.146308 0.701849
O11   O     O_R   0.631280 0.164690 0.662080 -0.536554
O12   O     O_R   0.368720 0.835310 0.337920 -0.537860
O13   O     O_3   0.467420 0.306310 0.753380 -0.364310
O14   O     O_3   0.532580 0.693690 0.246620 -0.371046
V1    V     V_3+5 0.191790 0.239560 0.749370 1.479148
V2    V     V_3+5 0.808210 0.760440 0.250630 1.486968
O15   O     O_R   0.805590 0.345870 0.837970 -0.540543
O16   O     O_R   0.194410 0.654130 0.162030 -0.539941
C5    C     C_R   0.978042 0.363891 0.869405 0.806136
C6    C     C_R   0.021966 0.636162 0.130564 0.809253
O17   O     O_R   0.803560 0.336340 0.672990 -0.539719
O18   O     O_R   0.196440 0.663660 0.327010 -0.545524
C7    C     C_R   0.971871 0.356654 0.646055 0.749087
C8    C     C_R   0.028091 0.643235 0.353854 0.700125
V3    V     V_3+5 0.692030 0.260450 0.750630 1.437544
V4    V     V_3+5 0.307970 0.739550 0.249370 1.431362
O19   O     O_3   0.966260 0.193700 0.746610 -0.389848
O20   O     O_3   0.033740 0.806300 0.253390 -0.371372
C9    C     C_1   0.981620 0.418793 0.583637 -0.187506
C10   C     C_1   0.018331 0.581374 0.416476 -0.190614
C11   C     C_1   0.992776 0.470095 0.531127 0.001824
C12   C     C_1   0.007131 0.530220 0.469097 -0.002241
C13   C     C_3   0.882825 0.562209 0.975884 0.316660
C14   C     C_3   0.117185 0.437904 0.024046 0.316292
C15   C     C_3   0.061951 0.528045 0.930851 0.284810
C16   C     C_3   0.938058 0.472067 0.069075 0.284675
C17   C     C_3   0.999206 0.431183 0.942000 -0.392592
C18   C     C_3   0.000808 0.568923 0.057931 -0.393840
C19   C     C_3   0.822222 0.465846 0.988650 0.329149
C20   C     C_3   0.177786 0.534266 0.011277 0.330180
C21   C     C_3   0.674909 0.013868 0.538814 0.323544
C22   C     C_3   0.328374 0.966200 0.477746 0.331565
C23   C     C_3   0.587710 0.918351 0.530814 0.263438
C24   C     C_3   0.413220 0.061425 0.482368 0.310359
C25   C     C_3   0.520568 0.930160 0.442913 -0.380748
C26   C     C_3   0.482801 0.053548 0.570561 -0.382406
C27   C     C_3   0.606525 0.025709 0.451432 0.320605
C28   C     C_3   0.399917 0.957452 0.565625 0.293125
C29   C     C_1   0.483807 0.081073 0.916147 -0.201354
C30   C     C_1   0.516187 0.918701 0.083637 -0.192827
C31   C     C_1   0.493875 0.029847 0.968756 -0.003892
C32   C     C_1   0.506102 0.969798 0.030915 -0.000924
O21   O     O_3   0.137980 0.548264 0.856293 -0.546746
C33   C     C_3   0.119325 0.638682 0.843313 -0.230263
H1    H     H_    0.255911 0.662905 0.819832 0.129859
H2    H     H_    0.085295 0.682979 0.897864 0.140844
H3    H     H_    0.008068 0.645387 0.795685 0.151324
O22   O     O_3   0.862024 0.451871 0.143637 -0.546019
C34   C     C_3   0.880771 0.361472 0.156657 -0.227618
H4    H     H_    0.914819 0.317155 0.102120 0.142060
H5    H     H_    0.744204 0.337246 0.180146 0.130760
H6    H     H_    0.992034 0.354813 0.204292 0.148039
O23   O     O_3   0.762151 0.626269 0.946562 -0.558158
C35   C     C_3   0.673424 0.591421 0.872363 -0.173680
H7    H     H_    0.545752 0.550045 0.883227 0.232240
H8    H     H_    0.767946 0.550406 0.832035 0.137621
H9    H     H_    0.625759 0.647500 0.838824 0.112582
O24   O     O_3   0.237880 0.373864 0.053385 -0.557696
C36   C     C_3   0.326600 0.408745 0.127576 -0.172236
H10   H     H_    0.232090 0.449789 0.167885 0.138572
H11   H     H_    0.454290 0.450103 0.116701 0.231960
H12   H     H_    0.374235 0.352684 0.161143 0.113028
O25   O     O_3   0.632916 0.431542 0.976779 -0.519515
C37   C     C_3   0.623377 0.339553 0.986834 0.004549
H13   H     H_    0.755203 0.302358 0.972651 0.037600
H14   H     H_    0.505252 0.308976 0.947460 0.159113
H15   H     H_    0.591190 0.328050 0.049310 0.122851
O26   O     O_3   0.367102 0.568556 0.023149 -0.518787
C38   C     C_3   0.376659 0.660554 0.013140 0.001741
H16   H     H_    0.494814 0.691098 0.052517 0.155769
H17   H     H_    0.244852 0.697750 0.027359 0.035874
H18   H     H_    0.408833 0.672095 0.950670 0.122362
O27   O     O_3   0.686554 0.845273 0.557201 -0.569910
C39   C     C_3   0.575297 0.766764 0.541646 -0.274577
H19   H     H_    0.557722 0.747500 0.475910 0.125767
H20   H     H_    0.433891 0.771995 0.570494 0.171504
H21   H     H_    0.651971 0.712283 0.568036 0.160293
O28   O     O_3   0.317997 0.137311 0.459948 -0.545571
C40   C     C_3   0.273301 0.127622 0.376474 -0.215527
H22   H     H_    0.206687 0.189606 0.359862 0.132507
H23   H     H_    0.168234 0.072482 0.360663 0.200803
H24   H     H_    0.402912 0.117923 0.339730 0.156249
O29   O     O_3   0.860661 0.038531 0.569540 -0.529078
C41   C     C_3   0.890228 0.007196 0.646258 -0.013933
H25   H     H_    0.916540 0.935184 0.641324 0.163031
H26   H     H_    0.769989 0.021346 0.687519 0.063376
H27   H     H_    0.020541 0.040009 0.674999 0.174166
O30   O     O_3   0.143722 0.942602 0.445395 -0.526833
C42   C     C_3   0.090120 0.857609 0.466720 0.024776
H28   H     H_    0.031120 0.862316 0.527668 0.186210
H29   H     H_    0.208716 0.809664 0.464257 0.046350
H30   H     H_    0.976644 0.829355 0.424370 0.151018
O31   O     O_3   0.717407 0.058752 0.390583 -0.540414
C43   C     C_3   0.784734 0.145440 0.416089 -0.171804
H31   H     H_    0.902256 0.144132 0.462046 0.214406
H32   H     H_    0.669369 0.189433 0.439753 0.141211
H33   H     H_    0.843636 0.175269 0.363266 0.124572
O32   O     O_3   0.286097 0.920448 0.623421 -0.563293
C44   C     C_3   0.386363 0.923591 0.698183 -0.291208
H34   H     H_    0.404898 0.992794 0.725740 0.118802
H35   H     H_    0.527025 0.890846 0.693033 0.170138
H36   H     H_    0.300240 0.887167 0.740030 0.153295

loop_
_geom_bond_atom_site_label_1
_geom_bond_atom_site_label_2
_ccdc_geom_bond_type
V4    O20   S    
C31   C32   S    
C34   H5    S    
C40   H22   S    
C6    C18   S    
C36   H10   S    
C11   C12   S    
O4    C2    A    
V1    O19   S    
O29   C41   S    
C23   C25   S    
O25   C37   S    
C7    C9    S    
C22   O30   S    
C22   C25   S    
O9    V1    S    
C20   O26   S    
C19   O25   S    
C41   H25   S    
C37   H14   S    
C28   O32   S    
C33   H2    S    
C15   O21   S    
C22   C28   S    
C16   O22   S    
C43   H31   S    
C2    O12   A    
C21   C23   S    
C13   C18   S    
O7    C3    A    
O13   V1    S    
O5    C7    A    
O7    V1    S    
C24   C27   S    
O6    C8    A    
O8    V2    S    
C35   H7    S    
C25   C27   S    
C26   C28   S    
O31   C43   S    
O3    V1    S    
O14   V4    S    
C10   C12   T    
C44   H36   S    
C33   H3    S    
C24   C26   S    
C34   H6    S    
C8    C10   S    
C40   H23   S    
C17   C19   S    
C18   C20   S    
O32   C44   S    
O11   V3    S    
C3    C29   S    
C29   C31   T    
O17   V3    S    
C13   C15   S    
C14   O24   S    
O23   C35   S    
C14   C17   S    
C15   C17   S    
O8    C4    A    
C37   H13   S    
C1    O11   A    
C33   H1    S    
O15   V3    S    
C23   O27   S    
C13   C19   S    
C14   C20   S    
O22   C34   S    
C16   C18   S    
C38   H16   S    
C39   H21   S    
O10   V2    S    
O1    V3    S    
C42   H29   S    
C15   C20   S    
C35   H8    S    
C38   H17   S    
C39   H20   S    
O18   V4    S    
C40   H24   S    
C41   H26   S    
O15   C5    A    
C36   H12   S    
O16   C6    A    
O1    C3    A    
C36   H11   S    
C44   H34   S    
V2    O20   S    
O16   V4    S    
C4    C30   S    
O18   C8    A    
C1    C26   S    
O24   C36   S    
C30   C32   T    
C23   C28   S    
O5    V1    S    
O17   C7    A    
C41   H27   S    
O6    V2    S    
O10   C6    A    
O3    C1    A    
C5    C17   S    
C43   H33   S    
O2    V4    S    
C16   C19   S    
V3    O19   S    
C21   O29   S    
O13   V3    S    
C14   C16   S    
C37   H15   S    
O21   C33   S    
C21   C26   S    
C35   H9    S    
C13   O23   S    
O9    C5    A    
O28   C40   S    
C9    C11   T    
C43   H32   S    
C42   H30   S    
O14   V2    S    
O30   C42   S    
O2    C4    A    
C34   H4    S    
O4    V2    S    
C22   C24   S    
C38   H18   S    
C39   H19   S    
O27   C39   S    
C27   O31   S    
O26   C38   S    
C24   O28   S    
C42   H28   S    
C21   C27   S    
O12   V4    S    
C2    C25   S    
C44   H35   S    
