data_mof_unit_55581.cif
_audit_creation_date              2012-12-10T17:33:53-0500
_audit_creation_method            fapswitch 2.2
_symmetry_space_group_name_H-M    P1
_symmetry_Int_Tables_number       1
_space_group_crystal_system       triclinic
_cell_length_a                    10.807453
_cell_length_b                    12.066933
_cell_length_c                    12.8999
_cell_angle_alpha                 94.301695
_cell_angle_beta                  91.355803
_cell_angle_gamma                 85.020722
_cell_volume                      1670.99302659

loop_
_atom_site_label
_atom_site_type_symbol
_atom_type_description
_atom_site_fract_x
_atom_site_fract_y
_atom_site_fract_z
_atom_type_partial_charge
C1    C     C_R   0.495802 0.523528 0.700843 0.950374
C2    C     C_3   0.120797 0.506875 0.508114 -0.133804
C3    C     C_3   0.081276 0.419008 0.420480 -0.412778
C4    C     C_3   0.055857 0.625827 0.478217 0.013486
C5    C     C_R   0.501489 0.462038 0.187838 -0.149295
C6    C     C_R   0.486107 0.540476 0.813374 -0.139121
C7    C     C_R   0.424374 0.647371 0.974493 0.096444
C8    C     C_R   0.442297 0.643200 0.866639 -0.072200
C9    C     C_R   0.516264 0.446765 0.868092 -0.189929
C10   C     C_R   0.508448 0.452225 0.973882 0.098773
C11   C     C_R   0.458516 0.551126 0.027859 0.108183
C12   C     C_R   0.742048 0.498867 0.497494 0.971212
C13   C     C_R   0.448783 0.551826 0.134556 -0.223801
C14   C     C_R   0.557536 0.365925 0.133337 0.181971
C15   C     C_R   0.555099 0.359980 0.026081 -0.163641
C16   C     C_R   0.359400 0.955921 0.426333 -0.093332
C17   C     C_R   0.378426 0.839760 0.428410 0.018647
C18   C     C_R   0.558607 0.855348 0.533434 0.030782
C19   C     C_R   0.546549 0.973084 0.532346 -0.052173
C20   C     C_R   0.450561 0.023962 0.472108 -0.061482
C21   C     C_R   0.451731 0.139835 0.455959 0.056417
C22   C     C_R   0.608554 0.158178 0.587154 0.283017
C23   C     C_R   0.502534 0.476988 0.299601 0.947549
C24   C     C_R   0.626652 0.040530 0.590149 0.059950
C25   C     C_R   0.257860 0.502348 0.504825 0.916320
C26   C     C_3   0.931026 0.462254 0.608145 -0.316476
C27   C     C_3   0.074886 0.475107 0.619253 -0.265795
C28   C     C_3   0.938090 0.418739 0.405490 -0.161913
C29   C     C_3   0.914872 0.620495 0.488378 -0.385730
C30   C     C_3   0.878700 0.498644 0.499448 -0.104588
H1    H     H_    0.918125 0.372525 0.606257 0.199946
H2    H     H_    0.127025 0.430948 0.346550 0.219377
H3    H     H_    0.404421 0.623893 0.177879 0.203612
H4    H     H_    0.597231 0.285817 0.983555 0.183451
H5    H     H_    0.548085 0.367872 0.828720 0.190922
H6    H     H_    0.310835 0.786931 0.393716 0.169053
H7    H     H_    0.631619 0.812014 0.576852 0.191068
H8    H     H_    0.121031 0.335014 0.437808 0.274091
H9    H     H_    0.866412 0.658672 0.421368 0.245163
H10   H     H_    0.880308 0.674227 0.557226 0.247194
N1    N     N_R   0.523380 0.207800 0.519350 -0.166375
N2    N     N_R   0.476620 0.792180 0.480650 -0.120255
O1    O     O_R   0.506240 0.421700 0.658830 -0.619671
O2    O     O_R   0.491240 0.609310 0.646410 -0.586424
O3    O     O_R   0.692710 0.406190 0.506230 -0.597404
O4    O     O_R   0.677700 0.593810 0.493810 -0.590784
O5    O     O_R   0.508760 0.390690 0.353590 -0.602608
O6    O     O_R   0.493760 0.578300 0.341170 -0.613905
O7    O     O_R   0.322300 0.406190 0.506190 -0.542505
O8    O     O_R   0.307290 0.593810 0.493770 -0.611213
Zn1   Zn    Zn3+2 0.510020 0.374730 0.508290 1.055502
Zn2   Zn    Zn3+2 0.489980 0.625270 0.491710 1.037065
I1    I     I_    0.095856 0.661206 0.318771 -0.242624
C31   C     C_2   0.896051 0.460204 0.299054 0.941982
O9    O     O_2   0.956661 0.429558 0.221484 -0.525706
O10   O     O_R   0.784989 0.527117 0.287655 -0.836042
H11   H     H_    0.767632 0.546401 0.213250 0.363247
I2    I     I_    0.663835 0.233167 0.201206 -0.170557
I3    I     I_    0.356396 0.802319 0.055660 -0.143872
C32   C     C_2   0.415720 0.746384 0.812312 1.027350
O11   O     O_2   0.308352 0.784052 0.798897 -0.543190
O12   O     O_R   0.514025 0.802341 0.779631 -0.782160
H12   H     H_    0.484327 0.873937 0.746938 0.347752
C33   C     C_2   0.400389 0.176166 0.354940 0.989270
O13   O     O_2   0.426507 0.118023 0.275369 -0.597877
O14   O     O_R   0.316388 0.269375 0.349203 -0.764880
H13   H     H_    0.287679 0.282117 0.275293 0.347635
C34   C     C_2   0.856599 0.508951 0.703739 0.978254
O15   O     O_2   0.874778 0.465002 0.785790 -0.539301
O16   O     O_R   0.771892 0.603088 0.700353 -0.783359
H14   H     H_    0.732963 0.626516 0.770187 0.365395
I4    I     I_    0.722478 0.252419 0.689030 -0.197374
C35   C     C_2   0.234723 0.002968 0.394243 0.934941
O17   O     O_2   0.179331 0.958719 0.320704 -0.548777
O18   O     O_R   0.177644 0.094313 0.452990 -0.754045
H15   H     H_    0.088267 0.112106 0.431070 0.372258
I5    I     I_    0.772827 0.963754 0.684640 -0.175501
C36   C     C_2   0.109670 0.565037 0.703322 0.991575
O19   O     O_2   0.215049 0.560152 0.740246 -0.620810
O20   O     O_R   0.025556 0.654760 0.736689 -0.754486
H16   H     H_    0.061942 0.706747 0.792484 0.398201
C37   C     C_2   0.132885 0.364117 0.659375 0.939074
O21   O     O_2   0.182645 0.289381 0.601830 -0.566981
O22   O     O_R   0.120915 0.345859 0.764521 -0.719328
H17   H     H_    0.159855 0.270097 0.782635 0.368506
C38   C     C_2   0.909978 0.295393 0.397404 0.885390
O23   O     O_2   0.862242 0.252600 0.467389 -0.601562
O24   O     O_R   0.948111 0.227963 0.308751 -0.734595
H18   H     H_    0.924832 0.148454 0.310059 0.372553
C39   C     C_2   0.090210 0.734671 0.537603 0.961076
O25   O     O_2   0.177631 0.738228 0.599085 -0.568912
O26   O     O_R   0.020768 0.834399 0.517242 -0.758665
H19   H     H_    0.051836 0.901784 0.558253 0.373778

loop_
_geom_bond_atom_site_label_1
_geom_bond_atom_site_label_2
_ccdc_geom_bond_type
C4    I1    S    
C35   O17   D    
C19   C20   A    
C27   C36   S    
C6    C9    A    
C7    C8    A    
C7    C11   A    
C26   C27   S    
O12   H12   S    
C3    C28   S    
C18   H7    S    
C10   C15   A    
C18   N2    A    
O20   H16   S    
C38   O24   S    
C22   N1    A    
O3    Zn1   S    
O4    Zn2   S    
O10   H11   S    
C32   O12   S    
C18   C19   A    
C7    I3    S    
C17   N2    A    
C21   C33   S    
C25   O8    A    
C1    O1    A    
C3    H8    S    
C16   C17   A    
O7    Zn1   S    
O8    Zn2   S    
C2    C27   S    
C17   H6    S    
C9    C10   A    
C15   H4    S    
C5    C13   A    
C4    C29   S    
O2    Zn2   S    
O14   H13   S    
C26   H1    S    
C35   O18   S    
C22   I4    S    
C4    C39   S    
C14   I2    S    
C31   O10   S    
C23   O5    A    
C16   C35   S    
O22   H17   S    
C12   O4    A    
C28   C31   S    
C36   O19   D    
C34   O15   D    
C6    C8    A    
C1    C6    S    
C32   O11   D    
C33   O14   S    
C2    C4    S    
O18   H15   S    
C13   H3    S    
C29   C30   S    
C1    O2    A    
C39   O26   S    
C5    C23   S    
C16   C20   A    
C29   H9    S    
O24   H18   S    
C5    C14   A    
O16   H14   S    
C21   N1    A    
C26   C30   S    
C37   O22   S    
C28   C38   S    
C22   C24   A    
C31   O9    D    
C23   O6    A    
C12   C30   S    
C38   O23   D    
C27   C37   S    
C12   O3    A    
O5    Zn1   S    
C26   C34   S    
C33   O13   D    
C28   C30   S    
C2    C3    S    
C8    C32   S    
C11   C13   A    
O1    Zn1   S    
C39   O25   D    
C29   H10   S    
O26   H19   S    
C19   C24   A    
C2    C25   S    
C36   O20   S    
C3    H2    S    
C25   O7    A    
C10   C11   A    
C24   I5    S    
O6    Zn2   S    
C20   C21   A    
C34   O16   S    
C37   O21   D    
C9    H5    S    
C14   C15   A    
N1    Zn1   S    
N2    Zn2   S    
