data_mof_unit_63805.cif
_audit_creation_date              2013-03-05T16:07:34-0500
_audit_creation_method            fapswitch 2.2
_symmetry_space_group_name_H-M    P1
_symmetry_Int_Tables_number       1
_space_group_crystal_system       triclinic
_cell_length_a                    45.222146
_cell_length_b                    45.20564
_cell_length_c                    35.884928
_cell_angle_alpha                 90.010615
_cell_angle_beta                  128.936634
_cell_angle_gamma                 90.001224
_cell_volume                      57061.9953365

loop_
_atom_site_label
_atom_site_type_symbol
_atom_site_description
_atom_site_fract_x
_atom_site_fract_y
_atom_site_fract_z
_atom_type_partial_charge
O1    O     O_R   0.737270 0.702280 0.500000 -0.583602
O2    O     O_R   0.262730 0.702280 0.500000 -0.583941
O3    O     O_R   0.237270 0.202280 0.500000 -0.580346
O4    O     O_R   0.762730 0.202280 0.500000 -0.583332
O5    O     O_R   0.702260 0.737260 0.500000 -0.551540
O6    O     O_R   0.297740 0.737260 0.500000 -0.551439
O7    O     O_R   0.202260 0.237260 0.500000 -0.575077
O8    O     O_R   0.797740 0.237260 0.500000 -0.553130
C1    C     C_R   0.709850 0.709835 0.500012 0.855578
C2    C     C_R   0.290148 0.709835 0.499984 0.854293
C3    C     C_R   0.209850 0.209834 0.500011 0.819642
C4    C     C_R   0.790140 0.209835 0.499966 0.842652
O9    O     O_R   0.802360 0.732500 0.569740 -0.589645
O10   O     O_R   0.197640 0.732500 0.430260 -0.590680
O11   O     O_R   0.302360 0.232500 0.569740 -0.589399
O12   O     O_R   0.697640 0.232500 0.430260 -0.594190
O13   O     O_R   0.767350 0.767490 0.569740 -0.539646
O14   O     O_R   0.232650 0.767490 0.430260 -0.536433
O15   O     O_R   0.267350 0.267490 0.569740 -0.527076
O16   O     O_R   0.732650 0.267490 0.430260 -0.532467
C5    C     C_R   0.795760 0.749501 0.592650 0.856850
C6    C     C_R   0.204206 0.749521 0.407345 0.857319
C7    C     C_R   0.296519 0.250304 0.592639 0.826968
C8    C     C_R   0.704319 0.249395 0.407297 0.846610
Cu1   Cu    Cu3+1 0.770730 0.729280 0.500010 0.984938
Cu2   Cu    Cu3+1 0.229270 0.729280 0.499990 0.984683
Cu3   Cu    Cu3+1 0.270730 0.229280 0.500010 0.982754
Cu4   Cu    Cu3+1 0.729270 0.229280 0.499990 0.980849
Cu5   Cu    Cu3+1 0.729270 0.770720 0.500000 1.045955
Cu6   Cu    Cu3+1 0.270730 0.770720 0.500000 1.049910
Cu7   Cu    Cu3+1 0.229270 0.270720 0.500000 1.055488
Cu8   Cu    Cu3+1 0.770730 0.270720 0.500000 1.053235
O17   O     O_R   0.797740 0.762740 0.500010 -0.585796
O18   O     O_R   0.202260 0.762740 0.499990 -0.586153
O19   O     O_R   0.297740 0.262740 0.500010 -0.585963
O20   O     O_R   0.702260 0.262740 0.499990 -0.584945
O21   O     O_R   0.762730 0.797720 0.500010 -0.571172
O22   O     O_R   0.237270 0.797720 0.499990 -0.570155
O23   O     O_R   0.262730 0.297720 0.500010 -0.553321
O24   O     O_R   0.737270 0.297720 0.499990 -0.569737
O25   O     O_R   0.732640 0.732510 0.430270 -0.589950
O26   O     O_R   0.267360 0.732510 0.569730 -0.589788
O27   O     O_R   0.232640 0.232510 0.430270 -0.589091
O28   O     O_R   0.767360 0.232510 0.569730 -0.589605
O29   O     O_R   0.697640 0.767500 0.430270 -0.589568
O30   O     O_R   0.302360 0.767500 0.569730 -0.589532
O31   O     O_R   0.197640 0.267500 0.430270 -0.587778
O32   O     O_R   0.802360 0.267500 0.569730 -0.588579
C9    C     C_R   0.790144 0.790149 0.500024 0.818593
C10   C     C_R   0.209855 0.790149 0.499975 0.818056
C11   C     C_R   0.290157 0.290150 0.500053 0.830761
C12   C     C_R   0.709857 0.290150 0.499977 0.820445
C13   C     C_R   0.703661 0.749989 0.407281 0.789419
C14   C     C_R   0.296343 0.749993 0.592719 0.789321
C15   C     C_R   0.203661 0.249990 0.407281 0.791301
C16   C     C_R   0.796343 0.249993 0.592719 0.790486
C17   C     C_R   0.974071 0.726698 0.974831 -0.018959
C18   C     C_R   0.022657 0.776102 0.024972 -0.017673
C19   C     C_R   0.463379 0.260763 0.974700 -0.017650
C20   C     C_R   0.535483 0.232934 0.024944 -0.017727
C21   C     C_R   0.973247 0.750847 0.949071 0.076987
C22   C     C_R   0.025076 0.751126 0.050630 0.076833
C23   C     C_R   0.474390 0.247921 0.949074 0.076651
C24   C     C_R   0.525539 0.247584 0.050570 0.076657
C25   C     C_R   0.998180 0.775281 0.973914 0.080101
C26   C     C_R   0.001734 0.725984 0.025661 0.079592
C27   C     C_R   0.510888 0.234798 0.974038 0.080233
C28   C     C_R   0.490009 0.262343 0.025607 0.080293
C29   C     C_R   0.946381 0.704320 0.948930 -0.254192
C30   C     C_R   0.045038 0.801110 0.051363 -0.252514
C31   C     C_R   0.425989 0.271767 0.948467 -0.253625
C32   C     C_R   0.569922 0.216936 0.051176 -0.253698
C33   C     C_R   0.919917 0.704458 0.898986 0.362419
C34   C     C_R   0.070393 0.801424 0.101374 0.360901
C35   C     C_R   0.400599 0.271917 0.898493 0.361786
C36   C     C_R   0.595183 0.216573 0.101150 0.362797
C37   C     C_R   0.921185 0.727024 0.872725 -0.147763
C38   C     C_R   0.073336 0.776493 0.127345 -0.148463
C39   C     C_R   0.411623 0.259849 0.872500 -0.147054
C40   C     C_R   0.585988 0.231747 0.127141 -0.146789
C41   C     C_R   0.947359 0.750540 0.898000 -0.084248
C42   C     C_R   0.051012 0.751219 0.101717 -0.084262
C43   C     C_R   0.448774 0.248251 0.898026 -0.084258
C44   C     C_R   0.551346 0.247582 0.101617 -0.084483
C45   C     C_R   0.947728 0.773820 0.872145 -0.003403
C46   C     C_R   0.054608 0.725890 0.127235 -0.002421
C47   C     C_R   0.460433 0.236973 0.872449 -0.002158
C48   C     C_R   0.542448 0.263531 0.127198 -0.001463
C49   C     C_R   0.973222 0.797229 0.896868 -0.137297
C50   C     C_R   0.033071 0.700711 0.102200 -0.137403
C51   C     C_R   0.497063 0.225519 0.897394 -0.137622
C52   C     C_R   0.508330 0.279229 0.102256 -0.137885
C53   C     C_R   0.997917 0.798002 0.946591 -0.190709
C54   C     C_R   0.007249 0.700677 0.052522 -0.193981
C55   C     C_R   0.521766 0.224367 0.947059 -0.191679
C56   C     C_R   0.482598 0.278637 0.052590 -0.191781
C57   C     C_R   0.897604 0.726835 0.822037 0.584327
C58   C     C_R   0.097033 0.776072 0.178082 0.582588
C59   C     C_R   0.386575 0.258159 0.821830 0.580487
C60   C     C_R   0.609622 0.231063 0.177803 0.581252
N1    N     N_R   0.898244 0.749956 0.797942 -0.464307
N2    N     N_R   0.100593 0.750922 0.201882 -0.462857
N3    N     N_R   0.399132 0.248110 0.797935 -0.461684
N4    N     N_R   0.600946 0.247669 0.201708 -0.461347
C61   C     C_R   0.922564 0.773212 0.821858 0.554469
C62   C     C_R   0.080182 0.726035 0.177501 0.551751
C63   C     C_R   0.435354 0.237763 0.822214 0.553923
C64   C     C_R   0.568179 0.263847 0.177436 0.553675
H1    H     H_    0.943107 0.687036 0.966764 0.176579
H2    H     H_    0.043665 0.821159 0.034170 0.175686
H3    H     H_    0.415273 0.280532 0.965825 0.175571
H4    H     H_    0.578298 0.204206 0.033818 0.175680
O33   O     O_2   0.874946 0.703476 0.796827 -0.453886
O34   O     O_2   0.115692 0.800681 0.203635 -0.451667
O35   O     O_2   0.349704 0.265727 0.796422 -0.454732
O36   O     O_2   0.640511 0.213423 0.203183 -0.456125
O37   O     O_2   0.922299 0.795752 0.796986 -0.529705
O38   O     O_2   0.084762 0.701389 0.201879 -0.531468
O39   O     O_2   0.447172 0.228402 0.797782 -0.533098
O40   O     O_2   0.560583 0.280344 0.201883 -0.535542
H5    H     H_    0.974340 0.815195 0.877801 0.191532
H6    H     H_    0.035999 0.680745 0.120970 0.192315
H7    H     H_    0.506910 0.217226 0.878557 0.191881
H8    H     H_    0.501184 0.292088 0.121098 0.191452
H9    H     H_    0.017139 0.816520 0.962411 0.151846
H10   H     H_    0.992709 0.680055 0.036125 0.154697
H11   H     H_    0.549705 0.215881 0.963208 0.152538
H12   H     H_    0.457534 0.291986 0.036440 0.152535
C65   C     C_R   0.885828 0.745467 0.720788 -0.087555
C66   C     C_R   0.113718 0.745887 0.279543 -0.083446
C67   C     C_R   0.363934 0.222687 0.719884 -0.086997
C68   C     C_R   0.615649 0.238271 0.279503 -0.087470
H13   H     H_    0.915940 0.742429 0.739687 0.154725
H14   H     H_    0.083622 0.743108 0.260993 0.159694
H15   H     H_    0.375432 0.201677 0.738087 0.162661
H16   H     H_    0.586977 0.230248 0.261098 0.162146
C69   C     C_R   0.860510 0.744842 0.670790 -0.258776
C70   C     C_R   0.139289 0.745045 0.329508 -0.261333
C71   C     C_R   0.339030 0.223508 0.669911 -0.254878
C72   C     C_R   0.641136 0.238549 0.329448 -0.258061
H17   H     H_    0.871650 0.741759 0.651737 0.173350
H18   H     H_    0.128362 0.741892 0.348797 0.173842
H19   H     H_    0.331827 0.203003 0.650258 0.174723
H20   H     H_    0.631288 0.231168 0.348692 0.180400
C73   C     C_R   0.821309 0.748761 0.645527 -0.150091
C74   C     C_R   0.178441 0.748931 0.354453 -0.149161
C75   C     C_R   0.322874 0.250379 0.645462 -0.154971
C76   C     C_R   0.678705 0.248490 0.354315 -0.157018
C77   C     C_R   0.807480 0.752718 0.671382 0.304556
C78   C     C_R   0.191968 0.753059 0.328291 0.302614
C79   C     C_R   0.332791 0.276813 0.672076 0.306081
C80   C     C_R   0.690647 0.257839 0.327874 0.303344
C81   C     C_R   0.833365 0.753612 0.721623 -0.148319
C82   C     C_R   0.165831 0.754147 0.278062 -0.147155
C83   C     C_R   0.358519 0.275806 0.722171 -0.134954
C84   C     C_R   0.664354 0.258247 0.277697 -0.146099
H21   H     H_    0.823145 0.756463 0.741778 0.186688
H22   H     H_    0.175893 0.756965 0.257723 0.188637
H23   H     H_    0.366423 0.296097 0.742517 0.186551
H24   H     H_    0.673242 0.265497 0.257314 0.192612
C85   C     C_R   0.872374 0.749924 0.746389 0.281371
C86   C     C_R   0.126815 0.750514 0.253528 0.273890
C87   C     C_R   0.373797 0.248828 0.746324 0.270006
C88   C     C_R   0.627024 0.248275 0.253326 0.273044
C89   C     C_3   0.605576 0.609833 0.458668 -0.146889
C90   C     C_3   0.394736 0.610046 0.541564 -0.144635
C91   C     C_3   0.109375 0.107422 0.461494 -0.143032
C92   C     C_3   0.890804 0.107574 0.538624 -0.145175
C93   C     C_3   0.602094 0.643506 0.463225 -0.156292
C94   C     C_3   0.397948 0.643695 0.536509 -0.154897
C95   C     C_3   0.102719 0.141183 0.459858 -0.152342
C96   C     C_3   0.897304 0.141339 0.539939 -0.155764
H25   H     H_    0.583453 0.659010 0.432927 0.145953
H26   H     H_    0.416612 0.659354 0.566566 0.146364
H27   H     H_    0.084619 0.154794 0.426870 0.145697
H28   H     H_    0.915433 0.155065 0.572801 0.145910
H29   H     H_    0.589328 0.597160 0.424618 0.149984
H30   H     H_    0.411229 0.597549 0.575781 0.151227
H31   H     H_    0.096279 0.092785 0.429854 0.151154
H32   H     H_    0.904057 0.093047 0.570405 0.150824
H33   H     H_    0.580273 0.647929 0.508295 0.146138
H34   H     H_    0.419254 0.647884 0.490836 0.145376
H35   H     H_    0.074472 0.148062 0.496940 0.143349
H36   H     H_    0.925252 0.148091 0.502462 0.145278
C97   C     C_1   0.687428 0.687361 0.500067 -0.125873
C98   C     C_1   0.312575 0.687361 0.499939 -0.127729
C99   C     C_1   0.187399 0.187353 0.500001 -0.154127
C100  C     C_1   0.812575 0.187360 0.499939 -0.134552
C101  C     C_1   0.562594 0.562547 0.499959 -0.145922
C102  C     C_1   0.437418 0.562547 0.500065 -0.146476
C103  C     C_1   0.062595 0.062537 0.499946 -0.147005
C104  C     C_1   0.937418 0.062545 0.500068 -0.146335
C105  C     C_3   0.649469 0.612214 0.495528 -0.145710
C106  C     C_3   0.350814 0.612238 0.504993 -0.145408
C107  C     C_3   0.152601 0.112105 0.501605 -0.144749
C108  C     C_3   0.847533 0.112117 0.498644 -0.145189
C109  C     C_3   0.645638 0.645538 0.500085 0.164694
C110  C     C_3   0.354374 0.645538 0.499939 0.166197
C111  C     C_3   0.145596 0.145516 0.499968 0.170297
C112  C     C_3   0.854382 0.145534 0.499959 0.165876
C113  C     C_3   0.647983 0.606392 0.536879 -0.141474
C114  C     C_3   0.352004 0.606204 0.463444 -0.146045
C115  C     C_3   0.147292 0.108670 0.540047 -0.146839
C116  C     C_3   0.852661 0.108549 0.460054 -0.142638
C117  C     C_3   0.604438 0.604360 0.500017 0.166931
C118  C     C_3   0.395578 0.604360 0.500016 0.168507
C119  C     C_3   0.104416 0.104337 0.499937 0.171472
C120  C     C_3   0.895584 0.104355 0.500034 0.167807
C121  C     C_3   0.644503 0.640067 0.541437 -0.134047
C122  C     C_3   0.355214 0.639854 0.458389 -0.138748
C123  C     C_3   0.140637 0.142430 0.538410 -0.151695
C124  C     C_3   0.859160 0.142315 0.461369 -0.137730
C125  C     C_3   0.600609 0.637685 0.504576 -0.155698
C126  C     C_3   0.399138 0.637661 0.494961 -0.154810
C127  C     C_3   0.097412 0.137748 0.498300 -0.154643
C128  C     C_3   0.902432 0.137772 0.501348 -0.156177
C129  C     C_1   0.668582 0.668490 0.500093 -0.036812
C130  C     C_1   0.331425 0.668490 0.499922 -0.039298
C131  C     C_1   0.168541 0.168474 0.499987 -0.050915
C132  C     C_1   0.831431 0.168487 0.499935 -0.039622
C133  C     C_1   0.581471 0.581411 0.499974 -0.043926
C134  C     C_1   0.418545 0.581411 0.500058 -0.045177
C135  C     C_1   0.081463 0.081394 0.499932 -0.047002
C136  C     C_1   0.918548 0.081407 0.500068 -0.044594
H37   H     H_    0.660755 0.652743 0.575484 0.163347
H38   H     H_    0.338718 0.652354 0.424174 0.158509
H39   H     H_    0.153734 0.157067 0.570052 0.147999
H40   H     H_    0.845905 0.156843 0.429588 0.160752
H41   H     H_    0.666625 0.590888 0.567177 0.156783
H42   H     H_    0.333333 0.590544 0.433388 0.152710
H43   H     H_    0.165393 0.095058 0.573035 0.149490
H44   H     H_    0.834531 0.094824 0.427192 0.154993
H45   H     H_    0.669805 0.601971 0.491809 0.153565
H46   H     H_    0.330697 0.602015 0.509118 0.153194
H47   H     H_    0.175541 0.101791 0.502966 0.151035
H48   H     H_    0.824713 0.101798 0.497529 0.152987
C137  C     C_R   0.513541 0.777195 0.025473 0.041713
C138  C     C_R   0.486538 0.777196 0.974553 0.041834
C139  C     C_R   0.013546 0.277196 0.025473 0.041823
C140  C     C_R   0.986541 0.277198 0.974552 0.041650
C141  C     C_R   0.525400 0.749891 0.050664 0.070516
C142  C     C_R   0.474666 0.749894 0.949336 0.070531
C143  C     C_R   0.025402 0.249893 0.050664 0.070704
C144  C     C_R   0.974667 0.249895 0.949336 0.070709
C145  C     C_R   0.512028 0.722588 0.025456 0.041753
C146  C     C_R   0.488028 0.722589 0.974518 0.041594
C147  C     C_R   0.012026 0.222589 0.025456 0.041665
C148  C     C_R   0.988027 0.222590 0.974518 0.041843
C149  C     C_R   0.529482 0.803641 0.052338 -0.198561
C150  C     C_R   0.470608 0.803643 0.947713 -0.198654
C151  C     C_R   0.029489 0.303642 0.052337 -0.197976
C152  C     C_R   0.970614 0.303644 0.947713 -0.197835
C153  C     C_R   0.554983 0.803312 0.102121 -0.138411
C154  C     C_R   0.445104 0.803317 0.897930 -0.138750
C155  C     C_R   0.054990 0.303313 0.102121 -0.137997
C156  C     C_R   0.945109 0.303318 0.897929 -0.137379
C157  C     C_R   0.565655 0.776663 0.127248 -0.021954
C158  C     C_R   0.434417 0.776669 0.872777 -0.021698
C159  C     C_R   0.065660 0.276664 0.127248 -0.021841
C160  C     C_R   0.934420 0.276670 0.872777 -0.022230
C161  C     C_R   0.550937 0.749891 0.101679 -0.043354
C162  C     C_R   0.449125 0.749896 0.898321 -0.043343
C163  C     C_R   0.050939 0.249893 0.101679 -0.043277
C164  C     C_R   0.949126 0.249897 0.898321 -0.043272
C165  C     C_R   0.561815 0.723121 0.127247 -0.021526
C166  C     C_R   0.438234 0.723127 0.872727 -0.021866
C167  C     C_R   0.061814 0.223123 0.127247 -0.021889
C168  C     C_R   0.938232 0.223128 0.872727 -0.021478
C169  C     C_R   0.547341 0.696471 0.102116 -0.138978
C170  C     C_R   0.452700 0.696476 0.897832 -0.138333
C171  C     C_R   0.047338 0.196473 0.102116 -0.137938
C172  C     C_R   0.952696 0.196477 0.897833 -0.138584
C173  C     C_R   0.522998 0.696142 0.052325 -0.198556
C174  C     C_R   0.477046 0.696145 0.947623 -0.198403
C175  C     C_R   0.022994 0.196143 0.052326 -0.198021
C176  C     C_R   0.977042 0.196145 0.947623 -0.198185
C177  C     C_R   0.591108 0.776167 0.177619 0.536935
C178  C     C_R   0.408957 0.776175 0.822406 0.536772
C179  C     C_R   0.091113 0.276168 0.177618 0.537073
C180  C     C_R   0.908960 0.276176 0.822406 0.537451
N5    N     N_R   0.601042 0.749896 0.201832 -0.465586
N6    N     N_R   0.399008 0.749905 0.798168 -0.465615
N7    N     N_R   0.101044 0.249897 0.201832 -0.465663
N8    N     N_R   0.899008 0.249905 0.798168 -0.465654
C181  C     C_R   0.586764 0.723620 0.177622 0.536579
C182  C     C_R   0.413279 0.723629 0.822353 0.536954
C183  C     C_R   0.086764 0.223622 0.177622 0.537237
C184  C     C_R   0.913277 0.223629 0.822353 0.536872
H49   H     H_    0.523512 0.825101 0.036003 0.144524
H50   H     H_    0.476589 0.825103 0.964069 0.144370
H51   H     H_    0.023521 0.325102 0.036002 0.144812
H52   H     H_    0.976597 0.325104 0.964068 0.145009
H53   H     H_    0.566299 0.824204 0.120884 0.190408
H54   H     H_    0.433796 0.824210 0.879187 0.190115
H55   H     H_    0.066308 0.324205 0.120883 0.190467
H56   H     H_    0.933803 0.324211 0.879187 0.190934
O41   O     O_2   0.606067 0.801744 0.202180 -0.535795
O42   O     O_2   0.394007 0.801753 0.797870 -0.536319
O43   O     O_2   0.106075 0.301746 0.202179 -0.535872
O44   O     O_2   0.894011 0.301754 0.797870 -0.534850
O45   O     O_2   0.596388 0.698045 0.202190 -0.537773
O46   O     O_2   0.403640 0.698055 0.797759 -0.536744
O47   O     O_2   0.096385 0.198047 0.202191 -0.536511
O48   O     O_2   0.903636 0.198055 0.797760 -0.537588
H57   H     H_    0.554814 0.675578 0.120881 0.189987
H58   H     H_    0.445216 0.675585 0.879047 0.190437
H59   H     H_    0.054809 0.175580 0.120882 0.190566
H60   H     H_    0.945210 0.175585 0.879047 0.190087
H61   H     H_    0.512626 0.674680 0.035996 0.144528
H62   H     H_    0.487410 0.674683 0.963932 0.144692
H63   H     H_    0.012621 0.174682 0.035996 0.144874
H64   H     H_    0.987404 0.174683 0.963932 0.144700
C185  C     C_R   0.661784 0.735094 0.278783 -0.098914
C186  C     C_R   0.338248 0.735103 0.721219 -0.098947
C187  C     C_R   0.161785 0.235094 0.278783 -0.098602
C188  C     C_R   0.838247 0.235105 0.721219 -0.098535
H65   H     H_    0.669686 0.723713 0.259642 0.151741
H66   H     H_    0.330352 0.723721 0.740361 0.151785
H67   H     H_    0.169686 0.223711 0.259643 0.151867
H68   H     H_    0.830351 0.223724 0.740361 0.151897
C189  C     C_R   0.686713 0.734987 0.328815 -0.210330
C190  C     C_R   0.313307 0.734995 0.671187 -0.209930
C191  C     C_R   0.186714 0.234986 0.328816 -0.210100
C192  C     C_R   0.813306 0.234996 0.671187 -0.210072
H69   H     H_    0.713520 0.723392 0.347462 0.165489
H70   H     H_    0.286498 0.723398 0.652542 0.165635
H71   H     H_    0.213519 0.223390 0.347462 0.165594
H72   H     H_    0.786496 0.223401 0.652542 0.165548
C193  C     C_R   0.677233 0.749953 0.354368 -0.039246
C194  C     C_R   0.322781 0.749962 0.645632 -0.039350
C195  C     C_R   0.177234 0.249955 0.354368 -0.040356
C196  C     C_R   0.822781 0.249962 0.645632 -0.039889
C197  C     C_R   0.642256 0.764889 0.328882 -0.209130
C198  C     C_R   0.357762 0.764901 0.671116 -0.208989
C199  C     C_R   0.142259 0.264893 0.328882 -0.208132
C200  C     C_R   0.857763 0.264899 0.671116 -0.208420
H73   H     H_    0.634100 0.776503 0.347578 0.167045
H74   H     H_    0.365912 0.776515 0.652418 0.167201
H75   H     H_    0.134104 0.276509 0.347577 0.167468
H76   H     H_    0.865914 0.276512 0.652418 0.167477
C201  C     C_R   0.617204 0.764734 0.278854 -0.097911
C202  C     C_R   0.382825 0.764746 0.721144 -0.097527
C203  C     C_R   0.117208 0.264738 0.278854 -0.097196
C204  C     C_R   0.882826 0.264745 0.721144 -0.097376
H77   H     H_    0.590209 0.776099 0.259770 0.152619
H78   H     H_    0.409823 0.776112 0.740226 0.152800
H79   H     H_    0.090214 0.276105 0.259769 0.153094
H80   H     H_    0.909825 0.276110 0.740226 0.153050
C205  C     C_R   0.626827 0.749905 0.253458 0.342127
C206  C     C_R   0.373210 0.749915 0.746542 0.341961
C207  C     C_R   0.126830 0.249907 0.253458 0.341698
C208  C     C_R   0.873210 0.249916 0.746542 0.341753
C209  C     C_3   0.911287 0.872318 0.539408 -0.211422
C210  C     C_3   0.088696 0.872286 0.460590 -0.211247
C211  C     C_3   0.411771 0.370698 0.537110 -0.210779
C212  C     C_3   0.588781 0.372512 0.460306 -0.210712
C213  C     C_3   0.877544 0.878015 0.539762 -0.201498
C214  C     C_3   0.122416 0.877983 0.460192 -0.200251
C215  C     C_3   0.380372 0.376282 0.541941 -0.188547
C216  C     C_3   0.622801 0.378209 0.460506 -0.200726
H81   H     H_    0.879406 0.880485 0.571962 0.167217
H82   H     H_    0.120531 0.880426 0.427973 0.168424
H83   H     H_    0.384523 0.377331 0.575867 0.178345
H84   H     H_    0.621227 0.380837 0.428541 0.167832
H85   H     H_    0.941555 0.869993 0.571625 0.160194
H86   H     H_    0.058423 0.869934 0.428392 0.160551
H87   H     H_    0.442378 0.367036 0.567300 0.162829
H88   H     H_    0.558572 0.370344 0.427860 0.160939
C217  C     C_1   0.812555 0.812612 0.500051 -0.153881
C218  C     C_1   0.187442 0.812612 0.499943 -0.153313
C219  C     C_1   0.312590 0.312615 0.500136 -0.136844
C220  C     C_1   0.687446 0.312612 0.499950 -0.152862
C221  C     C_1   0.937416 0.937521 0.500085 -0.129844
C222  C     C_1   0.062573 0.937520 0.499892 -0.130006
C223  C     C_1   0.437415 0.437527 0.500100 -0.129271
C224  C     C_1   0.562573 0.437521 0.499893 -0.129183
C225  C     C_3   0.887532 0.848469 0.499910 -0.130857
C226  C     C_3   0.112480 0.848469 0.500115 -0.131140
C227  C     C_3   0.385256 0.348586 0.495588 -0.131894
C228  C     C_3   0.612190 0.348470 0.499532 -0.130398
C229  C     C_3   0.854121 0.854579 0.500100 0.125581
C230  C     C_3   0.145869 0.854579 0.499881 0.125430
C231  C     C_3   0.354184 0.354590 0.500255 0.121773
C232  C     C_3   0.645877 0.354580 0.499896 0.124900
C233  C     C_3   0.871856 0.872464 0.460627 -0.211097
C234  C     C_3   0.128159 0.872496 0.539371 -0.211648
C235  C     C_3   0.369150 0.374212 0.458744 -0.211332
C236  C     C_3   0.627791 0.372271 0.539086 -0.210714
C237  C     C_3   0.895408 0.896008 0.500124 0.079545
C238  C     C_3   0.104578 0.896008 0.499847 0.079634
C239  C     C_3   0.395455 0.396021 0.500252 0.077534
C240  C     C_3   0.604584 0.396008 0.499859 0.078856
C241  C     C_3   0.837951 0.878162 0.460653 -0.201855
C242  C     C_3   0.162042 0.878194 0.539301 -0.202580
C243  C     C_3   0.337577 0.379812 0.463250 -0.203997
C244  C     C_3   0.661971 0.377968 0.539614 -0.201644
C245  C     C_3   0.862165 0.901307 0.500309 0.389975
C246  C     C_3   0.137799 0.901307 0.499619 0.389999
C247  C     C_3   0.364493 0.401217 0.504806 0.386363
C248  C     C_3   0.638096 0.401307 0.500215 0.389316
C249  C     C_1   0.831340 0.831529 0.500076 -0.017424
C250  C     C_1   0.168654 0.831529 0.499913 -0.017136
C251  C     C_1   0.331391 0.331537 0.500200 -0.005620
C252  C     C_1   0.668660 0.331530 0.499924 -0.016022
C253  C     C_1   0.918491 0.918770 0.500115 0.022257
C254  C     C_1   0.081494 0.918770 0.499856 0.022239
C255  C     C_1   0.418506 0.418781 0.500172 0.023983
C256  C     C_1   0.581497 0.418770 0.499861 0.022985
H89   H     H_    0.807662 0.880751 0.428613 0.166494
H90   H     H_    0.192335 0.880810 0.571321 0.166054
H91   H     H_    0.306978 0.383730 0.433277 0.167396
H92   H     H_    0.692204 0.380401 0.571887 0.167087
H93   H     H_    0.869797 0.870258 0.428253 0.160194
H94   H     H_    0.130240 0.870316 0.571763 0.159753
H95   H     H_    0.364814 0.373430 0.424685 0.160812
H96   H     H_    0.629562 0.369906 0.571230 0.160871
H97   H     H_    0.897836 0.826221 0.499743 0.146493
H98   H     H_    0.102196 0.826221 0.500323 0.146475
H99   H     H_    0.393645 0.326423 0.491751 0.148320
H100  H     H_    0.601661 0.326222 0.499249 0.147185
O49   O     O_R   0.010090 0.969760 0.459650 -0.576334
O50   O     O_R   0.989910 0.969760 0.540350 -0.577130
O51   O     O_R   0.510090 0.469760 0.459650 -0.577255
O52   O     O_R   0.489910 0.469760 0.540350 -0.574526
O53   O     O_R   0.050450 0.969750 0.540370 -0.577308
O54   O     O_R   0.949550 0.969750 0.459630 -0.576299
O55   O     O_R   0.550450 0.469750 0.540370 -0.575791
O56   O     O_R   0.449550 0.469750 0.459630 -0.578482
C257  C     C_R   0.040123 0.959887 0.499972 0.818461
C258  C     C_R   0.959873 0.959887 0.500020 0.818576
C259  C     C_R   0.540123 0.459887 0.499972 0.818454
C260  C     C_R   0.459872 0.459889 0.500022 0.818292
O57   O     O_R   0.510080 0.530210 0.459650 -0.577071
O58   O     O_R   0.489920 0.530210 0.540350 -0.575039
O59   O     O_R   0.010080 0.030210 0.459650 -0.575616
O60   O     O_R   0.989920 0.030210 0.540350 -0.577014
O61   O     O_R   0.550430 0.530200 0.540370 -0.574704
O62   O     O_R   0.449570 0.530200 0.459630 -0.577090
O63   O     O_R   0.050430 0.030200 0.540370 -0.576833
O64   O     O_R   0.949570 0.030200 0.459630 -0.574896
C261  C     C_R   0.540137 0.540089 0.499990 0.825410
C262  C     C_R   0.459866 0.540090 0.500017 0.825363
C263  C     C_R   0.040138 0.040087 0.499989 0.825698
C264  C     C_R   0.959866 0.040089 0.500017 0.825651
Cu9   Cu    Cu3+1 0.976130 0.999980 0.452210 0.999999
Cu10  Cu    Cu3+1 0.023870 0.999980 0.547790 0.995395
Cu11  Cu    Cu3+1 0.476130 0.499980 0.452210 0.995202
Cu12  Cu    Cu3+1 0.523870 0.499980 0.547790 1.002854
N9    N     N_R   0.890778 0.682243 0.876143 0.166578
O65   O     O_R   0.899893 0.654604 0.888098 -0.323164
O66   O     O_R   0.855376 0.690102 0.851689 -0.286649
N10   N     N_R   0.094124 0.826975 0.124681 0.166875
O67   O     O_R   0.078845 0.853171 0.113646 -0.319271
O68   O     O_R   0.130602 0.824636 0.148301 -0.282705
N11   N     N_R   0.364438 0.285930 0.875238 0.167084
O69   O     O_R   0.343235 0.278305 0.886558 -0.321498
O70   O     O_R   0.356756 0.310289 0.851362 -0.282400
N12   N     N_R   0.630912 0.201823 0.124415 0.166638
O71   O     O_R   0.631561 0.174657 0.112964 -0.322219
O72   O     O_R   0.662123 0.217274 0.148471 -0.285761
N13   N     N_R   0.847613 0.930009 0.500530 0.125775
O73   O     O_R   0.818964 0.931347 0.500672 -0.331850
O74   O     O_R   0.862988 0.954333 0.500588 -0.348251
N14   N     N_R   0.152325 0.930009 0.499344 0.125860
O75   O     O_R   0.180958 0.931347 0.499170 -0.330483
O76   O     O_R   0.136943 0.954333 0.499270 -0.348639
N15   N     N_R   0.352487 0.429805 0.509904 0.127357
O77   O     O_R   0.325618 0.431062 0.513457 -0.321060
O78   O     O_R   0.368371 0.454107 0.510940 -0.347151
N16   N     N_R   0.652946 0.430009 0.500592 0.126188
O79   O     O_R   0.681806 0.431348 0.500873 -0.330348
O80   O     O_R   0.637630 0.454334 0.500650 -0.347557
N17   N     N_R   0.767478 0.754418 0.647623 0.137101
O81   O     O_R   0.755368 0.770764 0.665423 -0.325579
O82   O     O_R   0.743930 0.736124 0.613116 -0.351571
N18   N     N_R   0.231910 0.754749 0.351706 0.133607
O83   O     O_R   0.243834 0.771164 0.333750 -0.313513
O84   O     O_R   0.255567 0.736429 0.386075 -0.359553
N19   N     N_R   0.318155 0.304916 0.649024 0.125437
O85   O     O_R   0.341597 0.325408 0.656657 -0.336091
O86   O     O_R   0.283541 0.312226 0.630423 -0.296109
N20   N     N_R   0.729505 0.265408 0.350908 0.140556
O87   O     O_R   0.737229 0.286979 0.334244 -0.323527
O88   O     O_R   0.756669 0.247490 0.382244 -0.336068

loop_
_geom_bond_atom_site_label_1
_geom_bond_atom_site_label_2
_geom_bond_distance
_ccdc_geom_bond_type
N6    C206  1.441039 S    
C59   N3    1.369670 A    
C32   H4    1.076623 S    
C149  C153  1.390011 A    
C47   C51   1.396339 A    
C151  H51   1.076545 S    
C170  C174  1.390049 A    
C91   H31   1.110082 S    
C160  C164  1.407639 A    
C137  C149  1.415718 A    
C233  H93   1.110066 S    
C158  C162  1.407639 A    
C163  C167  1.407645 A    
C180  N8    1.370037 A    
C187  C207  1.402749 A    
C141  C145  1.421039 A    
C39   C59   1.416414 A    
C82   H22   1.083244 S    
C159  C163  1.407639 A    
C48   C64   1.402680 A    
C58   O34   1.348127 S    
C107  C115  1.549532 S    
C20   C32   1.411467 A    
C1    C97   1.436237 S    
C238  C254  1.465940 S    
C60   N4    1.369711 A    
C105  C113  1.549535 S    
Cu6   O22   1.943892 S    
O52   C260  1.291324 A    
O62   C262  1.291765 A    
C222  C254  1.205008 T    
C64   O40   1.349894 S    
C24   C44   1.424966 A    
C177  N5    1.370036 A    
O60   C264  1.291964 A    
C74   C78   1.418572 A    
C139  C140  1.423195 A    
N14   O75   1.300209 A    
N9    O66   1.301399 A    
C121  C125  1.549549 S    
C30   C34   1.396135 A    
O49   Cu9   1.944453 S    
C92   C120  1.536767 S    
C110  C130  1.467256 S    
C79   C83   1.399453 A    
C108  C116  1.549532 S    
C40   C44   1.415041 A    
O11   C7    1.290503 A    
C118  C126  1.536811 S    
N13   O74   1.300260 A    
C185  C205  1.402749 A    
C145  C146  1.423245 A    
C62   O38   1.349903 S    
C223  C255  1.205013 T    
C107  H47   1.110085 S    
C66   H14   1.082810 S    
O53   Cu10  1.945617 S    
C106  H46   1.110087 S    
N18   O84   1.301345 A    
C79   N19   1.431260 S    
C23   C27   1.421395 A    
Cu1   Cu5   2.650276 S    
Cu3   Cu7   2.650276 S    
C44   C48   1.410093 A    
Cu4   Cu8   2.650216 S    
C218  C250  1.205019 T    
C46   C50   1.396823 A    
Cu1   O25   1.957879 S    
C201  H77   1.082835 S    
C232  C252  1.464941 S    
C91   C95   1.549541 S    
Cu3   O19   1.944158 S    
C58   N2    1.369454 A    
O55   C259  1.291207 A    
Cu4   O28   1.957799 S    
O13   C5    1.288620 A    
O64   C264  1.291771 A    
Cu5   O29   1.956933 S    
C116  H44   1.110085 S    
O15   C7    1.287117 A    
O63   C263  1.291797 A    
C38   C42   1.415244 A    
O11   Cu3   1.956927 S    
C197  H73   1.082887 S    
C149  H49   1.076545 S    
C116  C124  1.549544 S    
C237  C253  1.465914 S    
C71   H19   1.083363 S    
O2    Cu2   1.943892 S    
C28   C56   1.414247 A    
C227  C231  1.540161 S    
O10   Cu2   1.957006 S    
C189  H69   1.082883 S    
C65   H13   1.082778 S    
C188  C208  1.402745 A    
O6    Cu6   1.944202 S    
C172  H60   1.083453 S    
C212  H88   1.110065 S    
N20   O88   1.301447 A    
O19   C11   1.285934 A    
C180  O44   1.349640 S    
C36   N12   1.434199 S    
C19   C23   1.416325 A    
O62   Cu11  1.944670 S    
C147  C175  1.415734 A    
C66   C70   1.395491 A    
O63   Cu10  1.944696 S    
C103  C135  1.206301 T    
C211  C227  1.552691 S    
C94   H26   1.110086 S    
C175  H63   1.076540 S    
C114  C118  1.536820 S    
O61   C261  1.291775 A    
C91   C107  1.549549 S    
C11   C219  1.434119 S    
C244  C248  1.536117 S    
C47   C63   1.402677 A    
N4    C88   1.441158 S    
C17   C21   1.415900 A    
C236  C244  1.555339 S    
C93   C125  1.549509 S    
C210  C238  1.542095 S    
C237  C245  1.526386 S    
C176  H64   1.076540 S    
C20   C24   1.416344 A    
C234  H94   1.110069 S    
C166  C170  1.396690 A    
O60   Cu10  1.944462 S    
C178  O42   1.349638 S    
C95   H27   1.110088 S    
C81   C85   1.399647 A    
C191  H71   1.082884 S    
Cu9   Cu10  2.667906 S    
O3    C3    1.286403 A    
C21   C25   1.422046 A    
C65   C69   1.395957 A    
C188  C192  1.396548 A    
N11   O70   1.301335 A    
C33   C37   1.414313 A    
O64   Cu9   1.944670 S    
N3    C63   1.366527 A    
C96   C128  1.549518 S    
C35   C39   1.414427 A    
C226  C234  1.552678 S    
C241  H89   1.110121 S    
C209  C213  1.555375 S    
C190  C194  1.405798 A    
C221  C258  1.434105 S    
O23   C11   1.285731 A    
C119  C135  1.467259 S    
O57   Cu11  1.944343 S    
C203  H79   1.082839 S    
C89   H29   1.110085 S    
C159  C179  1.406249 A    
C140  C144  1.421030 A    
C17   C26   1.423029 A    
C199  C203  1.396439 A    
C230  C250  1.464941 S    
C189  C193  1.405798 A    
N13   O73   1.300209 A    
C98   C130  1.206267 T    
C56   H12   1.076680 S    
C236  H96   1.110068 S    
C80   N20   1.436090 S    
C24   C28   1.421375 A    
C173  H61   1.076540 S    
C235  C239  1.542085 S    
C102  C134  1.206351 T    
C104  C264  1.436462 S    
O49   C257  1.291377 A    
C52   C56   1.387266 A    
C179  O43   1.349639 S    
C77   C81   1.403447 A    
C202  C206  1.402707 A    
C213  C245  1.536133 S    
C186  C190  1.396548 A    
C13   C193  1.476940 S    
C168  C172  1.396686 A    
C20   C27   1.423879 A    
C37   C57   1.416960 A    
C171  H59   1.083453 S    
O20   C12   1.285879 A    
O8    C4    1.286296 A    
C192  H72   1.082885 S    
C66   C86   1.400355 A    
C113  H41   1.110083 S    
O29   C13   1.289716 A    
C200  H76   1.082886 S    
C51   H7    1.083535 S    
C137  C138  1.423193 A    
C138  C150  1.415721 A    
C27   C55   1.414249 A    
C122  H38   1.110098 S    
C115  C123  1.549516 S    
C211  C215  1.555412 S    
C46   C62   1.403250 A    
C143  C163  1.423983 A    
C113  C121  1.549564 S    
C240  C256  1.465940 S    
O7    C3    1.286376 A    
C107  C111  1.536784 S    
O56   Cu11  1.945651 S    
C213  H81   1.110120 S    
C224  C256  1.205005 T    
N12   O71   1.301086 A    
C22   C26   1.421143 A    
C83   H23   1.083488 S    
C204  H80   1.082834 S    
C84   H24   1.083334 S    
C111  C131  1.467247 S    
C78   N18   1.437632 S    
N16   O79   1.300216 A    
C83   C87   1.401292 A    
C210  C214  1.555382 S    
C181  O45   1.349633 S    
O50   Cu10  1.944341 S    
C124  C128  1.549532 S    
C75   C79   1.415081 A    
O5    C1    1.286314 A    
C16   C196  1.476941 S    
Cu3   O27   1.957879 S    
C227  H99   1.110049 S    
C18   C25   1.426331 A    
C216  C232  1.540970 S    
C68   H16   1.082834 S    
C225  H97   1.110047 S    
C216  C248  1.536138 S    
C142  C162  1.423986 A    
C65   C85   1.399038 A    
O25   C13   1.289874 A    
C239  C255  1.465954 S    
C233  C237  1.542095 S    
O27   C15   1.289873 A    
C90   C94   1.549515 S    
C179  N7    1.370041 A    
C177  O41   1.349639 S    
O4    C4    1.286454 A    
Cu2   O26   1.957799 S    
C93   C109  1.536774 S    
O16   Cu8   1.957770 S    
C230  C242  1.540959 S    
O14   C6    1.288719 A    
C215  C247  1.536166 S    
Cu6   O30   1.957001 S    
C36   C40   1.414410 A    
N10   O67   1.301089 A    
C215  H83   1.110130 S    
Cu2   Cu6   2.650216 S    
N17   O82   1.301322 A    
O51   Cu11  1.944453 S    
C150  H50   1.076544 S    
C137  C141  1.421031 A    
C50   H6    1.083496 S    
O10   C6    1.289765 A    
O3    Cu3   1.943855 S    
C186  C206  1.402748 A    
C186  H66   1.082831 S    
C200  C204  1.396444 A    
C21   C41   1.425744 A    
C248  N16   1.457120 S    
C170  H58   1.083451 S    
C89   C117  1.536762 S    
C118  C134  1.467352 S    
C156  C160  1.396674 A    
C2    C98   1.436275 S    
O55   Cu12  1.945617 S    
C96   C112  1.536784 S    
C49   C53   1.388349 A    
C110  C122  1.536759 S    
C34   N10   1.434144 S    
C67   C71   1.395400 A    
C174  H62   1.076541 S    
C51   C55   1.387257 A    
O58   C262  1.291977 A    
C153  C157  1.396674 A    
C168  C184  1.406301 A    
C233  C241  1.555340 S    
N14   O76   1.300259 A    
N9    O65   1.301176 A    
C193  C197  1.405786 A    
H33   C125  1.110086 S    
C41   C45   1.410137 A    
C96   H28   1.110089 S    
C231  C251  1.464878 S    
C10   C218  1.434223 S    
C150  C154  1.390011 A    
C43   C47   1.410087 A    
N5    C205  1.441040 S    
O13   Cu5   1.957840 S    
N7    C207  1.441038 S    
N19   O85   1.300715 A    
C60   O36   1.348289 S    
C209  C237  1.542085 S    
C102  C262  1.436486 S    
O15   Cu7   1.957840 S    
C77   N17   1.437578 S    
C157  C177  1.406252 A    
C142  C146  1.421037 A    
C139  C151  1.415716 A    
C69   C73   1.405695 A    
C115  H43   1.110086 S    
C52   H8    1.083535 S    
C59   O35   1.348290 S    
H36   C128  1.110089 S    
O17   C9    1.285880 A    
C106  C114  1.549531 S    
C212  C216  1.555385 S    
C228  C236  1.552677 S    
C105  H45   1.110084 S    
C165  C169  1.396686 A    
C209  C225  1.552698 S    
C167  C171  1.396685 A    
C222  C257  1.434139 S    
C227  C235  1.552656 S    
C203  C207  1.402704 A    
C158  C178  1.406250 A    
C29   C33   1.395860 A    
C90   H30   1.110082 S    
C108  C112  1.536781 S    
C95   C127  1.549512 S    
C242  H90   1.110119 S    
C239  C247  1.526408 S    
C22   C42   1.426142 A    
C78   C82   1.403781 A    
N11   O69   1.301085 A    
Cu7   O31   1.956933 S    
C89   C93   1.549507 S    
Cu8   O32   1.957001 S    
C61   O37   1.349765 S    
C234  C238  1.542105 S    
C121  H37   1.110100 S    
C109  C129  1.467219 S    
C63   O39   1.349886 S    
N18   O83   1.301359 A    
C82   C86   1.400956 A    
C50   C54   1.387460 A    
C103  C263  1.436394 S    
C100  C132  1.206282 T    
N5    C181  1.370038 A    
O50   C258  1.291347 A    
N7    C183  1.370037 A    
Cu11  Cu12  2.667906 S    
C90   C106  1.549525 S    
N8    C184  1.370042 A    
O1    C1    1.286438 A    
C104  C136  1.206343 T    
C155  H55   1.083455 S    
C70   H18   1.083343 S    
C185  C189  1.396554 A    
C156  H56   1.083452 S    
C45   C49   1.396422 A    
C99   C131  1.206291 T    
C108  H48   1.110084 S    
C94   C110  1.536780 S    
C214  C230  1.540970 S    
C42   C46   1.410406 A    
C7    C75   1.474435 S    
C144  C148  1.421043 A    
C23   C43   1.424987 A    
C152  H52   1.076546 S    
O54   C258  1.291217 A    
C153  H53   1.083454 S    
C68   C88   1.399619 A    
C161  C165  1.407647 A    
C223  C260  1.434144 S    
O21   C9    1.285794 A    
C166  C182  1.406301 A    
C224  C259  1.434134 S    
C151  C155  1.390011 A    
O59   Cu9   1.944343 S    
C37   C41   1.415594 A    
N2    C86   1.441861 S    
C211  H87   1.110062 S    
O30   C14   1.289714 A    
C119  C127  1.536775 S    
C48   C52   1.396337 A    
C185  H65   1.082830 S    
N12   O72   1.301344 A    
C244  H92   1.110117 S    
C140  C152  1.415718 A    
C143  C147  1.421039 A    
C242  C246  1.536115 S    
C139  C143  1.421030 A    
C120  C136  1.467334 S    
C234  C242  1.555333 S    
N4    C64   1.366490 A    
C117  C133  1.467319 S    
O51   C259  1.291380 A    
C210  C226  1.552703 S    
C69   H17   1.083319 S    
C14   C194  1.476941 S    
C182  O46   1.349633 S    
C18   C30   1.412111 A    
C72   H20   1.083138 S    
O52   Cu12  1.944341 S    
O6    C2    1.286306 A    
C247  N15   1.457112 S    
C94   C126  1.549514 S    
C68   C72   1.394406 A    
C67   H15   1.082793 S    
C226  H98   1.110049 S    
C169  C173  1.390051 A    
C188  H68   1.082831 S    
C229  C241  1.540952 S    
N8    C208  1.441039 S    
C92   H32   1.110084 S    
O26   C14   1.289843 A    
C39   C43   1.415069 A    
C198  H74   1.082888 S    
C49   H5    1.083544 S    
C146  C174  1.415733 A    
N16   O80   1.300256 A    
C81   H21   1.083241 S    
C53   H9    1.076187 S    
C124  H40   1.110093 S    
C55   H11   1.076665 S    
C92   C96   1.549525 S    
Cu4   O20   1.944204 S    
N20   O87   1.301273 A    
C34   C38   1.414549 A    
Cu5   O21   1.943855 S    
O53   C257  1.291209 A    
C221  C253  1.204983 T    
C90   C118  1.536770 S    
C212  C228  1.552705 S    
C195  C199  1.405786 A    
C73   C77   1.418867 A    
C5    C73   1.476810 S    
O12   Cu4   1.957006 S    
C123  C127  1.549504 S    
C18   C22   1.417131 A    
C204  C208  1.402711 A    
C226  C230  1.540175 S    
C210  H86   1.110064 S    
C9    C217  1.434192 S    
C32   C36   1.395105 A    
C72   C76   1.406719 A    
O57   C261  1.291958 A    
C190  H70   1.082886 S    
C171  C175  1.390051 A    
O54   Cu9   1.945651 S    
C71   C75   1.404928 A    
C112  C124  1.536761 S    
C97   C129  1.206244 T    
C80   C84   1.401884 A    
C3    C99   1.436339 S    
C70   C74   1.405245 A    
C225  C229  1.540169 S    
C148  C176  1.415733 A    
C33   N9    1.434828 S    
C160  C180  1.406251 A    
O61   Cu12  1.944696 S    
C101  C133  1.206337 T    
C199  H75   1.082887 S    
O59   C263  1.291907 A    
C154  C158  1.396672 A    
C4    C100  1.436301 S    
C219  C251  1.204974 T    
C209  H85   1.110067 S    
C112  C132  1.467271 S    
C145  C173  1.415732 A    
C106  C110  1.536781 S    
C217  C249  1.204999 T    
C113  C117  1.536814 S    
O28   C16   1.289843 A    
C114  H42   1.110121 S    
C95   C111  1.536777 S    
C187  C191  1.396554 A    
C29   H1    1.077611 S    
Cu2   O18   1.944204 S    
O16   C8    1.289321 A    
C31   H3    1.076649 S    
C38   C58   1.418212 A    
C213  C229  1.540965 S    
C117  C125  1.536803 S    
C214  H82   1.110120 S    
O14   Cu6   1.957770 S    
O24   C12   1.285787 A    
C35   N11   1.434147 S    
C30   H2    1.076096 S    
C172  C176  1.390048 A    
C228  C232  1.540177 S    
C101  C261  1.436451 S    
C197  C201  1.396439 A    
C120  C128  1.536797 S    
C183  O47   1.349631 S    
C40   C60   1.416385 A    
O1    Cu1   1.943855 S    
C184  O48   1.349632 S    
O9    Cu1   1.956927 S    
C201  C205  1.402706 A    
C114  C122  1.549557 S    
C45   C61   1.403927 A    
O4    Cu4   1.943892 S    
O5    Cu5   1.944158 S    
C54   H10   1.077533 S    
N1    C61   1.365510 A    
C155  C159  1.396673 A    
C76   C80   1.419449 A    
O18   C10   1.285874 A    
O7    Cu7   1.944158 S    
O9    C5    1.289860 A    
O8    Cu8   1.944202 S    
C6    C74   1.476851 S    
C235  C243  1.555317 S    
N10   O68   1.301328 A    
C8    C76   1.479878 S    
C220  C252  1.205020 T    
C187  H67   1.082831 S    
N17   O81   1.301346 A    
C122  C126  1.549544 S    
C115  C119  1.536784 S    
C157  C161  1.407637 A    
C141  C161  1.423986 A    
C91   C119  1.536773 S    
C19   C28   1.423842 A    
C238  C246  1.526399 S    
N15   O77   1.300210 A    
C243  H91   1.110118 S    
C164  C168  1.407645 A    
H35   C127  1.110091 S    
C211  C239  1.542115 S    
C235  H95   1.110067 S    
C202  H78   1.082834 S    
C116  C120  1.536810 S    
C194  C198  1.405783 A    
N6    C182  1.370039 A    
C246  N14   1.457119 S    
C178  N6    1.370039 A    
C169  H57   1.083457 S    
C191  C195  1.405794 A    
C57   O33   1.348302 S    
O2    C2    1.286432 A    
C216  H84   1.110118 S    
C12   C220  1.434226 S    
C215  C231  1.540949 S    
O31   C15   1.289716 A    
O32   C16   1.289714 A    
C241  C245  1.536117 S    
C93   H25   1.110089 S    
N15   O78   1.300259 A    
C196  C200  1.405787 A    
C225  C233  1.552678 S    
C154  H54   1.083456 S    
C89   C105  1.549516 S    
C162  C166  1.407643 A    
C147  C148  1.423245 A    
N19   O86   1.300687 A    
O22   C10   1.285790 A    
C165  C181  1.406304 A    
C192  C196  1.405795 A    
C138  C142  1.421031 A    
N3    C87   1.441104 S    
C231  C243  1.540952 S    
C152  C156  1.390012 A    
C15   C195  1.476945 S    
N1    C85   1.439001 S    
C232  C244  1.540957 S    
C240  C248  1.526398 S    
C229  C249  1.464902 S    
C31   C35   1.395074 A    
C198  C202  1.396444 A    
C243  C247  1.536111 S    
C105  C109  1.536773 S    
C25   C53   1.414968 A    
Cu7   O23   1.943855 S    
N2    C62   1.366645 A    
C111  C123  1.536770 S    
Cu8   O24   1.943892 S    
C245  N13   1.457121 S    
C109  C121  1.536752 S    
C167  C183  1.406304 A    
O56   C260  1.291262 A    
C84   C88   1.400703 A    
O12   C8    1.290954 A    
C67   C87   1.401144 A    
C92   C108  1.549536 S    
Cu1   O17   1.944158 S    
H34   C126  1.110085 S    
C26   C54   1.413605 A    
C123  H39   1.110086 S    
C236  C240  1.542103 S    
C214  C246  1.536139 S    
C17   C29   1.411373 A    
O58   Cu12  1.944462 S    
C57   N1    1.368436 A    
C144  C164  1.423984 A    
C212  C240  1.542091 S    
C19   C31   1.411437 A    
C228  H100  1.110047 S    
