data_mof_unit_5433.cif
_audit_creation_date              2012-12-10T19:44:58-0500
_audit_creation_method            fapswitch 2.2
_symmetry_space_group_name_H-M    P1
_symmetry_Int_Tables_number       1
_space_group_crystal_system       triclinic
_cell_length_a                    15.078825
_cell_length_b                    10.826543
_cell_length_c                    13.686776
_cell_angle_alpha                 90.274333
_cell_angle_beta                  89.841375
_cell_angle_gamma                 89.850402
_cell_volume                      2234.3454905

loop_
_atom_site_label
_atom_site_type_symbol
_atom_type_description
_atom_site_fract_x
_atom_site_fract_y
_atom_site_fract_z
_atom_type_partial_charge
C1    C     C_R   0.497538 0.262163 0.499628 0.796163
C2    C     C_R   0.502464 0.737837 0.500372 0.796163
C3    C     C_R   0.045709 0.477209 0.677098 -0.208663
C4    C     C_R   0.954291 0.522779 0.322902 -0.208659
C5    C     C_R   0.301389 0.247810 0.265945 -0.111798
C6    C     C_R   0.698593 0.752172 0.734076 -0.111791
C7    C     C_R   0.341564 0.191885 0.346452 -0.085797
C8    C     C_R   0.658427 0.808100 0.653564 -0.085780
C9    C     C_R   0.418029 0.118903 0.333736 0.123349
C10   C     C_R   0.581968 0.881096 0.666271 0.123341
C11   C     C_R   0.452325 0.100591 0.239157 -0.149884
C12   C     C_R   0.547671 0.899425 0.760848 -0.149892
C13   C     C_R   0.411763 0.156441 0.158881 -0.111078
C14   C     C_R   0.588224 0.843574 0.841129 -0.111083
C15   C     C_R   0.336679 0.230567 0.172326 -0.101654
C16   C     C_R   0.663300 0.769431 0.827693 -0.101662
C17   C     C_R   0.467424 0.932654 0.420746 -0.228392
C18   C     C_R   0.532582 0.067346 0.579254 -0.228395
C19   C     C_R   0.504297 0.871707 0.500985 -0.086691
C20   C     C_R   0.495709 0.128292 0.499015 -0.086691
C21   C     C_R   0.538159 0.939472 0.581106 -0.001788
C22   C     C_R   0.461847 0.060527 0.418896 -0.001792
C23   C     C_R   0.328461 0.500148 0.500105 0.811764
C24   C     C_R   0.671539 0.499849 0.499895 0.811758
C25   C     C_R   0.548657 0.413452 0.792446 0.008717
C26   C     C_R   0.451343 0.586548 0.207554 0.008721
C27   C     C_R   0.451460 0.586133 0.793733 0.040284
C28   C     C_R   0.548539 0.413866 0.206267 0.040280
C29   C     C_R   0.450781 0.588462 0.896641 -0.014256
C30   C     C_R   0.549216 0.411536 0.103359 -0.014259
C31   C     C_R   0.500174 0.499613 0.948151 0.067857
C32   C     C_R   0.499824 0.500385 0.051849 0.067859
C33   C     C_R   0.549748 0.410035 0.895909 -0.058304
C34   C     C_R   0.450250 0.589963 0.104091 -0.058303
C35   C     C_R   0.402096 0.677904 0.948608 -0.263577
C36   C     C_R   0.597902 0.322093 0.051392 -0.263582
C37   C     C_R   0.401620 0.679630 0.051357 -0.010896
C38   C     C_R   0.598378 0.320368 0.948643 -0.010894
C39   C     C_R   0.814934 0.511034 0.411449 -0.246008
C40   C     C_R   0.185066 0.488960 0.588551 -0.246008
C41   C     C_R   0.768359 0.499574 0.499795 -0.077122
C42   C     C_R   0.231641 0.500414 0.500205 -0.077121
C43   C     C_R   0.814474 0.487777 0.588152 -0.255632
C44   C     C_R   0.185526 0.512197 0.411847 -0.255634
C45   C     C_R   0.906834 0.488133 0.588886 0.107911
C46   C     C_R   0.093166 0.511842 0.411112 0.107908
C47   C     C_R   0.953519 0.499859 0.499949 0.064510
C48   C     C_R   0.046481 0.500122 0.500050 0.064511
C49   C     C_R   0.907336 0.511253 0.410904 0.107280
C50   C     C_R   0.092664 0.488736 0.589095 0.107280
C51   C     C_R   0.953246 0.476900 0.676993 -0.210273
C52   C     C_R   0.046753 0.523074 0.323005 -0.210274
Cu1   Cu    Cu3+1 0.500010 0.499980 0.597420 0.942933
Cu2   Cu    Cu3+1 0.499990 0.500020 0.402580 0.942936
H1    H     H_    0.779410 0.520161 0.343073 0.156720
H2    H     H_    0.220590 0.479839 0.656928 0.156719
H3    H     H_    0.439969 0.880238 0.360251 0.161556
H4    H     H_    0.560035 0.119763 0.639749 0.161555
H5    H     H_    0.586512 0.347178 0.750051 0.139007
H6    H     H_    0.413488 0.652822 0.249949 0.139008
H7    H     H_    0.413536 0.653595 0.753183 0.128346
H8    H     H_    0.586462 0.346403 0.246816 0.128345
H9    H     H_    0.364627 0.747047 0.908993 0.143275
H10   H     H_    0.635370 0.252950 0.091007 0.143274
H11   H     H_    0.778611 0.477890 0.656435 0.154549
H12   H     H_    0.221389 0.522074 0.343562 0.154549
H13   H     H_    0.918040 0.467927 0.745722 0.145028
H14   H     H_    0.081960 0.532042 0.254275 0.145027
H15   H     H_    0.080487 0.468425 0.745909 0.144607
H16   H     H_    0.919512 0.531571 0.254091 0.144606
H17   H     H_    0.305714 0.274350 0.110167 0.125139
H18   H     H_    0.694258 0.725650 0.889857 0.125144
H19   H     H_    0.242794 0.304343 0.276076 0.124186
H20   H     H_    0.757183 0.695628 0.723952 0.124184
H21   H     H_    0.313581 0.206032 0.418633 0.103457
H22   H     H_    0.686414 0.793943 0.581386 0.103456
H23   H     H_    0.510948 0.044247 0.227811 0.123796
H24   H     H_    0.489056 0.955785 0.772188 0.123802
H25   H     H_    0.438842 0.142802 0.086291 0.135732
H26   H     H_    0.561145 0.857228 0.913716 0.135734
N1    N     N_R   0.499960 0.499900 0.743810 -0.185269
N2    N     N_R   0.500040 0.500100 0.256190 -0.185269
O1    O     O_R   0.500000 0.319630 0.582270 -0.592120
O2    O     O_R   0.500000 0.680370 0.417730 -0.592119
O3    O     O_R   0.499990 0.319660 0.417730 -0.578425
O4    O     O_R   0.500010 0.680340 0.582270 -0.578425
O5    O     O_R   0.370260 0.499960 0.582280 -0.588494
O6    O     O_R   0.629740 0.500040 0.417720 -0.588493
O7    O     O_R   0.370250 0.499990 0.417740 -0.586434
O8    O     O_R   0.629750 0.500010 0.582260 -0.586439
C53   C     C_1   0.351284 0.775255 0.100578 0.186643
N3    N     N_1   0.311061 0.851902 0.140043 -0.290244
C54   C     C_1   0.648714 0.224743 0.899422 0.186641
N4    N     N_1   0.688938 0.148096 0.859957 -0.290245

loop_
_geom_bond_atom_site_label_1
_geom_bond_atom_site_label_2
_ccdc_geom_bond_type
Cu2   O6    S    
C13   H25   S    
C54   N4    T    
C27   C29   A    
C18   C21   A    
C44   H12   S    
C16   H18   S    
C4    H16   S    
C47   C49   A    
Cu1   Cu2   S    
C23   C42   S    
C4    C52   A    
C35   C37   A    
C9    C22   S    
C45   C51   A    
C34   C37   A    
C46   C52   A    
C8    H22   S    
Cu1   N1    S    
C27   H7    S    
C2    O2    A    
C26   C34   A    
C39   H1    S    
C31   C32   A    
C40   H2    S    
C12   H24   S    
C23   O7    A    
Cu1   O4    S    
C14   H26   S    
C11   H23   S    
C52   H14   S    
C48   C50   A    
C26   N2    A    
C23   O5    A    
C25   N1    A    
C24   C41   S    
C41   C43   A    
C42   C44   A    
Cu2   O2    S    
C3    C50   A    
C44   C46   A    
C6    H20   S    
C45   C47   A    
C10   C21   S    
C1    O3    A    
C46   C48   A    
C37   C53   S    
C28   N2    A    
C27   N1    A    
Cu2   O7    S    
C39   C41   A    
C53   N3    T    
C5    C7    A    
C3    C51   A    
C7    H21   S    
C32   C34   A    
C24   O6    A    
C47   C48   A    
C43   H11   S    
C31   C33   A    
Cu1   O5    S    
C51   H13   S    
C9    C11   A    
C10   C12   A    
C8    C10   A    
C39   C49   A    
C20   C22   A    
C13   C15   A    
C14   C16   A    
Cu2   N2    S    
C7    C9    A    
C1    C20   S    
C3    H15   S    
C2    C19   S    
C17   C22   A    
C12   C14   A    
C40   C42   A    
C24   O8    A    
Cu2   O3    S    
C6    C8    A    
C1    O1    A    
C15   H17   S    
C29   C35   A    
C33   C38   A    
C30   C36   A    
C4    C49   A    
Cu1   O1    S    
C36   C38   A    
C43   C45   A    
C30   C32   A    
C11   C13   A    
C40   C50   A    
C38   C54   S    
C28   C30   A    
C17   C19   A    
C18   H4    S    
C2    O4    A    
C18   C20   A    
C5    H19   S    
C5    C15   A    
C6    C16   A    
C29   C31   A    
C17   H3    S    
Cu1   O8    S    
C35   H9    S    
C25   H5    S    
C36   H10   S    
C26   H6    S    
C25   C33   A    
C19   C21   A    
C28   H8    S    
