data_mof_unit_40241.cif
_audit_creation_date              2012-12-10T17:29:22-0500
_audit_creation_method            fapswitch 2.2
_symmetry_space_group_name_H-M    P1
_symmetry_Int_Tables_number       1
_space_group_crystal_system       triclinic
_cell_length_a                    12.044374
_cell_length_b                    12.936507
_cell_length_c                    13.046663
_cell_angle_alpha                 86.700556
_cell_angle_beta                  113.411197
_cell_angle_gamma                 93.506174
_cell_volume                      1860.76040712

loop_
_atom_site_label
_atom_site_type_symbol
_atom_type_description
_atom_site_fract_x
_atom_site_fract_y
_atom_site_fract_z
_atom_type_partial_charge
Br1   Br    Br    0.200355 0.214550 0.366447 -0.512598
Br2   Br    Br    0.555782 0.653203 0.160213 -0.574017
C1    C     C_R   0.477179 0.299329 0.497747 0.973272
C2    C     C_R   0.609092 0.474902 0.829896 -0.110262
C3    C     C_R   0.537676 0.809972 0.505232 -0.026766
C4    C     C_R   0.565793 0.488799 0.708663 0.895558
C5    C     C_R   0.462935 0.187361 0.493905 -0.239304
C6    C     C_R   0.337461 0.031973 0.425398 0.148456
C7    C     C_R   0.347627 0.138842 0.436868 0.200546
C8    C     C_R   0.568283 0.128840 0.541072 0.103711
C9    C     C_R   0.557920 0.022013 0.529541 0.082815
C10   C     C_R   0.442481 0.973777 0.470931 0.021079
C11   C     C_R   0.434796 0.867712 0.458398 -0.224806
C12   C     C_R   0.552734 0.473970 0.987663 0.064823
C13   C     C_R   0.651183 0.856452 0.562742 -0.188443
C14   C     C_R   0.661411 0.961963 0.575689 -0.175790
C15   C     C_R   0.998615 0.580843 0.380101 -0.311984
C16   C     C_R   0.522527 0.699878 0.501189 0.888436
C17   C     C_R   0.120189 0.576667 0.392563 0.376790
C18   C     C_R   0.163140 0.468090 0.555782 -0.054846
C19   C     C_R   0.041057 0.470570 0.544948 0.098177
C20   C     C_R   0.958106 0.527551 0.455470 0.029407
C21   C     C_R   0.836511 0.531580 0.444414 -0.025048
C22   C     C_R   0.877965 0.424685 0.607441 0.022715
C23   C     C_R   0.528604 0.440388 0.880040 0.054661
C24   C     C_R   0.999700 0.418487 0.621481 -0.300948
C25   C     C_R   0.433145 0.504302 0.291169 0.923584
C26   C     C_R   0.265924 0.386454 0.015655 -0.181888
C27   C     C_R   0.388695 0.490534 0.171897 -0.100109
C28   C     C_R   0.726913 0.510246 0.896832 -0.206142
C29   C     C_R   0.760358 0.518767 0.010955 -0.140405
C30   C     C_R   0.673315 0.503763 0.056080 -0.100672
C31   C     C_3   0.186461 0.970836 0.250503 -0.692990
C32   C     C_3   0.726355 0.191696 0.712933 -0.793293
C33   C     C_3   0.091833 0.619188 0.198500 -0.811693
C34   C     C_R   0.458270 0.468131 0.025808 0.023534
C35   C     C_3   0.483408 0.207269 0.792720 -0.806000
C36   C     C_R   0.353064 0.404762 0.969958 0.111689
C37   C     C_R   0.339704 0.355908 0.872959 -0.303662
C38   C     C_R   0.427564 0.371643 0.828229 0.191170
C39   C     C_R   0.464776 0.522534 0.118160 0.178752
C40   C     C_R   0.286682 0.425335 0.119232 -0.232289
H1    H     H_    0.226652 0.400665 0.160392 0.191530
H2    H     H_    0.186666 0.336189 0.975443 0.145226
H3    H     H_    0.792095 0.533073 0.860804 0.159746
H4    H     H_    0.702177 0.511567 0.145093 0.165564
H5    H     H_    0.852235 0.541330 0.063491 0.145013
H6    H     H_    0.348801 0.828250 0.412840 0.152203
H7    H     H_    0.199635 0.920508 0.409891 0.226986
H8    H     H_    0.245899 0.915419 0.237141 0.221275
H9    H     H_    0.193205 0.046230 0.207661 0.264846
H10   H     H_    0.091351 0.940000 0.212575 0.240688
H11   H     H_    0.751194 0.157208 0.568397 0.229913
H12   H     H_    0.731017 0.810905 0.600844 0.157684
H13   H     H_    0.713328 0.118264 0.756122 0.241826
H14   H     H_    0.676391 0.254255 0.728000 0.261431
H15   H     H_    0.824153 0.215083 0.748427 0.221670
H16   H     H_    0.247603 0.653494 0.338452 0.275439
H17   H     H_    0.142006 0.657179 0.150187 0.247724
H18   H     H_    0.002177 0.654184 0.168192 0.238777
H19   H     H_    0.081549 0.534797 0.183348 0.252062
H20   H     H_    0.340864 0.289396 0.684862 0.243711
H21   H     H_    0.484412 0.159766 0.725006 0.249343
H22   H     H_    0.432278 0.162404 0.836308 0.251515
H23   H     H_    0.750651 0.994622 0.623964 0.150250
H24   H     H_    0.578012 0.222347 0.853150 0.252803
H25   H     H_    0.772856 0.576748 0.376442 0.164759
H26   H     H_    0.847591 0.386065 0.667874 0.137754
H27   H     H_    0.936143 0.627415 0.312539 0.168155
H28   H     H_    0.060920 0.374102 0.692059 0.136894
H29   H     H_    0.263540 0.302083 0.834232 0.143430
H30   H     H_    0.226963 0.425470 0.625050 0.130699
N1    N     N_R   0.798200 0.480260 0.519790 -0.099262
N2    N     N_R   0.201820 0.519740 0.480210 -0.123913
N3    N     N_2   0.220258 0.984328 0.368648 -0.268564
N4    N     N_2   0.685487 0.178543 0.594095 -0.270336
N5    N     N_2   0.157393 0.637272 0.316156 -0.313093
N6    N     N_2   0.425999 0.303738 0.745532 -0.304812
O1    O     O_R   0.579910 0.341070 0.505280 -0.593378
O2    O     O_R   0.388440 0.353740 0.492580 -0.580201
O3    O     O_R   0.643280 0.490550 0.663120 -0.633642
O4    O     O_R   0.451810 0.503220 0.650420 -0.606133
O5    O     O_R   0.611560 0.646260 0.507420 -0.607936
O6    O     O_R   0.420090 0.658930 0.494720 -0.653481
O7    O     O_R   0.548190 0.496780 0.349580 -0.596924
O8    O     O_R   0.356720 0.509450 0.336880 -0.624102
Zn1   Zn    Zn3+2 0.627850 0.491540 0.508480 0.965391
Zn2   Zn    Zn3+2 0.372150 0.508460 0.491520 0.966255

loop_
_geom_bond_atom_site_label_1
_geom_bond_atom_site_label_2
_ccdc_geom_bond_type
C5    C8    A    
O5    Zn1   S    
C19   C24   A    
C15   H27   S    
C4    O4    A    
C27   C40   A    
C25   C27   S    
C28   H3    S    
C1    O1    A    
O1    Zn1   S    
C2    C23   A    
C31   H10   S    
C32   H14   S    
C22   C24   A    
C1    C5    S    
C23   C38   A    
C12   C34   A    
C28   C29   A    
O8    Zn2   S    
C22   N1    A    
Br2   C39   S    
C13   C14   A    
C33   H17   S    
C21   H25   S    
C17   N5    S    
N1    Zn1   S    
H16   N5    S    
C8    N4    S    
C31   N3    S    
C6    C7    A    
C32   H15   S    
C16   O6    A    
H7    N3    S    
C3    C11   A    
C32   H13   S    
C4    O3    A    
C29   H5    S    
C19   C20   A    
C34   C39   A    
C21   N1    A    
C1    O2    A    
C35   H21   S    
C25   O7    A    
O7    Zn1   S    
C13   H12   S    
Br1   C7    S    
C2    C4    S    
C37   C38   A    
C3    C16   S    
C31   H8    S    
C33   N5    S    
C6    N3    S    
C33   H18   S    
C25   O8    A    
C9    C14   A    
C29   C30   A    
C26   C36   A    
C6    C10   A    
C35   H24   S    
C16   O5    A    
C18   N2    A    
C33   H19   S    
C10   C11   A    
O3    Zn1   S    
C24   H28   S    
C38   N6    S    
H11   N4    S    
C40   H1    S    
C35   H22   S    
C5    C7    A    
C27   C39   A    
C30   H4    S    
H20   N6    S    
C17   N2    A    
O6    Zn2   S    
C12   C30   A    
C11   H6    S    
C9    C10   A    
C31   H9    S    
C35   N6    S    
C15   C20   A    
C34   C36   A    
O2    Zn2   S    
C36   C37   A    
O4    Zn2   S    
C26   C40   A    
C15   C17   A    
C26   H2    S    
C12   C23   A    
C3    C13   A    
C8    C9    A    
C22   H26   S    
C18   C19   A    
C37   H29   S    
C20   C21   A    
C18   H30   S    
C14   H23   S    
N2    Zn2   S    
C2    C28   A    
C32   N4    S    
