data_mof_unit_65004.cif
_audit_creation_date              2012-12-10T20:13:15-0500
_audit_creation_method            fapswitch 2.2
_symmetry_space_group_name_H-M    P1
_symmetry_Int_Tables_number       1
_space_group_crystal_system       triclinic
_cell_length_a                    19.138964
_cell_length_b                    18.514433
_cell_length_c                    15.790121
_cell_angle_alpha                 90.150294
_cell_angle_beta                  90.039778
_cell_angle_gamma                 91.688164
_cell_volume                      5592.73365819

loop_
_atom_site_label
_atom_site_type_symbol
_atom_type_description
_atom_site_fract_x
_atom_site_fract_y
_atom_site_fract_z
_atom_type_partial_charge
C1    C     C_R   0.365715 0.498992 0.498296 1.002435
C2    C     C_3   0.564897 0.454476 0.948688 0.448128
C3    C     C_3   0.572715 0.463904 0.049297 -0.274894
C4    C     C_1   0.499666 0.500220 0.824975 0.282550
C5    C     C_1   0.501112 0.499679 0.175287 0.156517
C6    C     C_1   0.500497 0.499762 0.250240 -0.009580
C7    C     C_R   0.749430 0.457031 0.538369 -0.124435
C8    C     C_R   0.739628 0.545110 0.425956 -0.079720
C9    C     C_R   0.821567 0.455402 0.526582 -0.003771
C10   C     C_R   0.811331 0.543764 0.411066 -0.008888
C11   C     C_R   0.852429 0.498882 0.462106 -0.078612
C12   C     C_R   0.709244 0.502366 0.489280 -0.110271
C13   C     C_R   0.967386 0.558632 0.482822 -0.147298
C14   C     C_R   0.960127 0.440412 0.414961 -0.173308
C15   C     C_R   0.500039 0.499919 0.338477 0.911365
C16   C     C_R   0.039633 0.556690 0.481460 -0.077520
C17   C     C_R   0.032563 0.438102 0.414424 -0.037850
C18   C     C_R   0.071939 0.495712 0.449225 0.216532
C19   C     C_R   0.927830 0.499914 0.451145 0.000916
C20   C     C_R   0.175233 0.453751 0.527806 -0.098643
C21   C     C_R   0.191070 0.528650 0.399465 -0.093632
C22   C     C_R   0.247683 0.456677 0.540820 0.274103
C23   C     C_R   0.263292 0.530943 0.413686 0.233177
C24   C     C_R   0.290828 0.496342 0.484990 -0.188410
C25   C     C_R   0.147251 0.490970 0.457600 -0.083541
C26   C     C_R   0.445156 0.722902 0.536931 0.059665
C27   C     C_R   0.554769 0.276615 0.536205 0.040352
C28   C     C_R   0.443120 0.798649 0.541232 -0.200945
C29   C     C_R   0.555921 0.200839 0.540429 -0.198232
C30   C     C_R   0.499047 0.841536 0.510151 0.110673
C31   C     C_R   0.499123 0.158520 0.510167 0.113044
C32   C     C_R   0.634330 0.500880 0.499232 0.878040
C33   C     C_R   0.556798 0.806451 0.475395 0.393515
C34   C     C_R   0.441429 0.194223 0.476245 0.389307
C35   C     C_R   0.555158 0.729927 0.467887 -0.028682
C36   C     C_R   0.443991 0.270661 0.468587 -0.019678
C37   C     C_R   0.495324 0.961707 0.434350 0.358279
C38   C     C_R   0.500614 0.037900 0.434279 0.355575
C39   C     C_R   0.500972 0.077218 0.511196 -0.192838
C40   C     C_R   0.496330 0.922786 0.511259 -0.193082
C41   C     C_R   0.499698 0.038463 0.588242 0.326738
C42   C     C_R   0.498675 0.961922 0.588260 0.324062
C43   C     C_R   0.499845 0.500081 0.661643 0.914938
C44   C     C_3   0.497018 0.582554 0.050429 -0.281643
C45   C     C_3   0.434045 0.451622 0.050540 -0.337928
C46   C     C_3   0.428302 0.463178 0.949860 0.614353
C47   C     C_3   0.507604 0.581584 0.949768 0.439144
C48   C     C_1   0.499660 0.500252 0.750009 0.007559
C49   C     C_3   0.501330 0.499494 0.083339 -0.145290
C50   C     C_3   0.500031 0.499930 0.916546 -0.191024
H1    H     H_    0.070392 0.601162 0.508349 0.151884
H2    H     H_    0.057899 0.391024 0.389483 0.160180
H3    H     H_    0.402303 0.690808 0.563022 0.171491
H4    H     H_    0.598236 0.308326 0.561740 0.167102
H5    H     H_    0.398042 0.823714 0.568833 0.202053
H6    H     H_    0.600979 0.175304 0.567368 0.203790
H7    H     H_    0.724242 0.423858 0.586638 0.194614
H8    H     H_    0.706750 0.577354 0.386134 0.194174
H9    H     H_    0.942200 0.604570 0.510840 0.173176
H10   H     H_    0.929226 0.395023 0.390535 0.169451
N1    N     N_R   0.499980 0.689440 0.500010 -0.157263
N2    N     N_R   0.499980 0.310560 0.500010 -0.156895
O1    O     O_R   0.398180 0.560840 0.500000 -0.596133
O2    O     O_R   0.398180 0.439160 0.500000 -0.614463
O3    O     O_R   0.500010 0.560840 0.377160 -0.596327
O4    O     O_R   0.500010 0.439160 0.377160 -0.645593
O5    O     O_R   0.601820 0.560790 0.500040 -0.639944
O6    O     O_R   0.601820 0.439210 0.500040 -0.622733
O7    O     O_R   0.500000 0.560790 0.622880 -0.597228
O8    O     O_R   0.500000 0.439210 0.622880 -0.581766
Zn1   Zn    Zn3+2 0.500000 0.581210 0.500030 1.028926
Zn2   Zn    Zn3+2 0.500000 0.418790 0.500030 1.017148
Cl1   Cl    Cl    0.452121 0.643803 0.894638 -0.452506
Cl2   Cl    Cl    0.354654 0.516490 0.919752 -0.433780
C51   C     C_2   0.130253 0.412223 0.588984 0.525394
H11   H     H_    0.150895 0.366329 0.622249 0.153129
O9    O     O_2   0.070598 0.429419 0.604916 -0.563860
C52   C     C_2   0.162585 0.566487 0.324083 0.514416
H12   H     H_    0.190935 0.612352 0.296841 0.144567
O10   O     O_2   0.108150 0.546112 0.290116 -0.533708
Cl3   Cl    Cl    0.284675 0.415401 0.631129 -0.490289
Cl4   Cl    Cl    0.320320 0.572901 0.338586 -0.588930
Cl5   Cl    Cl    0.630280 0.858889 0.440669 -0.412278
Cl6   Cl    Cl    0.366780 0.142794 0.442811 -0.420719
C53   C     C_2   0.611224 0.693619 0.421810 0.583662
H13   H     H_    0.598281 0.650027 0.378341 0.092862
O11   O     O_2   0.672584 0.711147 0.432549 -0.486780
C54   C     C_2   0.387954 0.307504 0.423017 0.591741
H14   H     H_    0.401110 0.349653 0.377954 0.062340
O12   O     O_2   0.326425 0.292400 0.436326 -0.485897
Cl7   Cl    Cl    0.485637 0.915022 0.336907 -0.380149
Cl8   Cl    Cl    0.508947 0.084021 0.336616 -0.391087
Cl9   Cl    Cl    0.498042 0.085727 0.685550 -0.376499
Cl10  Cl    Cl    0.501845 0.915139 0.685515 -0.388657
C55   C     C_2   0.427046 0.614449 0.076371 0.436437
H15   H     H_    0.383712 0.617901 0.033058 0.184647
O13   O     O_2   0.416935 0.634652 0.149086 -0.488388
C56   C     C_2   0.365788 0.470848 0.094993 0.409011
H16   H     H_    0.365762 0.504777 0.150921 0.125248
O14   O     O_2   0.310068 0.442457 0.073378 -0.417375
C57   C     C_2   0.440710 0.373359 0.081357 0.621854
H17   H     H_    0.440074 0.363444 0.149195 0.060842
O15   O     O_2   0.445547 0.321008 0.035099 -0.406755
C58   C     C_2   0.549554 0.636996 0.091117 0.590864
H18   H     H_    0.561176 0.687986 0.059647 0.150066
O16   O     O_2   0.573186 0.629207 0.162242 -0.514650
Cl11  Cl    Cl    0.401103 0.383288 0.890704 -0.293301
Cl12  Cl    Cl    0.589917 0.622448 0.915622 -0.496775
C59   C     C_2   0.636313 0.511910 0.073706 0.521140
H19   H     H_    0.660114 0.550027 0.030136 0.166741
O17   O     O_2   0.660666 0.510770 0.145368 -0.494054
C60   C     C_2   0.591260 0.391263 0.089750 0.580549
H20   H     H_    0.626311 0.355707 0.056889 0.151555
O18   O     O_2   0.574884 0.375193 0.162165 -0.564247
Cl13  Cl    Cl    0.645613 0.474227 0.892157 -0.483339
Cl14  Cl    Cl    0.554875 0.361289 0.914889 -0.419755
C61   C     C_2   0.863891 0.409506 0.583123 0.473987
H21   H     H_    0.920439 0.410695 0.579313 0.128820
O19   O     O_2   0.835947 0.369702 0.635431 -0.501231
C62   C     C_2   0.842263 0.588187 0.341324 0.497090
H22   H     H_    0.897216 0.585030 0.325511 0.095202
O20   O     O_2   0.806516 0.628937 0.300165 -0.474049

loop_
_geom_bond_atom_site_label_1
_geom_bond_atom_site_label_2
_ccdc_geom_bond_type
C44   C49   S    
C1    O2    A    
C57   H17   S    
C23   Cl4   S    
C27   C29   A    
C9    C61   S    
C41   C42   A    
C55   H15   S    
C16   H1    S    
C58   O16   D    
C44   C58   S    
C27   H4    S    
C39   C41   A    
C53   H13   S    
C36   C54   S    
C11   C19   S    
C26   N1    A    
C37   C40   A    
C45   C56   S    
C61   O19   D    
C38   C39   A    
C52   O10   D    
C20   C25   A    
C15   O3    A    
C38   Cl8   S    
O7    Zn1   S    
C58   H18   S    
C2    C50   S    
C8    H8    S    
C6    C15   S    
C2    Cl14  S    
C41   Cl9   S    
C21   C52   S    
C23   C24   A    
C43   C48   S    
C34   C36   A    
C44   C47   S    
O6    Zn2   S    
C32   O6    A    
N1    Zn1   S    
C40   C42   A    
C57   O15   D    
C12   C32   S    
C14   C17   A    
C5    C49   S    
C18   C25   S    
C34   Cl6   S    
C36   N2    A    
C1    O1    A    
C17   H2    S    
C60   O18   D    
C60   H20   S    
C28   H5    S    
C62   O20   D    
C47   C50   S    
C53   O11   D    
C3    C49   S    
C7    C12   A    
O4    Zn2   S    
C37   Cl7   S    
N2    Zn2   S    
C22   Cl3   S    
C47   Cl1   S    
C13   C19   A    
C52   H12   S    
C45   C46   S    
C15   O4    A    
C20   C51   S    
C4    C50   S    
C51   H11   S    
C37   C38   A    
C27   N2    A    
C9    C11   A    
C2    Cl13  S    
C45   C49   S    
C3    C60   S    
C8    C12   A    
C46   Cl11  S    
C17   C18   A    
C31   C34   A    
C30   C40   S    
C35   N1    A    
C51   O9    D    
O1    Zn1   S    
C45   C57   S    
C32   O5    A    
C16   C18   A    
C54   O12   D    
C47   Cl12  S    
C43   O8    A    
C56   O14   D    
C21   C23   A    
C22   C24   A    
C26   H3    S    
C46   Cl2   S    
C62   H22   S    
C4    C48   T    
C7    C9    A    
C21   C25   A    
C30   C33   A    
C42   Cl10  S    
C14   C19   A    
C43   O7    A    
C20   C22   A    
C33   Cl5   S    
C55   O13   D    
C13   H9    S    
C29   H6    S    
C14   H10   S    
C46   C50   S    
C26   C28   A    
C59   O17   D    
C2    C3    S    
C29   C31   A    
C44   C55   S    
O3    Zn1   S    
C61   H21   S    
C35   C53   S    
C5    C6    T    
C3    C59   S    
C28   C30   A    
C33   C35   A    
C31   C39   S    
O5    Zn1   S    
O2    Zn2   S    
C10   C62   S    
C10   C11   A    
C54   H14   S    
C1    C24   S    
C8    C10   A    
C56   H16   S    
C13   C16   A    
O8    Zn2   S    
C59   H19   S    
C7    H7    S    
