data_mof_unit_61283.cif
_audit_creation_date              2012-12-10T20:13:36-0500
_audit_creation_method            fapswitch 2.2
_symmetry_space_group_name_H-M    P1
_symmetry_Int_Tables_number       1
_space_group_crystal_system       triclinic
_cell_length_a                    15.901037
_cell_length_b                    15.904507
_cell_length_c                    39.837298
_cell_angle_alpha                 89.976275
_cell_angle_beta                  89.962352
_cell_angle_gamma                 90.032408
_cell_volume                      10074.7744836

loop_
_atom_site_label
_atom_site_type_symbol
_atom_type_description
_atom_site_fract_x
_atom_site_fract_y
_atom_site_fract_z
_atom_type_partial_charge
C1    C     C_R   0.001874 0.501999 0.948669 -0.010729
C2    C     C_1   0.002354 0.501794 0.014898 -0.035167
C3    C     C_3   0.600781 0.174868 0.131685 -0.277859
C4    C     C_3   0.081722 0.305643 0.875482 -0.258867
C5    C     C_3   0.950537 0.706066 0.124267 -0.253110
C6    C     C_3   0.576239 0.185254 0.867349 -0.280629
C7    C     C_3   0.399308 0.826364 0.130777 -0.277703
C8    C     C_3   0.610511 0.183491 0.376862 -0.258023
C9    C     C_3   0.394044 0.812514 0.623533 -0.255821
C10   C     C_3   0.794043 0.451639 0.376368 -0.258144
C11   C     C_3   0.106605 0.671618 0.631008 -0.274975
C12   C     C_3   0.388586 0.816460 0.376522 -0.257503
C13   C     C_1   0.501250 0.001866 0.984855 -0.038554
C14   C     C_3   0.596180 0.187474 0.624604 -0.259625
C15   C     C_3   0.097997 0.676473 0.368343 -0.278210
C16   C     C_3   0.893414 0.328920 0.630852 -0.276407
C17   C     C_1   0.501213 0.001919 0.015004 -0.034331
C18   C     C_1   0.501295 0.998025 0.484893 -0.042540
C19   C     C_1   0.501349 0.997776 0.515077 -0.038519
C20   C     C_1   0.003120 0.498826 0.484927 -0.035314
C21   C     C_1   0.002870 0.498903 0.515057 -0.035025
C22   C     C_R   0.499906 0.999385 0.841033 0.510506
C23   C     C_R   0.500045 0.000105 0.158925 0.527512
C24   C     C_R   0.999632 0.499952 0.841024 0.521717
C25   C     C_R   0.001848 0.501355 0.050993 -0.000735
C26   C     C_R   0.000017 0.500038 0.158887 0.544977
C27   C     C_R   0.999886 0.500030 0.341080 0.537944
C28   C     C_R   0.000067 0.500070 0.658923 0.526625
C29   C     C_R   0.499994 0.999970 0.341006 0.488265
C30   C     C_R   0.499739 0.000047 0.658973 0.522723
C31   C     C_R   0.660064 0.160084 0.749998 0.508485
C32   C     C_R   0.339931 0.839922 0.250004 0.504514
C33   C     C_R   0.839911 0.660065 0.750009 0.505582
C34   C     C_R   0.160087 0.339931 0.249993 0.510644
C35   C     C_R   0.339902 0.839946 0.749997 0.506084
C36   C     C_R   0.500757 0.001329 0.948740 -0.010774
C37   C     C_R   0.660078 0.160073 0.249992 0.504700
C38   C     C_R   0.160101 0.339926 0.750006 0.509747
C39   C     C_R   0.839906 0.660080 0.249999 0.508288
C40   C     C_R   0.660088 0.839912 0.249995 0.507832
C41   C     C_R   0.339916 0.160092 0.750008 0.507591
C42   C     C_R   0.839916 0.339928 0.250009 0.510425
C43   C     C_R   0.160060 0.660095 0.749977 0.508043
C44   C     C_R   0.339927 0.160083 0.249996 0.507786
C45   C     C_R   0.660075 0.839917 0.750004 0.510116
C46   C     C_R   0.160046 0.660104 0.250012 0.504522
C47   C     C_R   0.500834 0.001630 0.051120 -0.000678
C48   C     C_R   0.839951 0.339899 0.749989 0.504368
C49   C     C_1   0.276653 0.223364 0.750016 -0.026324
C50   C     C_1   0.723355 0.776643 0.249991 -0.025527
C51   C     C_1   0.776674 0.276627 0.749986 -0.028621
C52   C     C_1   0.223319 0.723380 0.250016 -0.029535
C53   C     C_1   0.723344 0.776635 0.750012 -0.023573
C54   C     C_1   0.276656 0.223362 0.249990 -0.023377
C55   C     C_1   0.223326 0.723373 0.749965 -0.028715
C56   C     C_1   0.776632 0.276664 0.250010 -0.028012
C57   C     C_1   0.276645 0.776662 0.250018 -0.030291
C58   C     C_R   0.500958 0.998558 0.448720 -0.021199
C59   C     C_1   0.723347 0.223346 0.749985 -0.029127
C60   C     C_1   0.776637 0.723343 0.249996 -0.026075
C61   C     C_1   0.223371 0.276664 0.750012 -0.025946
C62   C     C_1   0.723350 0.223341 0.249993 -0.029616
C63   C     C_1   0.276609 0.776695 0.749983 -0.028986
C64   C     C_1   0.223363 0.276659 0.249989 -0.022984
C65   C     C_1   0.776636 0.723337 0.750014 -0.024412
C66   C     C_R   0.945726 0.554632 0.931266 0.113133
C67   C     C_R   0.047247 0.439488 0.068520 0.087012
C68   C     C_R   0.444202 0.948693 0.931544 0.113438
C69   C     C_R   0.501045 0.997870 0.551250 -0.010845
C70   C     C_R   0.563931 0.045007 0.068802 0.085623
C71   C     C_R   0.056420 0.448249 0.931021 0.087819
C72   C     C_R   0.955618 0.562592 0.068523 0.086722
C73   C     C_R   0.556971 0.053006 0.930868 0.085922
C74   C     C_R   0.437386 0.957852 0.068510 0.085585
C75   C     C_R   0.561558 0.045764 0.431141 0.112681
C76   C     C_R   0.441350 0.949379 0.568799 0.113021
C77   C     C_R   0.939712 0.454430 0.431532 0.086770
C78   C     C_R   0.066206 0.541161 0.568779 0.085162
C79   C     C_R   0.439819 0.952120 0.431161 0.112584
C80   C     C_R   0.002579 0.498996 0.448843 -0.001319
C81   C     C_R   0.559567 0.047481 0.568852 0.087337
C82   C     C_R   0.064121 0.544573 0.431120 0.085744
C83   C     C_R   0.937058 0.457904 0.568531 0.085357
C84   C     C_R   0.944747 0.554734 0.896005 0.133912
C85   C     C_R   0.045208 0.437713 0.103808 0.127333
C86   C     C_R   0.442862 0.948103 0.896295 0.134541
C87   C     C_R   0.563550 0.045047 0.104103 0.136552
C88   C     C_R   0.053869 0.445902 0.895767 0.137830
C89   C     C_R   0.956215 0.563296 0.103818 0.127542
C90   C     C_R   0.556492 0.052405 0.895568 0.145141
C91   C     C_R   0.002103 0.499225 0.551141 -0.001268
C92   C     C_R   0.437163 0.956889 0.103810 0.136399
C93   C     C_R   0.560736 0.047545 0.395872 0.143190
C94   C     C_R   0.440728 0.949273 0.604093 0.134595
C95   C     C_R   0.937333 0.456413 0.396273 0.129300
C96   C     C_R   0.065329 0.542148 0.604061 0.136715
C97   C     C_R   0.439793 0.951571 0.395884 0.144010
C98   C     C_R   0.557486 0.049916 0.604140 0.137612
C99   C     C_R   0.062838 0.545815 0.395825 0.137060
C100  C     C_R   0.936277 0.457837 0.603823 0.136454
C101  C     C_R   0.998765 0.499791 0.878084 0.004304
C102  C     C_1   0.002393 0.502038 0.984762 -0.039045
C103  C     C_R   0.000380 0.500255 0.121681 0.021254
C104  C     C_R   0.499673 0.999733 0.878115 0.005115
C105  C     C_R   0.500234 0.000680 0.121771 0.025107
C106  C     C_R   0.500111 0.999799 0.378049 -0.013810
C107  C     C_R   0.498709 0.000196 0.621906 0.006536
C108  C     C_R   0.999602 0.501266 0.378227 0.023972
C109  C     C_R   0.000438 0.500132 0.621768 0.024695
C110  C     C_3   0.907949 0.694424 0.876604 -0.253188
C111  C     C_3   0.049552 0.294558 0.123870 -0.253911
C112  C     C_3   0.301165 0.918417 0.877303 -0.255977
H1    H     H_    0.849890 0.569038 0.964333 0.232918
H2    H     H_    0.153700 0.432825 0.963267 0.233556
H3    H     H_    0.948831 0.659063 0.035377 0.230693
H4    H     H_    0.863916 0.594490 0.035595 0.232593
H5    H     H_    0.652413 0.070933 0.963784 0.233697
H6    H     H_    0.579282 0.148496 0.963333 0.232975
H7    H     H_    0.341208 0.954648 0.035184 0.231594
H8    H     H_    0.402675 0.867522 0.035418 0.233419
H9    H     H_    0.596874 0.134585 0.464756 0.221443
H10   H     H_    0.659802 0.048612 0.463503 0.233122
H11   H     H_    0.410291 0.858181 0.535536 0.220790
H12   H     H_    0.921764 0.647838 0.964587 0.220519
H13   H     H_    0.344413 0.941967 0.535926 0.233065
H14   H     H_    0.908045 0.361921 0.464193 0.235044
H15   H     H_    0.844602 0.447574 0.465327 0.229781
H16   H     H_    0.104600 0.630420 0.535816 0.234618
H17   H     H_    0.163473 0.541521 0.535874 0.232975
H18   H     H_    0.342264 0.948526 0.463895 0.233585
H19   H     H_    0.404971 0.862346 0.464500 0.220935
H20   H     H_    0.657484 0.055850 0.536446 0.233150
H21   H     H_    0.590154 0.138453 0.535362 0.231646
H22   H     H_    0.161532 0.549648 0.463835 0.233117
H23   H     H_    0.140061 0.408307 0.035946 0.232590
H24   H     H_    0.098140 0.635366 0.464120 0.234374
H25   H     H_    0.841254 0.456980 0.535010 0.231695
H26   H     H_    0.899945 0.367973 0.535678 0.234552
H27   H     H_    0.861428 0.582241 0.856996 0.249513
H28   H     H_    0.966134 0.701995 0.861468 0.161340
H29   H     H_    0.918233 0.721765 0.901902 0.169427
H30   H     H_    0.856323 0.729822 0.864272 0.142630
H31   H     H_    0.152875 0.369227 0.113280 0.266781
H32   H     H_    0.085834 0.252628 0.140793 0.147552
H33   H     H_    0.045200 0.264466 0.098771 0.151671
H34   H     H_    0.055045 0.343918 0.035027 0.230638
H35   H     H_    0.985247 0.302106 0.134363 0.169576
H36   H     H_    0.410504 0.865437 0.857639 0.253505
H37   H     H_    0.296565 0.976617 0.862004 0.159760
H38   H     H_    0.274777 0.930636 0.902639 0.167185
H39   H     H_    0.262849 0.868514 0.865220 0.140714
H40   H     H_    0.685006 0.090046 0.110972 0.277955
H41   H     H_    0.651058 0.204120 0.147098 0.143175
H42   H     H_    0.542332 0.172659 0.146952 0.141878
H43   H     H_    0.590058 0.214334 0.109059 0.147665
H44   H     H_    0.171285 0.396436 0.885835 0.267026
H45   H     H_    0.425240 0.853491 0.964542 0.233819
H46   H     H_    0.124155 0.270523 0.858359 0.143759
H47   H     H_    0.016837 0.302369 0.865248 0.173316
H48   H     H_    0.083026 0.275066 0.900553 0.150507
H49   H     H_    0.847943 0.631017 0.113069 0.266703
H50   H     H_    0.913666 0.747364 0.141240 0.147729
H51   H     H_    0.955199 0.736801 0.099291 0.152002
H52   H     H_    0.014683 0.698667 0.134900 0.169887
H53   H     H_    0.670906 0.112925 0.888395 0.278512
H54   H     H_    0.622273 0.220527 0.851797 0.142203
H55   H     H_    0.560254 0.223517 0.889804 0.149906
H56   H     H_    0.350738 0.929727 0.965321 0.219495
H57   H     H_    0.518676 0.174939 0.852108 0.143663
H58   H     H_    0.315543 0.911923 0.110272 0.277873
H59   H     H_    0.348756 0.796759 0.145974 0.143270
H60   H     H_    0.457539 0.828025 0.146157 0.142248
H61   H     H_    0.410292 0.787532 0.108003 0.148218
H62   H     H_    0.644456 0.068142 0.356285 0.249883
H63   H     H_    0.553037 0.197189 0.362012 0.162275
H64   H     H_    0.665120 0.214163 0.364500 0.137252
H65   H     H_    0.603525 0.210744 0.402361 0.169748
H66   H     H_    0.356693 0.927538 0.643463 0.246305
H67   H     H_    0.599134 0.136137 0.036097 0.232969
H68   H     H_    0.451534 0.800670 0.638622 0.163560
H69   H     H_    0.402230 0.784695 0.598193 0.171999
H70   H     H_    0.339956 0.780846 0.635863 0.135638
H71   H     H_    0.868677 0.348567 0.387167 0.269392
H72   H     H_    0.751906 0.414849 0.359697 0.141347
H73   H     H_    0.801580 0.515612 0.365563 0.169504
H74   H     H_    0.764181 0.456714 0.401503 0.150186
H75   H     H_    0.188153 0.583175 0.611029 0.277700
H76   H     H_    0.157682 0.699710 0.646351 0.141610
H77   H     H_    0.047922 0.671960 0.646157 0.142157
H78   H     H_    0.660689 0.049089 0.035706 0.233355
H79   H     H_    0.097544 0.710584 0.608128 0.152481
H80   H     H_    0.355261 0.932603 0.356487 0.249150
H81   H     H_    0.445664 0.802642 0.361426 0.162601
H82   H     H_    0.333481 0.786586 0.364235 0.135929
H83   H     H_    0.395795 0.788480 0.401888 0.170914
H84   H     H_    0.678411 0.090350 0.613878 0.266145
H85   H     H_    0.641559 0.219160 0.641589 0.141739
H86   H     H_    0.531966 0.195510 0.635108 0.175897
H87   H     H_    0.599283 0.218089 0.599563 0.154442
H88   H     H_    0.183605 0.592623 0.388759 0.278149
H89   H     H_    0.080429 0.355363 0.964510 0.230636
H90   H     H_    0.147830 0.706667 0.352949 0.141915
H91   H     H_    0.086737 0.715493 0.391045 0.152967
H92   H     H_    0.039564 0.673572 0.353115 0.139570
H93   H     H_    0.813060 0.417476 0.610216 0.277133
H94   H     H_    0.841678 0.301282 0.646008 0.141063
H95   H     H_    0.951574 0.328472 0.646288 0.142901
H96   H     H_    0.903059 0.289612 0.608112 0.149667
N1    N     N_3   0.887552 0.607213 0.949122 -0.600280
N2    N     N_3   0.379298 0.901159 0.551067 -0.600050
N3    N     N_3   0.877398 0.406813 0.449437 -0.639268
N4    N     N_3   0.131961 0.584658 0.551166 -0.640310
N5    N     N_3   0.375800 0.906348 0.448864 -0.599309
N6    N     N_3   0.621346 0.096402 0.551228 -0.639644
N7    N     N_3   0.127701 0.591245 0.448656 -0.640116
N8    N     N_3   0.872004 0.414127 0.550669 -0.641673
N9    N     N_2   0.885066 0.606523 0.879048 -0.475144
N10   N     N_2   0.091579 0.375103 0.121438 -0.483476
N11   N     N_2   0.387742 0.890951 0.879621 -0.472832
N12   N     N_3   0.095491 0.377412 0.050812 -0.642016
N13   N     N_2   0.626225 0.091060 0.121922 -0.471394
N14   N     N_2   0.109713 0.392050 0.877886 -0.484602
N15   N     N_2   0.909046 0.625327 0.121445 -0.483314
N16   N     N_2   0.612541 0.105829 0.877476 -0.472540
N17   N     N_2   0.374156 0.910494 0.121328 -0.471783
N18   N     N_2   0.624649 0.093711 0.378710 -0.473471
N19   N     N_2   0.377698 0.901854 0.621232 -0.478017
N20   N     N_2   0.874581 0.409711 0.378841 -0.480585
N21   N     N_2   0.129257 0.586626 0.621800 -0.471164
N22   N     N_2   0.375258 0.906307 0.378750 -0.474859
N23   N     N_3   0.388860 0.893434 0.949596 -0.600660
N24   N     N_2   0.617439 0.099244 0.621985 -0.489839
N25   N     N_2   0.124686 0.592935 0.377948 -0.472995
N26   N     N_2   0.871509 0.413908 0.621335 -0.470951
N27   N     N_3   0.628092 0.090894 0.051223 -0.643063
N28   N     N_3   0.114532 0.394987 0.948570 -0.641853
N29   N     N_3   0.907891 0.625057 0.050813 -0.641408
N30   N     N_3   0.614202 0.107596 0.948239 -0.642070
N31   N     N_3   0.373497 0.912444 0.050629 -0.643184
N32   N     N_3   0.625830 0.091162 0.448801 -0.598697
O1    O     O_3   0.500000 1.000000 0.750000 -0.438140
O2    O     O_R   0.430670 1.000000 0.175110 -0.516893
O3    O     O_R   0.000000 0.569330 0.824890 -0.551580
O4    O     O_R   1.000000 0.430670 0.175110 -0.526551
O5    O     O_R   0.930670 0.500000 0.324890 -0.531063
O6    O     O_R   0.069330 0.500000 0.675110 -0.516967
O7    O     O_R   0.500000 0.930670 0.324890 -0.545539
O8    O     O_R   0.500000 0.069330 0.675110 -0.526274
O9    O     O_R   0.069330 0.500000 0.324890 -0.511793
O10   O     O_R   0.930670 0.500000 0.675110 -0.516177
O11   O     O_R   0.500000 0.069330 0.324890 -0.544626
O12   O     O_3   0.500000 0.000000 0.250000 -0.439986
O13   O     O_R   0.500000 0.930670 0.675110 -0.550125
O14   O     O_R   0.666560 0.097440 0.769680 -0.529836
O15   O     O_R   0.333440 0.902560 0.230320 -0.530602
O16   O     O_R   0.902560 0.666560 0.769680 -0.543102
O17   O     O_R   0.097440 0.333440 0.230320 -0.534346
O18   O     O_R   0.333440 0.902560 0.769680 -0.540076
O19   O     O_R   0.666560 0.097440 0.230320 -0.530686
O20   O     O_R   0.097440 0.333440 0.769680 -0.535840
O21   O     O_R   0.902560 0.666560 0.230320 -0.533665
O22   O     O_R   0.666560 0.902560 0.230320 -0.534333
O23   O     O_3   1.000000 0.500000 0.750000 -0.442246
O24   O     O_R   0.333440 0.097440 0.769680 -0.539007
O25   O     O_R   0.902560 0.333440 0.230320 -0.539289
O26   O     O_R   0.097440 0.666560 0.769680 -0.536476
O27   O     O_R   0.333440 0.097440 0.230320 -0.534920
O28   O     O_R   0.666560 0.902560 0.769680 -0.535013
O29   O     O_R   0.097440 0.666560 0.230320 -0.540962
O30   O     O_R   0.902560 0.333440 0.769680 -0.540422
O31   O     O_R   0.166560 0.597440 0.269680 -0.532870
O32   O     O_R   0.833440 0.402560 0.730320 -0.532678
O33   O     O_R   0.402560 0.166560 0.269680 -0.535582
O34   O     O_3   1.000000 0.500000 0.250000 -0.443413
O35   O     O_R   0.597440 0.833440 0.730320 -0.534067
O36   O     O_R   0.833440 0.402560 0.269680 -0.533594
O37   O     O_R   0.166560 0.597440 0.730320 -0.531639
O38   O     O_R   0.597440 0.833440 0.269680 -0.536670
O39   O     O_R   0.402560 0.166560 0.730320 -0.537357
O40   O     O_R   0.166560 0.402560 0.730320 -0.532924
O41   O     O_R   0.833440 0.597440 0.269680 -0.541642
O42   O     O_R   0.402560 0.833440 0.730320 -0.540367
O43   O     O_R   0.597440 0.166560 0.269680 -0.541746
O44   O     O_R   0.833440 0.597440 0.730320 -0.532782
O45   O     O_R   0.430670 0.000000 0.824890 -0.559253
O46   O     O_R   0.166560 0.402560 0.269680 -0.533043
O47   O     O_R   0.597440 0.166560 0.730320 -0.535981
O48   O     O_R   0.402560 0.833440 0.269680 -0.541612
O49   O     O_R   0.569330 1.000000 0.175110 -0.516942
O50   O     O_R   0.000000 0.430670 0.824890 -0.523568
O51   O     O_R   1.000000 0.569330 0.175110 -0.526358
O52   O     O_R   0.569330 0.000000 0.824890 -0.506448
Zn1   Zn    Zn3+2 0.500000 0.098940 0.722030 0.941972
Zn2   Zn    Zn3+2 1.000000 0.401060 0.777970 0.939368
Zn3   Zn    Zn3+2 0.401060 1.000000 0.222030 0.949175
Zn4   Zn    Zn3+2 0.598940 1.000000 0.777970 0.957052
Zn5   Zn    Zn3+2 1.000000 0.401060 0.222030 0.945170
Zn6   Zn    Zn3+2 1.000000 0.598940 0.777970 0.929201
Zn7   Zn    Zn3+2 0.598940 1.000000 0.222030 0.949430
Zn8   Zn    Zn3+2 0.401060 1.000000 0.777970 0.922242
Zn9   Zn    Zn3+2 0.500000 0.901060 0.277970 0.927145
Zn10  Zn    Zn3+2 0.901060 0.500000 0.722030 0.947834
Zn11  Zn    Zn3+2 0.098940 0.500000 0.277970 0.955797
Zn12  Zn    Zn3+2 0.500000 0.901060 0.722030 0.933706
Zn13  Zn    Zn3+2 0.500000 0.098940 0.277970 0.928242
Zn14  Zn    Zn3+2 0.098940 0.500000 0.722030 0.952898
Zn15  Zn    Zn3+2 0.901060 0.500000 0.277970 0.939156
Zn16  Zn    Zn3+2 1.000000 0.598940 0.222030 0.940383

loop_
_geom_bond_atom_site_label_1
_geom_bond_atom_site_label_2
_ccdc_geom_bond_type
O26   Zn6   S    
C10   H72   S    
H49   N15   S    
C100  N26   S    
C25   C67   A    
O31   Zn11  S    
C8    H63   S    
O34   Zn16  S    
C30   O8    A    
C67   N12   S    
C99   N25   S    
H12   N1    S    
C10   H73   S    
C82   C99   A    
C74   C92   A    
C9    H70   S    
C76   C94   A    
C18   C58   S    
C78   C96   A    
O4    Zn5   S    
O21   Zn16  S    
C111  N10   S    
O1    Zn8   S    
C14   N24   S    
C85   C103  A    
C68   N23   S    
O42   Zn12  S    
C42   O36   A    
C100  C109  A    
H40   N13   S    
C75   N32   S    
C32   C57   S    
C41   C49   S    
O37   Zn14  S    
C6    N16   S    
C67   C85   A    
C20   C80   S    
O46   Zn11  S    
C43   O26   A    
C39   O21   A    
O32   Zn10  S    
C8    N18   S    
H22   N7    S    
C34   O17   A    
C112  H39   S    
C90   C104  A    
C94   N19   S    
C98   N24   S    
C92   N17   S    
C83   C100  A    
C56   C62   T    
C78   N4    S    
C75   C93   A    
C14   H87   S    
C76   N2    S    
C31   O14   A    
O25   Zn5   S    
C79   C97   A    
C37   O19   A    
C47   C74   A    
C38   O20   A    
C15   H91   S    
C36   C68   A    
C83   C91   A    
C96   C109  A    
C35   O42   A    
C27   O9    A    
O10   Zn10  S    
H31   N10   S    
C82   N7    S    
O9    Zn11  S    
C27   C108  S    
O3    Zn6   S    
C39   C60   S    
C32   O15   A    
O23   Zn2   S    
O8    Zn1   S    
C70   N27   S    
H36   N11   S    
C95   C108  A    
H8    N31   S    
C71   C88   A    
H75   N21   S    
C20   C21   T    
O51   Zn16  S    
C72   N29   S    
C23   O2    A    
H78   N27   S    
C30   C107  S    
H19   N5    S    
O48   Zn9   S    
C86   C104  A    
O1    Zn4   S    
C83   N8    S    
O2    Zn3   S    
C99   C108  A    
O19   Zn7   S    
O12   Zn13  S    
C5    H51   S    
C73   C90   A    
H14   N3    S    
C27   O5    A    
C40   C50   S    
C2    C102  T    
C31   C59   S    
C23   C105  S    
C69   C76   A    
H44   N14   S    
C24   C101  S    
O23   Zn6   S    
H10   N32   S    
H84   N24   S    
C55   C63   T    
C53   C65   T    
C48   O30   A    
C11   N21   S    
O7    Zn9   S    
C70   C87   A    
C44   O27   A    
C14   H85   S    
C94   C107  A    
C11   H76   S    
O49   Zn7   S    
O52   Zn4   S    
H88   N25   S    
C80   C82   A    
C52   C57   T    
O34   Zn5   S    
H3    N29   S    
O35   Zn12  S    
H89   N28   S    
C7    N17   S    
O39   Zn1   S    
H4    N29   S    
C3    H42   S    
O47   Zn1   S    
C66   N1    S    
O28   Zn4   S    
C110  H29   S    
C85   N10   S    
O41   Zn15  S    
O16   Zn6   S    
C93   C106  A    
O30   Zn2   S    
C97   N22   S    
C87   C105  A    
O11   Zn13  S    
C34   C64   S    
C28   O6    A    
C96   N21   S    
O27   Zn3   S    
H66   N19   S    
C43   C55   S    
O20   Zn2   S    
O45   Zn8   S    
C112  H38   S    
C19   C69   S    
H45   N23   S    
O50   Zn2   S    
C41   O24   A    
C31   O47   A    
C17   C47   S    
C32   O48   A    
C89   N15   S    
C35   C63   S    
C8    H64   S    
C13   C17   T    
C50   C60   T    
H1    N1    S    
C73   N30   S    
H7    N31   S    
C54   C64   T    
H23   N12   S    
C34   O46   A    
C10   H74   S    
C11   H79   S    
C28   O10   A    
C9    H69   S    
C44   C54   S    
O38   Zn9   S    
H20   N6    S    
C48   O32   A    
C7    H60   S    
C24   O50   A    
O5    Zn15  S    
C6    H54   S    
C7    H59   S    
O12   Zn3   S    
C12   H81   S    
C16   H95   S    
O34   Zn11  S    
C37   C62   S    
H80   N22   S    
H26   N8    S    
H21   N6    S    
C29   O11   A    
H93   N26   S    
O1    Zn1   S    
C4    H47   S    
C81   C98   A    
H11   N2    S    
C18   C19   T    
C110  N9    S    
C42   C56   S    
C8    H65   S    
C37   O43   A    
C81   N6    S    
H24   N7    S    
H6    N30   S    
C44   O33   A    
C33   O44   A    
C40   O38   A    
C3    N13   S    
C35   O18   A    
O12   Zn7   S    
O34   Zn15  S    
C88   C101  A    
C49   C61   T    
O23   Zn10  S    
O24   Zn8   S    
C26   O51   A    
O15   Zn3   S    
C23   O49   A    
C45   O35   A    
C98   C107  A    
C11   H77   S    
C90   N16   S    
C41   O39   A    
C22   O45   A    
C111  H35   S    
C26   C103  S    
H27   N9    S    
C16   N26   S    
C3    H43   S    
C9    N19   S    
C42   O25   A    
O1    Zn12  S    
C97   C106  A    
O6    Zn14  S    
O17   Zn5   S    
H5    N30   S    
H25   N8    S    
C28   C109  S    
C12   H83   S    
C87   N13   S    
C21   C91   S    
C77   C80   A    
C33   O16   A    
O23   Zn14  S    
H71   N20   S    
C12   N22   S    
H9    N32   S    
C16   H94   S    
C5    H50   S    
H62   N18   S    
H16   N4    S    
H56   N23   S    
C4    N14   S    
C2    C25   S    
C86   N11   S    
C69   C81   A    
C84   N9    S    
C92   C105  A    
H58   N17   S    
O12   Zn9   S    
O13   Zn12  S    
C1    C102  S    
H53   N16   S    
C46   O31   A    
C68   C86   A    
C15   H92   S    
C33   C65   S    
C14   H86   S    
O44   Zn10  S    
C1    C71   A    
C24   O3    A    
O36   Zn15  S    
O14   Zn4   S    
C111  H33   S    
C26   O4    A    
C46   C52   S    
C3    H41   S    
C22   C104  S    
H18   N5    S    
C74   N31   S    
C110  H30   S    
C95   N20   S    
C40   O22   A    
C93   N18   S    
C45   O28   A    
C4    H46   S    
O18   Zn8   S    
C22   O52   A    
C38   C61   S    
C10   N20   S    
C84   C101  A    
C29   O7    A    
C58   C75   A    
C48   C51   S    
O40   Zn14  S    
C30   O13   A    
C5    H52   S    
C13   C36   S    
H67   N27   S    
O33   Zn13  S    
H2    N28   S    
C66   C84   A    
C77   C95   A    
C36   C73   A    
C47   C70   A    
O29   Zn16  S    
C43   O37   A    
C15   N25   S    
C1    C66   A    
C25   C72   A    
C71   N28   S    
H17   N4    S    
C9    H68   S    
C111  H32   S    
C58   C79   A    
H15   N3    S    
C5    N15   S    
C46   O29   A    
O22   Zn7   S    
C29   C106  S    
C51   C59   T    
C15   H90   S    
C38   O40   A    
C6    H55   S    
C12   H82   S    
C16   H96   S    
H13   N2    S    
C78   C91   A    
C110  H28   S    
C72   C89   A    
H34   N12   S    
C4    H48   S    
C39   O41   A    
C7    H61   S    
C112  N11   S    
C88   N14   S    
C77   N3    S    
C45   C53   S    
C79   N5    S    
C112  H37   S    
C89   C103  A    
O43   Zn13  S    
C6    H57   S    
