data_mof_unit_23334.cif
_audit_creation_date              2012-12-11T16:37:22-0500
_audit_creation_method            fapswitch 2.2
_symmetry_space_group_name_H-M    P1
_symmetry_Int_Tables_number       1
_space_group_crystal_system       triclinic
_cell_length_a                    19.500788
_cell_length_b                    6.943266
_cell_length_c                    17.705988
_cell_angle_alpha                 90.00032
_cell_angle_beta                  109.041582
_cell_angle_gamma                 89.999975
_cell_volume                      2266.19637372

loop_
_atom_site_label
_atom_site_type_symbol
_atom_type_description
_atom_site_fract_x
_atom_site_fract_y
_atom_site_fract_z
_atom_type_partial_charge
O1    O     O_R   0.561710 0.369960 0.440200 -0.542451
O2    O     O_R   0.061710 0.630040 0.940200 -0.542458
O3    O     O_R   0.412630 0.033330 0.406330 -0.544575
O4    O     O_R   0.912630 0.966670 0.906330 -0.544569
O5    O     O_R   0.438290 0.869790 0.559800 -0.516780
O6    O     O_R   0.938290 0.130210 0.059800 -0.516788
C1    C     C_R   0.385021 0.203126 0.382962 0.686376
C2    C     C_R   0.885021 0.796873 0.882963 0.686382
O7    O     O_R   0.559570 0.039810 0.430640 -0.518786
O8    O     O_R   0.059570 0.960190 0.930640 -0.518761
O9    O     O_R   0.586280 0.876320 0.584290 -0.536585
O10   O     O_R   0.086280 0.123680 0.084290 -0.536590
C3    C     C_R   0.580348 0.208825 0.414531 0.705510
C4    C     C_R   0.080351 0.791174 0.914534 0.705548
O11   O     O_R   0.413720 0.363440 0.415710 -0.540915
O12   O     O_R   0.913720 0.636560 0.915710 -0.540917
O13   O     O_3   0.508590 0.205630 0.550380 -0.360501
O14   O     O_3   0.008590 0.794370 0.050380 -0.360512
V1    V     V_3+5 0.498410 0.928130 0.490650 1.444171
V2    V     V_3+5 0.998410 0.071870 0.990650 1.444199
O15   O     O_R   0.587370 0.546990 0.593670 -0.541633
O16   O     O_R   0.087370 0.453010 0.093670 -0.541634
C5    C     C_R   0.614910 0.716840 0.617316 0.700712
C6    C     C_R   0.114910 0.283160 0.117316 0.700705
O17   O     O_R   0.440430 0.540520 0.569360 -0.548400
O18   O     O_R   0.940430 0.459480 0.069360 -0.548405
C7    C     C_R   0.419866 0.709496 0.585533 0.714857
C8    C     C_R   0.919865 0.290505 0.085531 0.714857
V3    V     V_3+5 0.501590 0.428960 0.509350 1.417023
V4    V     V_3+5 0.001590 0.571040 0.009350 1.417013
O19   O     O_3   0.491410 0.701330 0.449620 -0.367112
O20   O     O_3   0.991410 0.298670 0.949620 -0.367102
C9    C     C_R   0.323998 0.891663 0.728532 -0.200382
C10   C     C_R   0.823981 0.108347 0.228514 -0.200368
H1    H     H_    0.324748 0.017566 0.764963 0.112153
H2    H     H_    0.824729 0.982449 0.264947 0.112158
C11   C     C_R   0.371917 0.883306 0.684050 0.191794
C12   C     C_R   0.871906 0.116702 0.184040 0.191796
C13   C     C_R   0.372153 0.720153 0.636224 -0.045196
C14   C     C_R   0.872146 0.279852 0.136215 -0.045196
C15   C     C_R   0.325229 0.566239 0.636280 -0.235928
C16   C     C_R   0.825217 0.433761 0.136261 -0.235926
H3    H     H_    0.323603 0.440312 0.599673 0.127293
H4    H     H_    0.823594 0.559685 0.099654 0.127282
C17   C     C_R   0.278336 0.574830 0.681596 -0.148389
C18   C     C_R   0.778316 0.425170 0.181568 -0.148387
H5    H     H_    0.242111 0.455017 0.679158 0.111197
H6    H     H_    0.742086 0.544978 0.179120 0.111194
C19   C     C_R   0.276571 0.738634 0.727510 0.077309
C20   C     C_R   0.776549 0.261372 0.227484 0.077306
C21   C     C_R   0.214039 0.594379 0.818151 -0.159778
C22   C     C_R   0.714002 0.405650 0.318107 -0.159765
H7    H     H_    0.243058 0.460682 0.819589 0.117346
H8    H     H_    0.743007 0.539365 0.319529 0.117353
C23   C     C_R   0.166935 0.609035 0.862927 -0.215192
C24   C     C_R   0.666906 0.390987 0.362892 -0.215158
H9    H     H_    0.161189 0.485427 0.897678 0.158617
H10   H     H_    0.661151 0.514611 0.397632 0.158666
C25   C     C_R   0.128752 0.780739 0.864152 -0.072368
C26   C     C_R   0.628742 0.219260 0.364140 -0.072432
C27   C     C_R   0.138330 0.939039 0.817731 0.205255
C28   C     C_R   0.638325 0.060947 0.317727 0.205280
C29   C     C_R   0.186864 0.923054 0.773948 -0.180428
C30   C     C_R   0.686855 0.076937 0.273938 -0.180381
H11   H     H_    0.193757 0.044026 0.738440 0.100737
H12   H     H_    0.693759 0.955950 0.238443 0.100723
C31   C     C_R   0.225115 0.751727 0.773810 0.070573
C32   C     C_R   0.725091 0.248285 0.273781 0.070551
C33   C     C_R   0.804628 0.621844 0.761602 0.105483
C34   C     C_R   0.304628 0.378154 0.261602 0.105478
C35   C     C_R   0.818242 0.782810 0.812403 -0.110102
C36   C     C_R   0.318242 0.217189 0.312402 -0.110104
C37   C     C_R   0.765250 0.928473 0.794305 -0.183857
C38   C     C_R   0.265250 0.071527 0.294305 -0.183856
H13   H     H_    0.772917 0.054525 0.831897 0.131206
H14   H     H_    0.272916 0.945475 0.331896 0.131207
C39   C     C_R   0.699226 0.905699 0.731232 -0.173949
C40   C     C_R   0.199225 0.094301 0.231232 -0.173946
H15   H     H_    0.658627 0.017659 0.721035 0.133616
H16   H     H_    0.158626 0.982342 0.221035 0.133617
C41   C     C_R   0.683888 0.735739 0.684782 -0.109032
C42   C     C_R   0.183888 0.264262 0.184782 -0.109030
C43   C     C_R   0.739363 0.599208 0.699278 0.098469
C44   C     C_R   0.239364 0.400791 0.199278 0.098461
C45   C     C_3   0.737263 0.388546 0.713975 -0.425761
C46   C     C_3   0.237265 0.611453 0.213974 -0.425761
C47   C     C_3   0.808655 0.412750 0.781519 -0.386922
C48   C     C_3   0.308657 0.587249 0.281519 -0.386919
H17   H     H_    0.742302 0.301553 0.663345 0.175826
H18   H     H_    0.242305 0.698444 0.163344 0.175821
H19   H     H_    0.691346 0.348689 0.735022 0.172177
H20   H     H_    0.191348 0.651314 0.235022 0.172179
H21   H     H_    0.855006 0.340552 0.769688 0.172738
H22   H     H_    0.355009 0.659443 0.269687 0.172728
H23   H     H_    0.804250 0.385373 0.841635 0.167051
H24   H     H_    0.304253 0.614628 0.341634 0.167054
N1    N     N_3   0.421549 0.038886 0.689481 -0.653895
H25   H     H_    0.453495 0.054358 0.749377 0.217322
H26   H     H_    0.391420 0.165178 0.672023 0.225278
N2    N     N_3   0.921537 0.961119 0.189477 -0.653921
H27   H     H_    0.953465 0.945608 0.249378 0.217334
H28   H     H_    0.891411 0.834838 0.171985 0.225295
N3    N     N_3   0.097986 0.114228 0.813662 -0.654843
H29   H     H_    0.114898 0.219536 0.781386 0.216639
H30   H     H_    0.043785 0.084353 0.781320 0.216974
N4    N     N_3   0.597998 0.885733 0.313677 -0.654845
H31   H     H_    0.614859 0.780478 0.281329 0.216613
H32   H     H_    0.543778 0.915629 0.281415 0.216992

loop_
_geom_bond_atom_site_label_1
_geom_bond_atom_site_label_2
_ccdc_geom_bond_type
C12   C14   A    
C29   H11   S    
C45   C47   S    
C23   C25   A    
O13   V3    S    
O4    C2    A    
V1    O19   S    
C11   N1    S    
N1    H25   S    
C45   H19   S    
C13   C15   A    
C3    C26   S    
C4    C25   S    
O9    V1    S    
C38   H14   S    
C30   C32   A    
C27   N3    S    
C44   C46   S    
O3    C1    A    
C40   H16   S    
N4    H31   S    
C8    C14   S    
C9    C19   A    
O7    C3    A    
C26   C28   A    
C16   C18   A    
C33   C35   A    
C6    C42   S    
C28   C30   A    
C20   C32   S    
N1    H26   S    
O5    C7    A    
O7    V1    S    
O6    C8    A    
O8    V2    S    
C47   H23   S    
O3    V1    S    
O14   V4    S    
C39   C41   A    
C34   C44   A    
C21   C23   A    
C33   C47   S    
C17   H5    S    
C34   C48   S    
C2    O12   A    
C15   H3    S    
C16   H4    S    
N2    H28   S    
C41   C43   A    
C22   H8    S    
O11   V3    S    
C48   H22   S    
C39   H15   S    
O17   V3    S    
C29   C31   A    
C10   C20   A    
C25   C27   A    
C46   C48   S    
C36   C38   A    
O8    C4    A    
C7    C13   S    
C1    C36   S    
C35   C37   A    
C45   H17   S    
O13   V1    S    
C1    O11   A    
O15   V3    S    
C9    C11   A    
C24   C26   A    
C48   H24   S    
C21   H7    S    
C30   H12   S    
C33   C43   A    
C40   C42   A    
C17   C19   A    
O10   V2    S    
O1    V3    S    
N3    H30   S    
C21   C31   A    
C28   N4    S    
C12   N2    S    
C43   C45   S    
O18   V4    S    
C42   C44   A    
O15   C5    A    
C46   H18   S    
O16   C6    A    
O1    C3    A    
C37   H13   S    
V2    O20   S    
C18   C20   A    
C2    C35   S    
C37   C39   A    
C5    C41   S    
C10   C12   A    
C27   C29   A    
C14   C16   A    
C22   C32   A    
C34   C36   A    
C19   C31   S    
O5    V1    S    
O17   C7    A    
O6    V2    S    
O10   C6    A    
O18   C8    A    
O2    V4    S    
C23   H9    S    
C11   C13   A    
O16   V4    S    
V4    O20   S    
N4    H32   S    
C47   H21   S    
O9    C5    A    
N2    H27   S    
C9    H1    S    
C10   H2    S    
C24   H10   S    
O14   V2    S    
O2    C4    A    
O4    V2    S    
C18   H6    S    
V3    O19   S    
C38   C40   A    
N3    H29   S    
C15   C17   A    
C46   H20   S    
O12   V4    S    
C22   C24   A    
