data_mof_unit_7851.cif
_audit_creation_date              2012-12-10T18:44:02-0500
_audit_creation_method            fapswitch 2.2
_symmetry_space_group_name_H-M    P1
_symmetry_Int_Tables_number       1
_space_group_crystal_system       triclinic
_cell_length_a                    18.097126
_cell_length_b                    18.119531
_cell_length_c                    22.089141
_cell_angle_alpha                 114.391153
_cell_angle_beta                  114.107089
_cell_angle_gamma                 90.027113
_cell_volume                      5895.49322984

loop_
_atom_site_label
_atom_site_type_symbol
_atom_type_description
_atom_site_fract_x
_atom_site_fract_y
_atom_site_fract_z
_atom_type_partial_charge
C1    C     C_R   0.349743 0.349821 0.699438 0.817581
C2    C     C_1   0.889519 0.888186 0.778789 -0.149254
C3    C     C_R   0.453584 0.889768 0.297368 -0.142444
C4    C     C_R   0.435679 0.824662 0.227707 -0.147169
C5    C     C_R   0.417865 0.742739 0.214274 -0.097256
C6    C     C_R   0.417419 0.725773 0.270363 -0.135891
C7    C     C_R   0.435104 0.790673 0.340021 -0.165099
C8    C     C_R   0.581611 0.637470 0.642746 0.141608
C9    C     C_R   0.540082 0.696858 0.672428 -0.130273
C10   C     C_R   0.584217 0.766509 0.741009 -0.152164
C11   C     C_R   0.669801 0.777147 0.780373 -0.106286
C12   C     C_R   0.711391 0.718001 0.751537 -0.124703
C13   C     C_3   0.078554 0.992331 0.024655 0.074990
C14   C     C_R   0.667548 0.648360 0.682967 -0.147742
C15   C     C_R   0.418389 0.362530 0.357254 0.141608
C16   C     C_R   0.459918 0.303142 0.327572 -0.130274
C17   C     C_R   0.415782 0.233491 0.258991 -0.152164
C18   C     C_R   0.330199 0.222853 0.219627 -0.106286
C19   C     C_R   0.288609 0.281999 0.248463 -0.124703
C20   C     C_R   0.332452 0.351640 0.317032 -0.147742
C21   C     C_R   0.833039 0.017572 0.944940 0.118826
C22   C     C_R   0.776249 0.989386 0.962875 -0.176169
C23   C     C_R   0.693927 0.997652 0.932776 -0.155816
C24   C     C_3   0.921446 0.007669 0.975345 0.074990
C25   C     C_R   0.667810 0.034051 0.884727 -0.115825
C26   C     C_R   0.724106 0.062745 0.867068 -0.131028
C27   C     C_R   0.806480 0.054846 0.897231 -0.147123
C28   C     C_R   0.166961 0.982428 0.055060 0.118826
C29   C     C_R   0.223751 0.010614 0.037125 -0.176168
C30   C     C_R   0.306073 0.002348 0.067224 -0.155816
C31   C     C_R   0.332190 0.965949 0.115273 -0.115825
C32   C     C_R   0.275894 0.937255 0.132932 -0.131028
C33   C     C_R   0.193519 0.945154 0.102768 -0.147123
C34   C     C_R   0.965695 0.541734 0.624543 0.124118
C35   C     C_3   0.036380 0.037591 0.073275 0.155240
C36   C     C_R   0.005988 0.505482 0.671450 -0.114219
C37   C     C_R   0.994119 0.521651 0.734038 -0.131723
C38   C     C_R   0.941352 0.573959 0.750630 -0.112035
C39   C     C_R   0.899803 0.609351 0.704148 -0.158002
C40   C     C_R   0.911171 0.592961 0.641249 -0.132024
C41   C     C_R   0.034305 0.458266 0.375457 0.124118
C42   C     C_R   0.994012 0.494518 0.328550 -0.114219
C43   C     C_R   0.005881 0.478349 0.265962 -0.131723
C44   C     C_R   0.058648 0.426041 0.249370 -0.112034
C45   C     C_R   0.100197 0.390649 0.295851 -0.158003
C46   C     C_3   0.963620 0.962408 0.926725 0.155240
C47   C     C_R   0.088829 0.407039 0.358751 -0.132025
C48   C     C_R   0.142300 0.586877 0.640764 0.108638
C49   C     C_R   0.157651 0.673954 0.675432 -0.135724
C50   C     C_R   0.222695 0.719489 0.746614 -0.141001
C51   C     C_R   0.271765 0.678763 0.784839 -0.132501
C52   C     C_R   0.255116 0.592439 0.752298 -0.133016
C53   C     C_R   0.190237 0.546752 0.681111 -0.093939
C54   C     C_R   0.857700 0.413122 0.359236 0.108638
C55   C     C_R   0.842349 0.326046 0.324568 -0.135724
C56   C     C_R   0.777305 0.280511 0.253386 -0.141001
C57   C     C_1   0.076844 0.078782 0.154432 -0.087709
C58   C     C_R   0.728235 0.321237 0.215161 -0.132501
C59   C     C_R   0.744884 0.407561 0.247702 -0.133016
C60   C     C_R   0.809763 0.453248 0.318889 -0.093939
C61   C     C_R   0.080562 0.636069 0.500915 0.107636
C62   C     C_R   0.165577 0.642560 0.520840 -0.142045
C63   C     C_R   0.207621 0.701522 0.514443 -0.141683
C64   C     C_R   0.164887 0.753335 0.486539 -0.132597
C65   C     C_R   0.080133 0.746296 0.465170 -0.143153
C66   C     C_R   0.037999 0.687897 0.472063 -0.110342
C67   C     C_R   0.919438 0.363931 0.499084 0.107635
C68   C     C_1   0.923156 0.921218 0.845568 -0.087709
C69   C     C_R   0.834423 0.357440 0.479159 -0.142045
C70   C     C_R   0.792379 0.298478 0.485557 -0.141683
C71   C     C_R   0.835113 0.246665 0.513461 -0.132597
C72   C     C_R   0.919866 0.253704 0.534830 -0.143153
C73   C     C_R   0.962001 0.312103 0.527937 -0.110342
C74   C     C_3   0.069674 0.538392 0.564509 -0.033164
C75   C     C_3   0.930326 0.461608 0.435490 -0.033164
C76   C     C_3   0.981659 0.522658 0.557347 -0.037584
C77   C     C_R   0.650257 0.650179 0.300562 0.817579
C78   C     C_3   0.018341 0.477342 0.442653 -0.037584
C79   C     C_3   0.947865 0.551557 0.496029 -0.098640
C80   C     C_3   0.052135 0.448443 0.503971 -0.098640
C81   C     C_R   0.150275 0.150668 0.300569 0.812736
C82   C     C_R   0.849725 0.849332 0.699431 0.812737
C83   C     C_3   0.035538 0.567406 0.502992 -0.049639
C84   C     C_3   0.964461 0.432594 0.497008 -0.049639
C85   C     C_3   0.481498 0.575499 0.025502 -0.217529
C86   C     C_3   0.518502 0.424501 0.974498 -0.217529
C87   C     C_3   0.526143 0.545652 0.975770 0.075418
C88   C     C_3   0.536151 0.564515 0.567143 0.068807
C89   C     C_3   0.473857 0.454348 0.024230 0.075418
C90   C     C_1   0.389245 0.389669 0.778805 -0.145716
C91   C     C_1   0.610755 0.610331 0.221195 -0.145716
C92   C     C_3   0.417332 0.492273 0.975422 -0.237062
C93   C     C_3   0.582668 0.507727 0.024578 -0.237062
C94   C     C_3   0.462973 0.463564 0.926721 0.156560
C95   C     C_3   0.537026 0.536435 0.073278 0.156560
C96   C     C_1   0.422450 0.422973 0.845583 -0.082624
C97   C     C_1   0.577550 0.577027 0.154417 -0.082624
C98   C     C_3   0.064176 0.965046 0.493956 -0.239953
C99   C     C_3   0.463849 0.435485 0.432857 0.068807
C100  C     C_3   0.935824 0.034954 0.506044 -0.239952
C101  C     C_3   0.971797 0.928596 0.436543 -0.251927
C102  C     C_3   0.028203 0.071404 0.563457 -0.251927
C103  C     C_3   0.949473 0.949306 0.501098 0.023925
C104  C     C_3   0.050527 0.050694 0.498902 0.023925
C105  C     C_R   0.391263 0.107894 0.499482 0.785794
C106  C     C_R   0.608737 0.892106 0.500518 0.785794
C107  C     C_3   0.040620 0.985166 0.558039 0.087359
C108  C     C_3   0.959380 0.014834 0.441961 0.087358
C109  C     C_3   0.522777 0.057943 0.569218 0.059208
C110  C     C_3   0.038827 0.034998 0.974629 -0.235810
C111  C     C_3   0.477223 0.942057 0.430781 0.059208
C112  C     C_3   0.577173 0.042555 0.528330 -0.242676
C113  C     C_3   0.422827 0.957445 0.471670 -0.242676
C114  C     C_3   0.551327 0.949114 0.500668 0.012366
C115  C     C_3   0.448673 0.050886 0.499332 0.012366
C116  C     C_3   0.498002 0.964241 0.542370 -0.202859
C117  C     C_3   0.501998 0.035759 0.457630 -0.202859
C118  C     C_R   0.108210 0.391017 0.503390 0.750240
C119  C     C_R   0.891790 0.608983 0.496610 0.750238
C120  C     C_R   0.108227 0.108133 0.499690 0.768096
C121  C     C_3   0.961173 0.965002 0.025371 -0.235810
C122  C     C_R   0.891772 0.891867 0.500310 0.768095
C123  C     C_R   0.391285 0.391800 0.499663 0.784936
C124  C     C_R   0.608715 0.608200 0.500337 0.784938
C125  C     C_3   0.442106 0.539515 0.515916 -0.215602
C126  C     C_3   0.557894 0.460485 0.484084 -0.215601
C127  C     C_3   0.458414 0.526041 0.448670 -0.243403
C128  C     C_3   0.541586 0.473959 0.551330 -0.243403
C129  C     C_3   0.551889 0.550933 0.500581 0.013046
C130  C     C_3   0.448111 0.449067 0.499419 0.013046
C131  C     C_R   0.551387 0.597088 0.945962 0.118411
C132  C     C_3   0.996399 0.080928 0.024248 -0.215720
C133  C     C_R   0.633575 0.613053 0.958334 -0.157228
C134  C     C_R   0.655668 0.660658 0.929784 -0.141030
C135  C     C_R   0.596013 0.692481 0.888757 -0.107783
C136  C     C_R   0.514104 0.676679 0.876058 -0.132649
C137  C     C_R   0.491825 0.629292 0.904663 -0.154848
C138  C     C_R   0.448613 0.402912 0.054038 0.118411
C139  C     C_R   0.366425 0.386947 0.041666 -0.157228
C140  C     C_R   0.344332 0.339342 0.070216 -0.141031
C141  C     C_R   0.403987 0.307519 0.111243 -0.107782
C142  C     C_R   0.485896 0.323320 0.123941 -0.132650
C143  C     C_3   0.003601 0.919072 0.975752 -0.215720
C144  C     C_R   0.508174 0.370708 0.095337 -0.154848
C145  C     C_R   0.083752 0.970407 0.625317 0.126851
C146  C     C_R   0.151650 0.931232 0.634269 -0.123188
C147  C     C_R   0.188503 0.914597 0.695334 -0.141246
C148  C     C_R   0.158492 0.937842 0.748302 -0.124404
C149  C     C_R   0.091798 0.978055 0.740445 -0.104699
C150  C     C_R   0.054730 0.994615 0.679378 -0.115145
C151  C     C_R   0.916248 0.029592 0.374683 0.126851
C152  C     C_R   0.848350 0.068768 0.365731 -0.123187
C153  C     C_R   0.811497 0.085403 0.304666 -0.141246
C154  C     C_1   0.110481 0.111814 0.221211 -0.149255
C155  C     C_R   0.841508 0.062158 0.251698 -0.124404
C156  C     C_R   0.908202 0.021945 0.259555 -0.104699
C157  C     C_R   0.945270 0.005384 0.320622 -0.115145
C158  C     C_R   0.546168 0.126836 0.645792 0.128503
C159  C     C_R   0.546416 0.110232 0.702632 -0.142444
C160  C     C_R   0.564321 0.175338 0.772293 -0.147170
C161  C     C_R   0.582135 0.257261 0.785726 -0.097256
C162  C     C_R   0.582581 0.274227 0.729637 -0.135891
C163  C     C_R   0.564896 0.209327 0.659979 -0.165098
C164  C     C_R   0.453832 0.873164 0.354208 0.128503
H1    H     H_    0.425721 0.547918 0.406424 0.134390
H2    H     H_    0.386701 0.270500 0.133019 0.133318
H3    H     H_    0.028083 0.318563 0.548143 0.107112
H4    H     H_    0.532035 0.298725 0.155832 0.128154
H5    H     H_    0.571738 0.382288 0.105221 0.116972
H6    H     H_    0.467339 0.638052 0.047390 0.134987
H7    H     H_    0.532661 0.361948 0.952610 0.134987
H8    H     H_    0.650702 0.513940 0.046360 0.128359
H9    H     H_    0.349297 0.486060 0.953640 0.128359
H10   H     H_    0.947269 0.869445 0.384487 0.129295
H11   H     H_    0.052731 0.130555 0.615513 0.129295
H12   H     H_    0.117247 0.937919 0.488003 0.127062
H13   H     H_    0.574279 0.452082 0.593576 0.134391
H14   H     H_    0.882753 0.062081 0.511996 0.127062
H15   H     H_    0.176056 0.913256 0.594189 0.123693
H16   H     H_    0.240309 0.883624 0.701546 0.127702
H17   H     H_    0.187033 0.924968 0.795546 0.118284
H18   H     H_    0.068590 0.996080 0.781499 0.121003
H19   H     H_    0.002589 0.025153 0.673547 0.103719
H20   H     H_    0.823944 0.086744 0.405811 0.123693
H21   H     H_    0.759691 0.116376 0.298454 0.127702
H22   H     H_    0.812967 0.075032 0.204454 0.118284
H23   H     H_    0.931410 0.003920 0.218501 0.121003
H24   H     H_    0.680617 0.588803 0.989770 0.115064
H25   H     H_    0.997411 0.974847 0.326452 0.103719
H26   H     H_    0.641275 0.076264 0.551973 0.132982
H27   H     H_    0.358725 0.923736 0.448027 0.132982
H28   H     H_    0.532093 0.047336 0.693242 0.115701
H29   H     H_    0.564019 0.162274 0.815794 0.121100
H30   H     H_    0.595496 0.307559 0.839534 0.121153
H31   H     H_    0.596245 0.337687 0.740014 0.124938
H32   H     H_    0.564683 0.223331 0.616751 0.112183
H33   H     H_    0.467907 0.952664 0.306758 0.115701
H34   H     H_    0.435981 0.837726 0.184205 0.121100
H35   H     H_    0.719073 0.672894 0.939469 0.123128
H36   H     H_    0.404504 0.692441 0.160466 0.121153
H37   H     H_    0.403755 0.662313 0.259986 0.124938
H38   H     H_    0.435317 0.776669 0.383249 0.112184
H39   H     H_    0.497184 0.932935 0.576016 0.144424
H40   H     H_    0.502816 0.067064 0.423984 0.144424
H41   H     H_    0.392984 0.569612 0.527952 0.137031
H42   H     H_    0.607016 0.430388 0.472048 0.137031
H43   H     H_    0.474009 0.690181 0.642413 0.112220
H44   H     H_    0.552125 0.812387 0.763585 0.124866
H45   H     H_    0.703892 0.830992 0.833333 0.142440
H46   H     H_    0.613299 0.729500 0.866981 0.133318
H47   H     H_    0.777646 0.726415 0.782232 0.115998
H48   H     H_    0.700562 0.603363 0.660703 0.106612
H49   H     H_    0.525991 0.309819 0.357587 0.112220
H50   H     H_    0.447875 0.187612 0.236415 0.124867
H51   H     H_    0.296108 0.169008 0.166667 0.142440
H52   H     H_    0.222354 0.273585 0.217768 0.115998
H53   H     H_    0.299438 0.396637 0.339296 0.106612
H54   H     H_    0.993403 0.147524 0.045084 0.137303
H55   H     H_    0.006597 0.852476 0.954916 0.137303
H56   H     H_    0.068868 0.063250 0.952220 0.126035
H57   H     H_    0.467965 0.701274 0.844167 0.128154
H58   H     H_    0.931131 0.936750 0.047780 0.126035
H59   H     H_    0.795055 0.960601 0.999586 0.117538
H60   H     H_    0.650265 0.975410 0.946400 0.124312
H61   H     H_    0.604010 0.040048 0.861221 0.114295
H62   H     H_    0.703943 0.090975 0.829905 0.134202
H63   H     H_    0.849459 0.077181 0.882970 0.122442
H64   H     H_    0.204945 0.039398 0.000413 0.117537
H65   H     H_    0.349735 0.024590 0.053600 0.124312
H66   H     H_    0.395990 0.959952 0.138779 0.114295
H67   H     H_    0.296057 0.909025 0.170095 0.134202
H68   H     H_    0.428261 0.617712 0.894779 0.116972
H69   H     H_    0.150541 0.922819 0.117030 0.122442
H70   H     H_    0.046348 0.463907 0.659352 0.101298
H71   H     H_    0.025809 0.493443 0.769609 0.119749
H72   H     H_    0.932227 0.586640 0.799182 0.118221
H73   H     H_    0.858442 0.649487 0.716689 0.116079
H74   H     H_    0.876108 0.620347 0.606672 0.132508
H75   H     H_    0.953652 0.536093 0.340648 0.101299
H76   H     H_    0.974191 0.506557 0.230390 0.119749
H77   H     H_    0.067773 0.413360 0.200818 0.118220
H78   H     H_    0.141558 0.350513 0.283311 0.116079
H79   H     H_    0.319383 0.411197 0.010230 0.115064
H80   H     H_    0.123892 0.379652 0.393328 0.132508
H81   H     H_    0.118991 0.706950 0.647876 0.160227
H82   H     H_    0.234581 0.786410 0.772453 0.123822
H83   H     H_    0.321721 0.714099 0.840157 0.119567
H84   H     H_    0.291682 0.560750 0.782580 0.128308
H85   H     H_    0.176348 0.480325 0.659117 0.120316
H86   H     H_    0.881009 0.293050 0.352124 0.160227
H87   H     H_    0.765419 0.213590 0.227547 0.123822
H88   H     H_    0.678279 0.285901 0.159843 0.119567
H89   H     H_    0.708318 0.439250 0.217420 0.128308
H90   H     H_    0.280927 0.327107 0.060531 0.123128
H91   H     H_    0.823652 0.519675 0.340883 0.120316
H92   H     H_    0.199196 0.601294 0.540594 0.145581
H93   H     H_    0.273131 0.706306 0.530249 0.122193
H94   H     H_    0.197273 0.798505 0.480924 0.114974
H95   H     H_    0.046710 0.785259 0.442180 0.125387
H96   H     H_    0.971917 0.681436 0.451857 0.107112
H97   H     H_    0.800804 0.398706 0.459406 0.145581
H98   H     H_    0.726869 0.293694 0.469751 0.122193
H99   H     H_    0.802727 0.201495 0.519076 0.114974
H100  H     H_    0.953290 0.214741 0.557820 0.125387
O1    O     O_3   0.250010 0.250010 0.500010 -0.480290
O2    O     O_R   0.893710 0.832180 0.664370 -0.635859
O3    O     O_R   0.332200 0.393690 0.664400 -0.645002
O4    O     O_R   0.667800 0.606310 0.335600 -0.645002
O5    O     O_R   0.229300 0.167820 0.335610 -0.628431
O6    O     O_R   0.770700 0.832180 0.664390 -0.628432
O7    O     O_R   0.358130 0.123520 0.543120 -0.632674
O8    O     O_R   0.641870 0.876480 0.456880 -0.632674
O9    O     O_R   0.080390 0.314990 0.456920 -0.640907
O10   O     O_R   0.919610 0.685010 0.543080 -0.640907
O11   O     O_R   0.185040 0.123520 0.543150 -0.641606
O12   O     O_3   0.749990 0.749990 0.499990 -0.480291
O13   O     O_R   0.814960 0.876480 0.456850 -0.641606
O14   O     O_R   0.358080 0.419590 0.543080 -0.641633
O15   O     O_R   0.641920 0.580410 0.456920 -0.641634
O16   O     O_R   0.080420 0.141920 0.456950 -0.641083
O17   O     O_R   0.919580 0.858080 0.543050 -0.641083
O18   O     O_R   0.376490 0.315000 0.456880 -0.635843
O19   O     O_R   0.623510 0.685000 0.543120 -0.635844
O20   O     O_R   0.376520 0.141930 0.456900 -0.648994
O21   O     O_R   0.623480 0.858070 0.543100 -0.648994
O22   O     O_R   0.184990 0.419580 0.543110 -0.654982
O23   O     O_R   0.815010 0.580420 0.456890 -0.654982
O24   O     O_R   0.332220 0.270690 0.664420 -0.626639
O25   O     O_R   0.667780 0.729310 0.335580 -0.626639
O26   O     O_R   0.106290 0.167820 0.335630 -0.635859
Zn1   Zn    Zn3+2 0.307090 0.219220 0.438420 0.968974
Zn2   Zn    Zn3+2 0.692910 0.780780 0.561580 0.968974
Zn3   Zn    Zn3+2 0.280820 0.192930 0.561610 0.968457
Zn4   Zn    Zn3+2 0.719180 0.807070 0.438390 0.968457
Zn5   Zn    Zn3+2 0.131340 0.219220 0.438450 0.957246
Zn6   Zn    Zn3+2 0.868660 0.780780 0.561550 0.957245
Zn7   Zn    Zn3+2 0.280790 0.368660 0.561580 0.948211
Zn8   Zn    Zn3+2 0.719210 0.631340 0.438420 0.948211

loop_
_geom_bond_atom_site_label_1
_geom_bond_atom_site_label_2
_ccdc_geom_bond_type
C19   C20   A    
C76   C79   S    
C74   C83   S    
C145  C146  A    
O21   Zn2   S    
C141  H2    S    
O15   Zn8   S    
O17   Zn6   S    
C5    C6    A    
C120  O16   A    
C87   C94   S    
O16   Zn5   S    
C133  H24   S    
C81   O26   A    
C80   C84   S    
C59   C60   A    
C101  C103  S    
C21   C22   A    
C48   C53   A    
C52   H84   S    
C5    H36   S    
C45   C47   A    
C15   C20   A    
C51   C52   A    
C48   C74   S    
C140  C141  A    
C9    H43   S    
C72   C73   A    
C69   H97   S    
C126  C129  S    
C144  H5    S    
C123  O18   A    
C86   H7    S    
C51   H83   S    
C43   C44   A    
C37   C38   A    
C108  C151  S    
O12   Zn4   S    
C1    O3    A    
C127  H1    S    
C92   C94   S    
C111  C113  S    
C94   C96   S    
C3    C164  A    
C28   C33   A    
C46   C110  S    
C158  C159  A    
C142  C144  A    
C41   C78   S    
C103  C107  S    
C146  C147  A    
C156  H23   S    
C77   C91   S    
O1    Zn7   S    
C159  H28   S    
O25   Zn4   S    
C4    C5    A    
C139  C140  A    
C95   C97   S    
C6    C7    A    
O19   Zn2   S    
C57   C154  T    
C24   C46   S    
C102  H11   S    
C32   C33   A    
O6    Zn2   S    
C27   H63   S    
C112  C117  S    
C163  H32   S    
C25   H61   S    
C24   C121  S    
C132  H54   S    
C69   C70   A    
C122  O17   A    
C142  H4    S    
C135  H46   S    
C89   C138  S    
C21   C24   S    
C155  C156  A    
C125  C127  S    
C22   C23   A    
O1    Zn1   S    
C50   H82   S    
C75   C79   S    
C35   C132  S    
C1    O24   A    
C113  C115  S    
C93   H8    S    
O23   Zn8   S    
C59   H89   S    
C106  O21   A    
C20   H53   S    
C147  C148  A    
C100  H14   S    
C112  C114  S    
C29   C30   A    
C74   C76   S    
C36   C37   A    
C65   H95   S    
C126  H42   S    
C13   C35   S    
C66   H96   S    
C47   H80   S    
O12   Zn6   S    
C78   C80   S    
C75   C84   S    
C36   H70   S    
C56   H87   S    
C87   C131  S    
C10   H44   S    
O4    Zn8   S    
C148  H17   S    
C162  H31   S    
C124  C129  S    
C121  H58   S    
C139  H79   S    
C9    C10   A    
C145  C150  A    
C4    H34   S    
C93   C95   S    
C88   C129  S    
C137  H68   S    
C85   C92   S    
C37   H71   S    
C99   C126  S    
C134  H35   S    
C100  C108  S    
C6    H37   S    
C43   H76   S    
C39   C40   A    
C25   C26   A    
C8    C88   S    
C127  C129  S    
C46   C68   S    
C88   C125  S    
C86   C93   S    
C147  H16   S    
C31   C32   A    
O1    Zn3   S    
C17   C18   A    
C41   C47   A    
C102  C107  S    
C13   C28   S    
C158  C163  A    
C123  C130  S    
C3    C4    A    
C39   H73   S    
C33   H69   S    
C52   C53   A    
C119  O23   A    
C70   H98   S    
C54   C55   A    
C126  C128  S    
C105  C115  S    
C111  C164  S    
C12   H47   S    
C136  C137  A    
C114  C116  S    
C90   C96   T    
C134  C135  A    
C77   O4    A    
C111  C117  S    
C71   C72   A    
C138  C144  A    
C119  O10   A    
C85   C95   S    
C87   C93   S    
C56   C58   A    
O3    Zn7   S    
C34   C36   A    
C61   C62   A    
C10   C11   A    
C112  H26   S    
C63   C64   A    
C152  C153  A    
C49   C50   A    
C128  H13   S    
C29   H64   S    
C45   H78   S    
C49   H81   S    
C17   H50   S    
O8    Zn4   S    
C160  H29   S    
C55   C56   A    
C1    C90   S    
C41   C42   A    
C73   H3    S    
C76   C84   S    
C161  C162  A    
C135  C136  A    
C26   C27   A    
C151  C157  A    
C30   H65   S    
C28   C29   A    
O5    Zn1   S    
C63   H93   S    
C38   H72   S    
C30   C31   A    
O1    Zn5   S    
O2    Zn6   S    
C18   C19   A    
O9    Zn5   S    
O10   Zn6   S    
O7    Zn3   S    
O11   Zn3   S    
C109  C116  S    
C78   C83   S    
O13   Zn4   S    
C16   C17   A    
C115  C117  S    
C79   C119  S    
C151  C152  A    
O22   Zn7   S    
C110  C132  S    
C70   C71   A    
C67   C73   A    
C153  C155  A    
C117  H40   S    
C101  C108  S    
C21   C27   A    
C74   C80   S    
C71   H99   S    
C80   C118  S    
C72   H100  S    
C35   C121  S    
C61   C83   S    
C99   C127  S    
C58   C59   A    
C100  C103  S    
C98   C107  S    
C89   C95   S    
C62   C63   A    
C131  C137  A    
C98   H12   S    
C24   C132  S    
O12   Zn8   S    
C159  C160  A    
C81   O5    A    
C50   C51   A    
C55   H86   S    
C82   O2    A    
O24   Zn3   S    
C91   C97   T    
C46   C143  S    
C48   C49   A    
C133  C134  A    
C2    C82   S    
C140  H90   S    
C42   C43   A    
C104  C108  S    
C116  H39   S    
C44   C45   A    
C162  C163  A    
C99   C130  S    
C125  H41   S    
C86   C89   S    
C128  C130  S    
C42   H75   S    
C98   C101  S    
C7    C164  A    
C2    C68   T    
C85   H6    S    
C14   H48   S    
C35   C57   S    
C64   C65   A    
C149  C150  A    
C79   C83   S    
C38   C39   A    
C26   H62   S    
C146  H15   S    
C111  C114  S    
C13   C143  S    
C118  O22   A    
C138  C139  A    
O18   Zn1   S    
C103  C122  S    
C104  C120  S    
C105  O7    A    
C106  O8    A    
C121  C143  S    
C58   H88   S    
C18   H51   S    
C123  O14   A    
C54   C60   A    
C62   H92   S    
C106  C114  S    
C34   C40   A    
C156  C157  A    
C7    H38   S    
C77   O25   A    
C107  C145  S    
O14   Zn7   S    
C15   C16   A    
C31   H66   S    
C105  O20   A    
C19   H52   S    
C86   C94   S    
C61   C66   A    
C136  H57   S    
O20   Zn1   S    
C8    C9    A    
C40   H74   S    
C152  H20   S    
C110  H56   S    
C113  C116  S    
C32   H67   S    
C67   C84   S    
C101  H10   S    
C109  C158  S    
C125  C130  S    
C124  O15   A    
C64   H94   S    
C44   H77   S    
C85   C87   S    
C113  H27   S    
O26   Zn5   S    
C148  C149  A    
C109  C112  S    
C143  H55   S    
C60   H91   S    
C81   C154  S    
C54   C75   S    
C67   C69   A    
C13   C110  S    
C100  C102  S    
C53   H85   S    
C89   C92   S    
C102  C104  S    
C12   C14   A    
C122  O13   A    
C120  O11   A    
C124  O19   A    
C8    C14   A    
C15   C99   S    
C131  C133  A    
C155  H22   S    
C11   C12   A    
C150  H19   S    
C92   H9    S    
C22   H59   S    
C82   O6    A    
C160  C161  A    
C88   C128  S    
C141  C142  A    
C11   H45   S    
C149  H18   S    
C153  H21   S    
C98   C104  S    
C3    H33   S    
C161  H30   S    
C23   C25   A    
C16   H49   S    
C75   C78   S    
C157  H25   S    
C109  C115  S    
O12   Zn2   S    
C23   H60   S    
C65   C66   A    
C34   C76   S    
C118  O9    A    
