data_mof_unit_55430.cif
_audit_creation_date              2012-10-26T19:20:38-0400
_audit_creation_method            fapswitch 2.2
_symmetry_space_group_name_H-M    P1
_symmetry_Int_Tables_number       1
_space_group_crystal_system       triclinic
_cell_length_a                    10.833822
_cell_length_b                    11.15503
_cell_length_c                    9.846512
_cell_angle_alpha                 111.110333
_cell_angle_beta                  100.437427
_cell_angle_gamma                 90.796295
_cell_volume                      1087.66801252

loop_
_atom_site_label
_atom_site_type_symbol
_atom_type_description
_atom_site_fract_x
_atom_site_fract_y
_atom_site_fract_z
_atom_type_partial_charge
C1    C     C_R   0.492828 0.254819 0.441108 0.576242
C2    C     C_R   0.737470 0.486554 0.499049 0.541246
C3    C     C_R   0.163085 0.650913 0.769277 -0.083156
C4    C     C_R   0.836919 0.349095 0.230725 -0.083161
C5    C     C_R   0.129002 0.673128 0.905394 -0.117894
C6    C     C_R   0.871001 0.326886 0.094609 -0.117893
C7    C     C_R   0.017613 0.613128 0.909855 -0.138628
C8    C     C_R   0.982389 0.386890 0.090150 -0.138626
C9    C     C_R   0.935822 0.539265 0.777898 -0.098150
C10   C     C_R   0.064178 0.460751 0.222109 -0.098149
C11   C     C_R   0.962775 0.526618 0.637790 0.012900
C12   C     C_R   0.507172 0.745181 0.558892 0.576238
C13   C     C_R   0.037226 0.473392 0.362215 0.012903
C14   C     C_R   0.085050 0.568540 0.634730 0.009045
C15   C     C_R   0.914952 0.431468 0.365274 0.009043
C16   C     C_R   0.873413 0.472312 0.501618 -0.042096
C17   C     C_R   0.126588 0.527694 0.498385 -0.042097
C18   C     C_2   0.481831 0.117395 0.409210 -0.074754
C19   C     C_2   0.518169 0.882605 0.590789 -0.074756
C20   C     C_2   0.516425 0.068888 0.515956 0.076438
C21   C     C_2   0.483575 0.931112 0.484043 0.076439
C22   C     C_2   0.507556 0.512050 0.082277 0.093971
C23   C     C_2   0.492462 0.487933 0.917720 0.093967
C24   C     C_R   0.262531 0.513448 0.500951 0.541247
Cu1   Cu    Cu3+1 0.521920 0.521810 0.644910 0.942228
Cu2   Cu    Cu3+1 0.478080 0.478190 0.355090 0.942229
H1    H     H_    0.006075 0.375451 0.984246 0.115805
H2    H     H_    0.437543 0.056735 0.296603 0.058159
H3    H     H_    0.425006 0.410132 0.839800 0.159995
H4    H     H_    0.575028 0.589836 0.160194 0.159991
H5    H     H_    0.326866 0.888137 0.319399 0.215799
H6    H     H_    0.464252 0.846188 0.259155 0.225214
H7    H     H_    0.673135 0.111863 0.680601 0.215801
H8    H     H_    0.535749 0.153812 0.740845 0.225216
H9    H     H_    0.722912 0.649019 0.930693 0.248745
H10   H     H_    0.601564 0.741802 0.948897 0.248220
H11   H     H_    0.277048 0.351078 0.069284 0.248720
H12   H     H_    0.993926 0.624571 0.015760 0.115810
H13   H     H_    0.398317 0.258220 0.051158 0.248245
H14   H     H_    0.250163 0.700144 0.770171 0.133847
H15   H     H_    0.749841 0.299861 0.229829 0.133852
H16   H     H_    0.190783 0.733985 0.007560 0.113859
H17   H     H_    0.809221 0.266028 0.992442 0.113861
H18   H     H_    0.855214 0.487892 0.788381 0.148674
H19   H     H_    0.144786 0.512129 0.211630 0.148658
H20   H     H_    0.562456 0.943265 0.703397 0.058163
N1    N     N_2   0.445130 0.445420 0.137360 -0.186842
N2    N     N_2   0.554870 0.554580 0.862640 -0.186841
N3    N     N_3   0.412556 0.849737 0.340272 -0.607173
N4    N     N_3   0.587445 0.150262 0.659728 -0.607177
N5    N     N_3   0.635782 0.659057 0.962793 -0.577145
N6    N     N_3   0.364180 0.340974 0.037212 -0.577152
O1    O     O_R   0.511700 0.332340 0.577400 -0.458620
O2    O     O_R   0.488300 0.667660 0.422600 -0.458614
O3    O     O_R   0.474680 0.295500 0.332650 -0.521176
O4    O     O_R   0.525320 0.704500 0.667350 -0.521172
O5    O     O_R   0.338170 0.518410 0.622370 -0.509500
O6    O     O_R   0.661830 0.481590 0.377630 -0.509506
O7    O     O_R   0.301150 0.481570 0.377630 -0.505245
O8    O     O_R   0.698850 0.518430 0.622370 -0.505247

loop_
_geom_bond_atom_site_label_1
_geom_bond_atom_site_label_2
_ccdc_geom_bond_type
C20   N4    S    
C5    H16   S    
C2    O6    A    
C7    C9    A    
N1    N6    S    
Cu1   O8    S    
C3    C14   A    
C2    C16   S    
Cu2   O7    S    
C14   C17   A    
Cu1   O4    S    
C13   C17   A    
Cu2   O3    S    
C10   H19   S    
C21   N3    S    
H13   N6    S    
C1    O3    A    
C19   H20   S    
Cu1   Cu2   S    
C9    C11   A    
Cu1   N2    S    
C1    C18   S    
C12   O4    A    
H10   N5    S    
Cu1   O5    S    
Cu2   N1    S    
H5    N3    S    
C24   O7    A    
C23   H3    S    
C12   C19   S    
C4    C6    A    
C19   C21   D    
C7    H12   S    
Cu1   O1    S    
C3    H14   S    
C22   N1    D    
C18   C20   D    
C6    H17   S    
C13   C15   A    
C4    C15   A    
H9    N5    S    
C11   C14   A    
C2    O8    A    
H6    N3    S    
H8    N4    S    
C17   C24   S    
C4    H15   S    
C15   C16   A    
Cu2   O2    S    
C18   H2    S    
C20   C21   S    
C8    C10   A    
C11   C16   A    
C5    C7    A    
H11   N6    S    
C1    O1    A    
C22   C23   S    
C8    H1    S    
C9    H18   S    
C6    C8    A    
C23   N2    D    
C22   H4    S    
H7    N4    S    
Cu2   O6    S    
N2    N5    S    
C12   O2    A    
C24   O5    A    
C3    C5    A    
C10   C13   A    
