data_mof_unit_18720.cif
_audit_creation_date              2012-12-10T20:36:33-0500
_audit_creation_method            fapswitch 2.2
_symmetry_space_group_name_H-M    P1
_symmetry_Int_Tables_number       1
_space_group_crystal_system       triclinic
_cell_length_a                    10.523918
_cell_length_b                    10.666459
_cell_length_c                    9.898563
_cell_angle_alpha                 89.990092
_cell_angle_beta                  88.89461
_cell_angle_gamma                 90.006856
_cell_volume                      1110.93599044

loop_
_atom_site_label
_atom_site_type_symbol
_atom_type_description
_atom_site_fract_x
_atom_site_fract_y
_atom_site_fract_z
_atom_type_partial_charge
C1    C     C_R   0.495297 0.260193 0.500182 0.944704
C2    C     C_3   0.963807 0.492939 0.371034 0.626005
C3    C     C_3   0.043343 0.394597 0.443459 0.571329
C4    C     C_3   0.122550 0.499930 0.503208 -0.349785
C5    C     C_R   0.499348 0.063807 0.621287 0.059125
C6    C     C_R   0.475542 0.128735 0.502618 -0.427199
C7    C     C_R   0.427145 0.065007 0.390403 0.623616
C8    C     C_R   0.427220 0.935044 0.390355 0.594737
C9    C     C_R   0.475735 0.871280 0.502493 -0.352175
C10   C     C_R   0.499730 0.936158 0.621125 0.006116
C11   C     C_3   0.610878 0.928574 0.712694 -0.447384
C12   C     C_R   0.257447 0.500035 0.501188 1.025398
C13   C     C_3   0.610604 0.070750 0.712673 0.566972
C14   C     C_R   0.410706 0.433274 0.073132 -0.123098
C15   C     C_R   0.593504 0.558138 0.069749 0.751320
C16   C     C_R   0.593587 0.557831 0.926103 -0.154272
C17   C     C_R   0.410639 0.433630 0.930427 0.002257
C18   C     C_3   0.271039 0.455391 0.928184 0.928131
C19   C     C_3   0.270462 0.453444 0.080918 1.050418
C20   C     C_R   0.495397 0.739815 0.500100 0.964869
C21   C     C_R   0.742361 0.499649 0.498670 0.942089
C22   C     C_3   0.035469 0.506339 0.629326 -0.115462
C23   C     C_3   0.954807 0.399346 0.569007 -0.283352
C24   C     C_3   0.876889 0.499346 0.496164 -0.324574
C25   C     C_3   0.954843 0.606340 0.556585 -0.311357
C26   C     C_3   0.043348 0.598313 0.431175 0.596470
H1    H     H_    0.914665 0.317416 0.624349 0.216742
H2    H     H_    0.696571 0.887432 0.662298 0.152807
H3    H     H_    0.667592 0.607193 0.870503 0.178632
H4    H     H_    0.914640 0.693330 0.601797 0.207730
H5    H     H_    0.584739 0.886627 0.812261 0.264486
N1    N     N_R   0.499140 0.499140 0.142800 -0.160908
N2    N     N_R   0.499140 0.499180 0.857150 -0.126179
O1    O     O_R   0.500020 0.316790 0.614690 -0.590559
O2    O     O_R   0.500000 0.316760 0.385350 -0.558982
O3    O     O_R   0.313960 0.499990 0.614650 -0.577178
O4    O     O_R   0.313940 0.499950 0.385310 -0.547134
O5    O     O_R   0.500000 0.683240 0.614650 -0.618190
O6    O     O_R   0.499980 0.683210 0.385310 -0.535465
O7    O     O_R   0.686060 0.500050 0.614690 -0.633491
O8    O     O_R   0.686040 0.500010 0.385350 -0.548219
Zn1   Zn    Zn3+2 0.500010 0.500020 0.653130 1.059286
Zn2   Zn    Zn3+2 0.499990 0.499980 0.346870 1.173036
F1    F     F_    0.576524 0.120237 0.837480 -0.565964
H6    H     H_    0.696563 0.114380 0.665423 0.054341
F2    F     F_    0.685754 0.621225 0.134823 -0.578262
F3    F     F_    0.240241 0.571505 0.875494 -0.632341
F4    F     F_    0.206026 0.356613 0.870831 -0.605294
F5    F     F_    0.235989 0.567160 0.138210 -0.559016
F6    F     F_    0.206273 0.352230 0.136711 -0.518355
H7    H     H_    0.063713 0.511901 0.736009 0.291428
F7    F     F_    0.092688 0.699820 0.360850 -0.523066
F8    F     F_    0.924637 0.485910 0.238710 -0.518620
F9    F     F_    0.092545 0.286213 0.386534 -0.529907
F10   F     F_    0.387194 0.127059 0.279126 -0.515660
F11   F     F_    0.387323 0.873038 0.279038 -0.520598

loop_
_geom_bond_atom_site_label_1
_geom_bond_atom_site_label_2
_ccdc_geom_bond_type
O4    Zn2   S    
C4    C26   S    
C23   C24   S    
C6    C7    A    
C26   F7    S    
C16   N2    A    
C12   O3    A    
C20   O5    A    
C9    C10   A    
C19   F5    S    
C9    C20   S    
O3    Zn1   S    
O1    Zn1   S    
C7    F10   S    
C5    C13   S    
C18   F3    S    
C8    F11   S    
O7    Zn1   S    
C17   C18   S    
C16   H3    S    
O2    Zn2   S    
C11   H5    S    
C7    C8    A    
C2    C26   S    
C3    C4    S    
C13   H6    S    
C11   C13   S    
C14   C17   A    
C21   O7    A    
C17   N2    A    
C11   H2    S    
C15   N1    A    
C21   O8    A    
N2    Zn1   S    
N1    Zn2   S    
C1    O1    A    
O5    Zn1   S    
C2    C3    S    
C23   H1    S    
C2    C24   S    
C5    C6    A    
C3    F9    S    
C4    C12   S    
C10   C11   S    
C15   C16   A    
C19   F6    S    
C5    C10   A    
C4    C22   S    
C24   C25   S    
C1    O2    A    
C8    C9    A    
C18   C19   S    
C21   C24   S    
C12   O4    A    
C20   O6    A    
C22   C23   S    
C25   H4    S    
O6    Zn2   S    
C15   F2    S    
C25   C26   S    
C3    C23   S    
C14   C19   S    
C2    F8    S    
C13   F1    S    
O8    Zn2   S    
C1    C6    S    
C14   N1    A    
C22   H7    S    
C22   C25   S    
C18   F4    S    
