data_mof_unit_56978.cif
_audit_creation_date              2012-12-11T14:13:23-0500
_audit_creation_method            fapswitch 2.2
_symmetry_space_group_name_H-M    P1
_symmetry_Int_Tables_number       1
_space_group_crystal_system       monoclinic
_cell_length_a                    11.758008
_cell_length_b                    18.395514
_cell_length_c                    10.234781
_cell_angle_alpha                 90.0
_cell_angle_beta                  112.123679
_cell_angle_gamma                 90.0
_cell_volume                      2050.73787705

loop_
_atom_site_label
_atom_site_type_symbol
_atom_type_description
_atom_site_fract_x
_atom_site_fract_y
_atom_site_fract_z
_atom_type_partial_charge
C1    C     C_R   0.074193 0.646310 0.140201 0.532559
C2    C     C_2   0.604197 0.066209 0.056194 0.163537
C3    C     C_2   0.638579 0.442403 0.004285 0.128779
C4    C     C_2   0.395803 0.566209 0.943806 0.163537
C5    C     C_2   0.462888 0.975482 0.086449 -0.140785
C6    C     C_2   0.498756 0.049724 0.070456 -0.122770
C7    C     C_2   0.537111 0.475481 0.913551 -0.140785
C8    C     C_2   0.501244 0.549724 0.929544 -0.122772
C9    C     C_2   0.017842 0.924788 0.117972 -0.118913
C10   C     C_2   0.983888 0.075822 0.884165 -0.148110
C11   C     C_2   0.982161 0.424787 0.882028 -0.118911
C12   C     C_R   0.925544 0.353829 0.859424 0.538852
C13   C     C_2   0.016114 0.575822 0.115836 -0.148108
C14   C     C_2   0.017427 0.962902 0.007830 -0.177698
C15   C     C_2   0.995917 0.039930 0.001306 -0.178501
C16   C     C_2   0.982580 0.462900 0.992173 -0.177698
C17   C     C_2   0.004090 0.539929 0.998697 -0.178499
C18   C     C_R   0.471218 0.647039 0.440879 0.569498
C19   C     C_R   0.527681 0.353345 0.559007 0.571085
C20   C     C_R   0.528782 0.147039 0.559121 0.569498
C21   C     C_R   0.472319 0.853345 0.440993 0.571084
C22   C     C_R   0.372495 0.641616 0.971604 0.582670
C23   C     C_R   0.925807 0.146311 0.859799 0.532559
C24   C     C_R   0.648940 0.362692 0.989688 0.562118
C25   C     C_R   0.627506 0.141615 0.028394 0.582670
C26   C     C_R   0.351060 0.862692 0.010312 0.562116
C27   C     C_R   0.491274 0.426279 0.492939 -0.006229
C28   C     C_R   0.507738 0.577689 0.517892 -0.012089
C29   C     C_R   0.508725 0.926279 0.507061 -0.006229
C30   C     C_R   0.492262 0.077689 0.482108 -0.012091
C31   C     C_R   0.286626 0.433702 0.513807 0.151196
C32   C     C_R   0.719454 0.567297 0.516168 0.156029
C33   C     C_R   0.713374 0.933702 0.486195 0.151196
C34   C     C_R   0.074456 0.853829 0.140576 0.538852
C35   C     C_R   0.280545 0.067297 0.483832 0.156030
C36   C     C_R   0.206375 0.472360 0.559283 -0.159547
C37   C     C_R   0.806069 0.523663 0.489074 -0.156875
C38   C     C_R   0.793625 0.972359 0.440719 -0.159547
C39   C     C_R   0.193930 0.023662 0.510925 -0.156875
C40   C     C_R   0.230581 0.543658 0.605596 -0.006631
C41   C     C_R   0.776204 0.453720 0.434580 0.019604
C42   C     C_R   0.769419 0.043657 0.394405 -0.006631
C43   C     C_R   0.223795 0.953719 0.565418 0.019605
C44   C     C_R   0.337814 0.578938 0.608740 0.174914
C45   C     C_R   0.398175 0.466309 0.519732 -0.013883
C46   C     C_R   0.657290 0.427371 0.403569 0.188359
C47   C     C_R   0.662187 0.078937 0.391261 0.174915
C48   C     C_R   0.342710 0.927370 0.596431 0.188360
C49   C     C_R   0.417134 0.541390 0.553176 -0.034774
C50   C     C_R   0.581097 0.463975 0.460810 -0.036805
C51   C     C_R   0.582867 0.041390 0.446824 -0.034775
C52   C     C_R   0.418902 0.963974 0.539191 -0.036804
C53   C     C_1   0.141383 0.580921 0.646652 0.207437
C54   C     C_1   0.868967 0.408158 0.416676 0.190070
C55   C     C_1   0.858617 0.080919 0.353347 0.207437
C56   C     C_R   0.603219 0.537314 0.499410 -0.006000
C57   C     C_1   0.131033 0.908156 0.583320 0.190067
C58   C     C_3   0.186810 0.363537 0.299714 -0.296237
C59   C     C_3   0.786200 0.648171 0.720040 -0.299975
C60   C     C_3   0.813192 0.863539 0.700290 -0.296239
C61   C     C_3   0.213805 0.148172 0.279962 -0.299975
C62   C     C_3   0.481551 0.684148 0.730088 -0.293413
C63   C     C_3   0.498270 0.369042 0.204098 -0.307240
C64   C     C_3   0.518452 0.184148 0.269913 -0.293413
C65   C     C_3   0.501730 0.869042 0.795902 -0.307241
C66   C     C_3   0.702691 0.010576 0.913153 -0.302414
C67   C     C_R   0.601825 0.966309 0.480269 -0.013883
C68   C     C_3   0.254961 0.055051 0.852002 -0.305166
C69   C     C_3   0.297315 0.510578 0.086854 -0.302412
C70   C     C_3   0.745039 0.555051 0.147997 -0.305165
C71   C     C_R   0.396781 0.037314 0.500590 -0.006000
C72   C     C_2   0.361421 0.942403 0.995714 0.128779
Cr1   Cr    Cr6+3 0.187610 0.750000 0.979860 1.010308
Cr2   Cr    Cr6+3 0.812390 0.250000 0.020140 1.010308
Cr3   Cr    Cr6+3 0.245810 0.750000 0.341640 1.024431
Cr4   Cr    Cr6+3 0.754190 0.250000 0.658360 1.024430
Cr5   Cr    Cr6+3 0.485760 0.750000 0.219910 0.986777
Cr6   Cr    Cr6+3 0.514240 0.250000 0.780090 0.986778
H1    H     H_    0.123108 0.446709 0.557177 0.140955
H2    H     H_    0.036683 0.937396 0.923086 0.153356
H3    H     H_    0.022189 0.565538 0.912870 0.194938
H4    H     H_    0.963326 0.437394 0.076918 0.153354
H5    H     H_    0.995313 0.048009 0.796250 0.112064
H6    H     H_    0.997345 0.950435 0.202434 0.127553
H7    H     H_    0.004688 0.548009 0.203749 0.112064
H8    H     H_    0.002656 0.450434 0.797565 0.127552
H9    H     H_    0.205957 0.332363 0.502462 0.267395
H10   H     H_    0.240553 0.330938 0.252306 0.128576
H11   H     H_    0.174322 0.419350 0.255535 0.138012
H12   H     H_    0.895905 0.544834 0.506509 0.132161
H13   H     H_    0.094791 0.338115 0.269412 0.167224
H14   H     H_    0.812826 0.665110 0.532098 0.261384
H15   H     H_    0.738665 0.696877 0.738138 0.132365
H16   H     H_    0.886447 0.657351 0.772850 0.165299
H17   H     H_    0.760288 0.600187 0.769022 0.143262
H18   H     H_    0.794041 0.832362 0.497542 0.267396
H19   H     H_    0.759451 0.830940 0.747700 0.128576
H20   H     H_    0.825679 0.919352 0.744467 0.138014
H21   H     H_    0.905211 0.838117 0.730591 0.167225
H22   H     H_    0.187169 0.165108 0.467898 0.261384
H23   H     H_    0.876892 0.946708 0.442825 0.140957
H24   H     H_    0.261347 0.196876 0.261870 0.132365
H25   H     H_    0.113559 0.157356 0.227148 0.165294
H26   H     H_    0.239714 0.100187 0.230980 0.143263
H27   H     H_    0.287120 0.685523 0.652854 0.273561
H28   H     H_    0.491273 0.730864 0.666865 0.179872
H29   H     H_    0.555692 0.644988 0.742803 0.121514
H30   H     H_    0.493895 0.704516 0.835772 0.131112
H31   H     H_    0.678779 0.330537 0.303621 0.289065
H32   H     H_    0.421740 0.372207 0.241389 0.129010
H33   H     H_    0.481854 0.321481 0.134015 0.152875
H34   H     H_    0.104094 0.044833 0.493489 0.132160
H35   H     H_    0.497820 0.417726 0.141534 0.178472
H36   H     H_    0.712882 0.185523 0.347148 0.273561
H37   H     H_    0.508729 0.230864 0.333135 0.179871
H38   H     H_    0.444310 0.144987 0.257197 0.121512
H39   H     H_    0.506109 0.204516 0.164229 0.131115
H40   H     H_    0.321222 0.830537 0.696379 0.289065
H41   H     H_    0.578260 0.872206 0.758610 0.129012
H42   H     H_    0.518145 0.821482 0.865986 0.152875
H43   H     H_    0.502181 0.917727 0.858465 0.178473
H44   H     H_    0.678699 0.960363 0.083349 0.243842
H45   H     H_    0.435660 0.092619 0.065406 0.102264
H46   H     H_    0.758205 0.962747 0.909099 0.133790
H47   H     H_    0.749214 0.060672 0.900602 0.184710
H48   H     H_    0.612862 0.008375 0.823438 0.134876
H49   H     H_    0.183110 0.951490 0.843934 0.268536
H50   H     H_    0.172565 0.065922 0.756044 0.127719
H51   H     H_    0.333614 0.075553 0.827925 0.183707
H52   H     H_    0.241531 0.084277 0.939932 0.136669
H53   H     H_    0.321301 0.460364 0.916656 0.243841
H54   H     H_    0.241803 0.462749 0.090912 0.133789
H55   H     H_    0.250794 0.560674 0.099407 0.184709
H56   H     H_    0.529579 0.944179 0.170562 0.135473
H57   H     H_    0.387147 0.508378 0.176566 0.134878
H58   H     H_    0.816892 0.451491 0.156059 0.268536
H59   H     H_    0.827436 0.565921 0.243955 0.127720
H60   H     H_    0.666385 0.575552 0.172075 0.183706
H61   H     H_    0.758468 0.584278 0.060068 0.136668
H62   H     H_    0.564340 0.592619 0.934591 0.102265
H63   H     H_    0.470419 0.444178 0.829440 0.135474
H64   H     H_    0.977819 0.065540 0.087133 0.194938
N1    N     N_1   0.070491 0.611468 0.679725 -0.329821
N2    N     N_2   0.614802 0.362775 0.321545 -0.494458
N3    N     N_2   0.639491 0.151932 0.335278 -0.482540
N4    N     N_2   0.385198 0.862775 0.678455 -0.494458
N5    N     N_2   0.686863 0.011444 0.046636 -0.525747
N6    N     N_2   0.266239 0.977686 0.879449 -0.510349
N7    N     N_2   0.313139 0.511445 0.953368 -0.525747
N8    N     N_2   0.733763 0.477686 0.120548 -0.510349
N9    N     N_1   0.941729 0.370397 0.401654 -0.351849
N10   N     N_1   0.929509 0.111466 0.320273 -0.329821
N11   N     N_1   0.058271 0.870394 0.598340 -0.351848
N12   N     N_2   0.249115 0.363990 0.451643 -0.475062
N13   N     N_2   0.753918 0.638813 0.569865 -0.479204
N14   N     N_2   0.750885 0.863990 0.548361 -0.475065
N15   N     N_2   0.246080 0.138813 0.430136 -0.479204
N16   N     N_2   0.360511 0.651932 0.664723 -0.482542
O1    O     O_R   0.267710 0.668200 0.902110 -0.478650
O2    O     O_R   0.883280 0.330790 0.732340 -0.502262
O3    O     O_R   0.883280 0.169210 0.732340 -0.507281
O4    O     O_R   0.116720 0.830790 0.267660 -0.502261
O5    O     O_R   0.366710 0.675440 0.427590 -0.480540
O6    O     O_R   0.633290 0.324560 0.572410 -0.480353
O7    O     O_R   0.633290 0.175440 0.572410 -0.480540
O8    O     O_R   0.366710 0.824560 0.427590 -0.480353
O9    O     O_R   0.534870 0.669390 0.371760 -0.493209
O10   O     O_R   0.465130 0.330610 0.628240 -0.506698
O11   O     O_R   0.465130 0.169390 0.628240 -0.493208
O12   O     O_R   0.732290 0.331800 0.097890 -0.516477
O13   O     O_R   0.534870 0.830610 0.371760 -0.506699
O14   O     O_R   0.453080 0.674480 0.075160 -0.533440
O15   O     O_R   0.546920 0.325520 0.924840 -0.536693
O16   O     O_R   0.546920 0.174480 0.924840 -0.533441
O17   O     O_R   0.453080 0.825520 0.075160 -0.536692
O18   O     O_3   0.306390 0.750000 0.180470 -0.286256
O19   O     O_3   0.693610 0.250000 0.819530 -0.286257
O20   O     O_R   0.732290 0.168200 0.097890 -0.478650
O21   O     O_R   0.267710 0.831800 0.902110 -0.516479
O22   O     O_R   0.099480 0.674460 0.038850 -0.508851
O23   O     O_R   0.900520 0.325540 0.961150 -0.526035
O24   O     O_R   0.900520 0.174460 0.961150 -0.508851
O25   O     O_R   0.099480 0.825540 0.038850 -0.526036
O26   O     O_R   0.116720 0.669210 0.267660 -0.507281

loop_
_geom_bond_atom_site_label_1
_geom_bond_atom_site_label_2
_ccdc_geom_bond_type
C44   C49   A    
C30   C51   A    
C47   N3    S    
C64   H38   S    
C64   N3    S    
Cr6   O19   S    
C26   C72   S    
C70   N8    S    
C4    C8    D    
C60   H21   S    
C60   N14   S    
C30   C71   A    
C3    C24   S    
C33   N14   S    
C7    C8    S    
Cr2   O23   S    
C20   C30   S    
C26   O21   A    
C4    N7    S    
C37   H12   S    
Cr3   O4    S    
C61   H25   S    
C38   C42   A    
C38   H23   S    
C60   H20   S    
C10   C15   D    
Cr5   O14   S    
C5    C6    S    
Cr1   O25   S    
C1    O22   A    
C62   H30   S    
C22   O1    A    
C24   O15   A    
C11   H8    S    
C15   H64   S    
C10   H5    S    
C44   N16   S    
Cr3   O5    S    
C28   C49   A    
C58   N12   S    
C29   C67   A    
Cr1   O22   S    
C25   O16   A    
C12   O23   A    
C16   C17   S    
C48   N4    S    
Cr6   O15   S    
C41   C46   A    
C62   N16   S    
C59   H16   S    
C65   H43   S    
Cr3   O8    S    
C19   C27   S    
C58   H13   S    
C68   H50   S    
C40   C44   A    
C5    C72   D    
C68   N6    S    
C27   C50   A    
H49   N6    S    
C19   O6    A    
C27   C45   A    
C20   O11   A    
C35   C71   A    
C70   H61   S    
C69   H57   S    
C64   H37   S    
Cr4   O7    S    
C63   H33   S    
Cr4   O3    S    
C2    C6    D    
C59   H17   S    
C6    H45   S    
Cr3   O26   S    
H22   N15   S    
C1    O26   A    
C28   C56   A    
C5    H56   S    
C32   C37   A    
C36   C40   A    
C61   H26   S    
C18   C28   S    
C23   O24   A    
Cr4   O19   S    
C59   N13   S    
C25   O20   A    
H40   N4    S    
C46   N2    S    
C62   H29   S    
C3    C7    D    
C2    N5    S    
C21   O13   A    
C21   C29   S    
Cr6   O11   S    
C50   C56   A    
C21   O8    A    
C66   H48   S    
C53   N1    T    
C63   H35   S    
C35   C39   A    
C9    C14   D    
C35   N15   S    
C20   O7    A    
C61   N15   S    
C42   C55   S    
C32   N13   S    
C4    C22   S    
C18   O5    A    
H58   N8    S    
H27   N16   S    
Cr2   O20   S    
C45   C49   A    
Cr5   O13   S    
C16   H4    S    
C65   H41   S    
H9    N12   S    
C34   O25   A    
C51   C67   A    
H44   N5    S    
C12   O2    A    
C68   H52   S    
C66   N5    S    
C62   H28   S    
C39   H34   S    
C70   H60   S    
Cr5   O18   S    
C14   H2    S    
C9    C34   S    
C66   H46   S    
Cr4   O6    S    
C1    C13   S    
C19   O10   A    
C63   N2    S    
C7    H63   S    
C31   N12   S    
C24   O12   A    
C33   C67   A    
C43   C48   A    
Cr1   O1    S    
Cr4   O2    S    
C3    N8    S    
C69   H55   S    
Cr3   O18   S    
C31   C36   A    
H31   N2    S    
H36   N3    S    
C34   O4    A    
C36   H1    S    
C58   H10   S    
C47   C51   A    
C11   C12   S    
C54   N9    T    
Cr2   O24   S    
C10   C23   S    
Cr5   O9    S    
C46   C50   A    
Cr6   O10   S    
C33   C38   A    
C66   H47   S    
C13   C17   D    
C8    H62   S    
C69   N7    S    
C63   H32   S    
C61   H24   S    
C52   C71   A    
C72   N6    S    
C2    C25   S    
H18   N14   S    
Cr2   O19   S    
C57   N11   T    
C26   O17   A    
Cr1   O18   S    
C69   H54   S    
C65   H42   S    
H14   N13   S    
C17   H3    S    
C42   C47   A    
C37   C41   A    
C68   H51   S    
C58   H11   S    
C41   C54   S    
Cr2   O12   S    
C11   C16   D    
H53   N7    S    
C64   H39   S    
C9    H6    S    
Cr1   O21   S    
C43   C57   S    
C48   C52   A    
C18   O9    A    
C39   C43   A    
C70   H59   S    
Cr5   O17   S    
C40   C53   S    
C31   C45   A    
C13   H7    S    
Cr6   O16   S    
C14   C15   S    
C59   H15   S    
C55   N10   T    
C65   N4    S    
C60   H19   S    
C32   C56   A    
C22   O14   A    
C23   O3    A    
C29   C52   A    
