data_mof_unit_37259.cif
_audit_creation_date              2013-03-05T15:53:42-0500
_audit_creation_method            fapswitch 2.2
_symmetry_space_group_name_H-M    P1
_symmetry_Int_Tables_number       1
_space_group_crystal_system       triclinic
_cell_length_a                    12.96642
_cell_length_b                    13.258249
_cell_length_c                    27.736113
_cell_angle_alpha                 94.853199
_cell_angle_beta                  90.035615
_cell_angle_gamma                 119.288035
_cell_volume                      4138.90875436

loop_
_atom_site_label
_atom_site_type_symbol
_atom_site_description
_atom_site_fract_x
_atom_site_fract_y
_atom_site_fract_z
_atom_type_partial_charge
O1    O     O_R   0.296680 0.802170 0.437540 -0.482322
O2    O     O_R   0.525380 0.838530 0.443500 -0.513115
C1    C     C_R   0.628622 0.894767 0.427837 0.543928
O3    O     O_R   0.702130 0.995190 0.446810 -0.517807
O4    O     O_R   0.661770 0.181390 0.458760 -0.491300
C2    C     C_R   0.601345 0.222311 0.440620 0.546221
O5    O     O_R   0.499820 0.198480 0.455280 -0.511822
O6    O     O_R   0.311660 0.976250 0.449080 -0.515123
C3    C     C_R   0.267919 0.875741 0.425986 0.566308
O7    O     O_R   0.297580 0.804960 0.544440 -0.505585
O8    O     O_R   0.526220 0.841130 0.542590 -0.496257
C4    C     C_R   0.627473 0.898169 0.564667 0.547653
O9    O     O_R   0.703030 0.997990 0.553710 -0.509065
O10   O     O_R   0.662610 0.183990 0.557860 -0.500798
C5    C     C_R   0.602929 0.227198 0.578457 0.546371
O11   O     O_R   0.500730 0.201280 0.562180 -0.519732
O12   O     O_R   0.312500 0.978850 0.548170 -0.493885
C6    C     C_R   0.271647 0.879358 0.563428 0.551509
Cr1   Cr    Cr6+3 0.416430 0.829200 0.492370 1.020352
Cr2   Cr    Cr6+3 0.674630 0.087020 0.504170 1.025334
Cr3   Cr    Cr6+3 0.408920 0.083740 0.503490 1.024133
O13   O     O_3   0.499990 0.999990 0.500010 -0.246267
C7    C     C_1   0.635697 0.271999 0.395394 -0.016074
C8    C     C_R   0.683689 0.243761 0.271352 -0.116497
C9    C     C_R   0.691893 0.260488 0.222067 -0.119769
C10   C     C_R   0.689852 0.441665 0.240222 -0.102443
C11   C     C_R   0.681716 0.424964 0.289507 -0.118403
C12   C     C_R   0.677758 0.325512 0.305152 0.022517
C13   C     C_R   0.693786 0.358922 0.206332 0.028489
C14   C     C_1   0.699434 0.376325 0.155627 -0.062483
C15   C     C_1   0.658130 0.301495 0.355018 -0.067469
C16   C     C_1   0.705614 0.399300 0.114200 -0.017330
H1    H     H_    0.679779 0.166018 0.283008 0.119462
H2    H     H_    0.695303 0.196198 0.196280 0.113055
H3    H     H_    0.691563 0.518362 0.228464 0.129790
H4    H     H_    0.675998 0.488149 0.315168 0.118825
C17   C     C_R   0.140869 0.739115 0.355628 0.251799
C18   C     C_R   0.097194 0.724635 0.307815 0.015340
C19   C     C_R   0.058882 0.701139 0.207767 0.010838
C20   C     C_R   0.017715 0.602040 0.232593 -0.157054
C21   C     C_R   0.034654 0.613603 0.282539 -0.124271
C22   C     C_R   0.052615 0.690764 0.157748 -0.130030
H5    H     H_    0.014961 0.604594 0.138581 0.134825
H6    H     H_    0.975418 0.515891 0.213312 0.115048
H7    H     H_    0.003838 0.535581 0.300860 0.155685
C23   C     C_R   0.088109 0.788993 0.132437 0.006269
C24   C     C_R   0.208132 0.947106 0.358142 -0.167580
C25   C     C_R   0.175754 0.935210 0.309200 0.007512
C26   C     C_R   0.124460 0.823886 0.283622 -0.024429
C27   C     C_R   0.201596 0.033458 0.284669 0.274880
C28   C     C_R   0.181011 0.019915 0.234182 -0.118981
C29   C     C_R   0.138764 0.910913 0.208248 -0.027498
C30   C     C_R   0.106209 0.812006 0.233278 0.051434
C31   C     C_R   0.128151 0.898605 0.157656 -0.135742
C32   C     C_R   0.199195 0.851948 0.380415 -0.014078
H8    H     H_    0.150322 0.973363 0.137974 0.115183
H9    H     H_    0.200303 0.094885 0.215205 0.108805
H10   H     H_    0.252094 0.033075 0.377560 0.185184
C33   C     C_R   0.757705 0.932607 0.359147 -0.124852
C34   C     C_R   0.765058 0.921043 0.309342 0.016386
C35   C     C_R   0.768605 0.909504 0.208735 0.009825
C36   C     C_R   0.861783 0.002018 0.236916 -0.127353
C37   C     C_R   0.860709 0.007027 0.287062 -0.124505
C38   C     C_R   0.771998 0.903017 0.158855 -0.128883
H11   H     H_    0.846751 0.971841 0.142723 0.135222
H12   H     H_    0.827250 0.008417 0.380164 0.136213
H13   H     H_    0.935878 0.069990 0.220167 0.107585
H14   H     H_    0.932945 0.079717 0.308368 0.129490
C39   C     C_R   0.688600 0.803207 0.130297 -0.022975
C40   C     C_R   0.566920 0.755828 0.353839 -0.142446
C41   C     C_R   0.574135 0.741403 0.303734 -0.036994
C42   C     C_R   0.671335 0.826807 0.281241 0.045576
C43   C     C_R   0.482266 0.647651 0.275543 -0.137267
C44   C     C_R   0.484567 0.639225 0.224780 0.253465
C45   C     C_R   0.581665 0.724800 0.202095 0.015617
C46   C     C_R   0.673743 0.820091 0.230671 0.014764
C47   C     C_R   0.591020 0.716171 0.151652 -0.124814
C48   C     C_R   0.654529 0.855866 0.380888 0.000057
H15   H     H_    0.526311 0.639785 0.129354 0.171494
H16   H     H_    0.407643 0.581738 0.292815 0.097718
H17   H     H_    0.489112 0.694437 0.371084 0.112617
C49   C     C_R   0.741073 0.300712 0.651551 -0.138191
C50   C     C_R   0.754837 0.323553 0.702012 0.007199
C51   C     C_R   0.771222 0.352506 0.803842 0.006088
C52   C     C_R   0.862662 0.349523 0.777850 -0.141656
C53   C     C_R   0.853799 0.333605 0.727221 -0.141289
C54   C     C_R   0.780320 0.372232 0.854415 -0.138540
H18   H     H_    0.860936 0.389937 0.873822 0.129364
H19   H     H_    0.805514 0.286529 0.631636 0.127498
H20   H     H_    0.940521 0.358770 0.796663 0.113190
H21   H     H_    0.924059 0.328924 0.707810 0.112685
C55   C     C_R   0.688947 0.378058 0.879485 -0.005692
C56   C     C_R   0.556757 0.307028 0.653136 -0.134728
C57   C     C_R   0.565919 0.323476 0.703240 0.001573
C58   C     C_R   0.664351 0.330084 0.727957 0.058376
C59   C     C_R   0.474263 0.326093 0.728951 -0.146046
C60   C     C_R   0.478797 0.332888 0.779204 -0.144896
C61   C     C_R   0.576662 0.340569 0.804140 0.002041
C62   C     C_R   0.670744 0.340783 0.778660 0.057681
C63   C     C_R   0.584346 0.354079 0.854277 -0.133176
C64   C     C_R   0.638929 0.286638 0.627388 -0.005878
H22   H     H_    0.512579 0.356706 0.873356 0.137361
H23   H     H_    0.406712 0.333922 0.798585 0.113246
H24   H     H_    0.397880 0.320164 0.710171 0.112739
H25   H     H_    0.478751 0.298585 0.634685 0.136382
C65   C     C_1   0.221934 0.862717 0.610157 -0.010579
C66   C     C_R   0.078938 0.744900 0.718310 -0.102966
C67   C     C_R   0.064172 0.735057 0.767941 -0.103496
C68   C     C_R   0.230855 0.929336 0.785726 -0.104456
C69   C     C_R   0.245576 0.939217 0.736057 -0.104575
C70   C     C_R   0.169994 0.846827 0.702254 0.035885
C71   C     C_R   0.140728 0.826783 0.801758 0.036333
C72   C     C_1   0.123968 0.814720 0.852663 -0.058281
C73   C     C_1   0.193064 0.853824 0.651556 -0.056937
C74   C     C_1   0.100587 0.797569 0.894268 -0.014957
H26   H     H_    0.020764 0.672539 0.692580 0.114964
H27   H     H_    0.993687 0.655534 0.779966 0.118264
H28   H     H_    0.290089 0.000988 0.811502 0.114674
H29   H     H_    0.317068 0.018078 0.724026 0.120393
C75   C     C_1   0.647316 0.860460 0.608985 -0.013655
C76   C     C_R   0.707161 0.909692 0.734201 -0.103894
C77   C     C_R   0.717816 0.893283 0.782596 -0.101865
C78   C     C_R   0.669117 0.694031 0.758781 -0.106755
C79   C     C_R   0.658221 0.710458 0.710161 -0.104875
C80   C     C_R   0.677195 0.818507 0.697856 0.037006
C81   C     C_R   0.698413 0.785473 0.795078 0.036505
C82   C     C_1   0.711370 0.770825 0.845120 -0.058320
C83   C     C_1   0.661710 0.836967 0.648595 -0.057019
C84   C     C_1   0.725789 0.762256 0.887194 -0.011441
H30   H     H_    0.721462 0.993405 0.725138 0.117084
H31   H     H_    0.741046 0.964658 0.810299 0.116242
H32   H     H_    0.654540 0.610392 0.768051 0.122481
H33   H     H_    0.634415 0.639142 0.682383 0.114025
O14   O     O_R   0.820790 0.857990 0.068830 -0.517094
O15   O     O_R   0.016700 0.827330 0.062850 -0.498725
C85   C     C_R   0.058092 0.768698 0.080795 0.547207
O16   O     O_R   0.041970 0.673520 0.060040 -0.520819
O17   O     O_R   0.817980 0.483660 0.048840 -0.500585
C86   C     C_R   0.717250 0.441973 0.067538 0.546645
O18   O     O_R   0.637200 0.461990 0.052510 -0.501736
O19   O     O_R   0.664790 0.681920 0.057970 -0.494988
C87   C     C_R   0.721150 0.782241 0.081472 0.555661
O20   O     O_R   0.815840 0.852920 0.961840 -0.504154
O21   O     O_R   0.012100 0.822630 0.963670 -0.510307
C88   C     C_R   0.056699 0.766399 0.941237 0.540919
O22   O     O_R   0.037010 0.668460 0.953040 -0.506081
O23   O     O_R   0.813390 0.478970 0.949660 -0.503409
C89   C     C_R   0.710354 0.434095 0.928978 0.537389
O24   O     O_R   0.632250 0.456930 0.945520 -0.527181
O25   O     O_R   0.660200 0.677230 0.958780 -0.490938
C90   C     C_R   0.748775 0.754516 0.936929 0.563466
Cr4   Cr    Cr6+3 0.914010 0.832750 0.013970 1.019266
Cr5   Cr    Cr6+3 0.922310 0.578600 0.003000 1.012702
Cr6   Cr    Cr6+3 0.656280 0.574630 0.003870 1.025404
O26   O     O_3   0.830870 0.661990 0.006950 -0.266624
O27   O     O_3   0.240783 0.140842 0.310713 -0.574333
C91   C     C_3   0.354347 0.223538 0.296924 -0.020495
H34   H     H_    0.394021 0.189648 0.268663 0.127651
H35   H     H_    0.415680 0.254967 0.329471 0.159204
C92   C     C_3   0.348991 0.326830 0.279495 -0.362771
H36   H     H_    0.316209 0.365668 0.308398 0.149368
H37   H     H_    0.438663 0.393695 0.270353 0.132058
H38   H     H_    0.288733 0.298961 0.246752 0.161643
O28   O     O_3   0.394197 0.544973 0.197497 -0.573296
C93   C     C_3   0.294140 0.560752 0.195846 -0.014408
H39   H     H_    0.315964 0.643801 0.180654 0.138169
H40   H     H_    0.259216 0.560538 0.232534 0.121849
C94   C     C_3   0.196944 0.461368 0.163308 -0.367528
H41   H     H_    0.171196 0.377367 0.178107 0.149011
H42   H     H_    0.118183 0.473405 0.161297 0.093784
H43   H     H_    0.228618 0.459329 0.126232 0.162218
O29   O     O_3   0.130372 0.644510 0.377715 -0.542169
C95   C     C_3   0.216020 0.615242 0.359979 0.005995
H44   H     H_    0.305215 0.693273 0.359280 0.140670
H45   H     H_    0.190750 0.570582 0.322744 0.102146
C96   C     C_3   0.225031 0.532631 0.392404 -0.346397
H46   H     H_    0.137540 0.453019 0.393117 0.158592
H47   H     H_    0.290216 0.507472 0.378285 0.073305
H48   H     H_    0.254335 0.575354 0.429841 0.175118

loop_
_geom_bond_atom_site_label_1
_geom_bond_atom_site_label_2
_geom_bond_distance
_ccdc_geom_bond_type
C44   O28   1.383279 S    
C54   H18   1.084134 S    
C26   C30   1.398733 A    
C45   C46   1.415411 A    
C20   C21   1.386191 A    
C93   H39   1.115263 S    
C78   H32   1.083859 S    
C55   C89   1.462419 S    
C43   C44   1.404435 A    
C39   C47   1.404049 A    
O23   C89   1.277324 A    
C51   C54   1.399085 A    
C76   H30   1.084124 S    
C42   C46   1.399238 A    
C17   C32   1.414538 A    
C17   O29   1.389314 S    
C6    C65   1.433290 S    
C88   O22   1.267342 A    
O15   C85   1.270208 A    
O4    Cr2   1.910523 S    
C52   C53   1.398431 A    
O29   C95   1.419815 S    
O8    Cr1   1.931771 S    
C10   C11   1.399042 A    
C91   H34   1.117126 S    
C49   H19   1.084138 S    
C79   H33   1.083428 S    
C65   C73   1.205291 T    
C34   C37   1.398745 A    
O28   C93   1.412858 S    
C17   C18   1.402068 A    
C84   C90   1.433738 S    
C53   H21   1.083483 S    
C33   H12   1.084723 S    
O4    C2    1.273951 A    
C58   C62   1.399743 A    
O19   Cr6   1.942228 S    
C40   C48   1.403172 A    
C34   C42   1.412043 A    
O15   Cr4   1.929768 S    
C22   C23   1.403359 A    
C40   H17   1.082675 S    
C69   C70   1.403539 A    
C56   H25   1.084595 S    
C4    C75   1.434069 S    
C43   H16   1.083303 S    
C96   H48   1.110324 S    
C92   H37   1.109972 S    
C27   O27   1.387347 S    
O6    C3    1.274125 A    
C80   C83   1.439211 S    
C66   C67   1.398168 A    
C8    C9    1.399129 A    
C40   C41   1.396177 A    
C28   H9    1.083060 S    
Cr5   O26   1.975435 S    
C9    H2    1.083411 S    
C94   H42   1.110156 S    
O14   Cr4   2.049431 S    
C33   C34   1.385455 A    
C93   H40   1.113702 S    
Cr3   O13   1.975234 S    
C35   C36   1.400658 A    
C33   C48   1.400588 A    
C71   C72   1.439064 S    
C29   C31   1.397722 A    
C68   H28   1.083505 S    
C60   C61   1.399843 A    
C19   C22   1.380882 A    
C95   H45   1.109434 S    
C35   C46   1.408810 A    
C9    C13   1.399759 A    
C31   H8    1.084441 S    
O1    Cr1   2.052453 S    
C44   C45   1.411542 A    
C28   C29   1.398249 A    
C92   H38   1.109797 S    
O10   Cr2   1.940914 S    
C78   C79   1.401949 A    
Cr1   O13   1.965793 S    
O1    C3    1.265645 A    
C51   C52   1.403259 A    
C16   C86   1.434767 S    
C68   C71   1.400144 A    
C56   C64   1.403006 A    
C19   C20   1.397393 A    
C41   C43   1.400394 A    
O21   C88   1.273233 A    
C78   C81   1.403577 A    
C27   C28   1.405145 A    
C39   C87   1.463254 S    
C95   H44   1.114015 S    
C5    C64   1.462571 S    
C67   C71   1.403138 A    
C7    C15   1.206183 T    
C77   C81   1.399367 A    
C35   C38   1.380943 A    
O24   Cr6   2.061011 S    
C82   C84   1.205260 T    
C76   C80   1.400894 A    
C13   C14   1.440460 S    
O14   C87   1.261511 A    
C24   C25   1.393608 A    
Cr4   O26   1.965423 S    
O7    Cr1   2.039767 S    
C86   O18   1.268550 A    
C50   C58   1.411327 A    
C59   C60   1.388455 A    
C23   C31   1.400038 A    
C36   C37   1.387216 A    
C63   H22   1.084626 S    
O12   C6    1.269163 A    
Cr6   O26   1.972628 S    
C47   H15   1.083565 S    
O16   Cr5   2.060017 S    
C56   C57   1.384227 A    
C38   C39   1.403351 A    
C89   O24   1.266824 A    
C57   C59   1.399783 A    
C45   C47   1.404259 A    
C76   C77   1.395242 A    
C60   H23   1.083822 S    
C54   C55   1.405205 A    
C18   C21   1.404587 A    
C3    C32   1.465367 S    
C36   H13   1.084103 S    
O17   Cr5   1.907326 S    
C96   H46   1.110621 S    
Cr2   O13   1.973114 S    
C49   C50   1.399121 A    
C91   C92   1.522823 S    
C61   C63   1.384194 A    
C59   H24   1.083827 S    
C22   H5    1.085075 S    
C1    O3    1.263844 A    
C77   H31   1.083725 S    
C18   C26   1.414707 A    
C29   C30   1.411594 A    
C55   C63   1.403133 A    
C24   C32   1.405582 A    
C95   C96   1.521134 S    
C37   H14   1.084000 S    
C94   H41   1.110865 S    
O20   C90   1.293228 A    
O9    Cr2   2.028792 S    
O2    Cr1   1.925632 S    
O25   C90   1.300323 A    
C51   C62   1.411293 A    
C66   C70   1.399978 A    
C67   H27   1.084093 S    
C12   C15   1.440398 S    
C8    C12   1.403310 A    
C85   O16   1.259483 A    
O6    Cr3   1.942713 S    
C69   H29   1.083977 S    
C52   H20   1.083479 S    
C75   C83   1.205549 T    
O11   Cr3   2.061260 S    
C2    O5    1.270259 A    
C11   H4    1.083428 S    
C93   C94   1.520400 S    
C74   C88   1.433064 S    
C8    H1    1.083863 S    
C38   H11   1.084723 S    
O2    C1    1.271099 A    
C41   C42   1.408568 A    
O21   Cr4   1.928611 S    
O5    Cr3   2.020708 S    
C68   C69   1.399230 A    
C92   H36   1.110498 S    
C24   H10   1.083602 S    
C14   C16   1.206191 T    
C19   C30   1.406700 A    
O22   Cr5   2.024783 S    
O7    C6    1.265005 A    
C81   C82   1.438630 S    
C25   C26   1.409222 A    
C2    C7    1.435034 S    
C25   C27   1.412494 A    
C49   C64   1.405001 A    
C70   C73   1.439047 S    
C57   C58   1.409249 A    
O23   Cr5   1.941563 S    
O12   Cr3   1.903991 S    
C66   H26   1.083578 S    
O17   C86   1.274122 A    
C23   C85   1.451600 S    
O3    Cr2   2.058709 S    
C10   H3    1.083941 S    
C20   H6    1.083861 S    
C50   C53   1.403210 A    
O27   C91   1.417302 S    
C4    O9    1.266315 A    
C10   C13   1.403540 A    
C91   H35   1.110077 S    
C61   C62   1.409119 A    
O25   Cr6   1.907180 S    
C11   C12   1.400058 A    
C21   H7    1.082927 S    
O10   C5    1.277607 A    
C79   C80   1.402567 A    
C94   H43   1.110656 S    
O19   C87   1.276629 A    
C1    C48   1.459760 S    
O20   Cr4   2.044159 S    
C5    O11   1.267055 A    
O8    C4    1.272695 A    
O18   Cr6   2.022705 S    
C96   H47   1.110477 S    
C72   C74   1.205252 T    
