data_mof_unit_9571.cif
_audit_creation_date              2012-12-11T17:23:18-0500
_audit_creation_method            fapswitch 2.2
_symmetry_space_group_name_H-M    P1
_symmetry_Int_Tables_number       1
_space_group_crystal_system       triclinic
_cell_length_a                    22.424266
_cell_length_b                    7.091661
_cell_length_c                    19.387055
_cell_angle_alpha                 89.919549
_cell_angle_beta                  99.517669
_cell_angle_gamma                 89.900297
_cell_volume                      3040.58402263

loop_
_atom_site_label
_atom_site_type_symbol
_atom_type_description
_atom_site_fract_x
_atom_site_fract_y
_atom_site_fract_z
_atom_type_partial_charge
O1    O     O_R   0.443980 0.494320 0.557430 -0.529994
O2    O     O_R   0.556020 0.994320 0.442570 -0.540317
O3    O     O_R   0.441210 0.822520 0.414610 -0.540610
O4    O     O_R   0.558790 0.322520 0.585390 -0.523568
C1    C     C_R   0.426220 0.655596 0.389110 0.768389
C2    C     C_R   0.573644 0.154779 0.610923 0.770428
O5    O     O_R   0.436920 0.823940 0.555180 -0.541223
O6    O     O_R   0.563080 0.323940 0.444820 -0.531804
O7    O     O_R   0.551700 0.995760 0.584140 -0.541626
O8    O     O_R   0.448300 0.495760 0.415860 -0.519900
C3    C     C_R   0.421513 0.655384 0.574735 0.741532
C4    C     C_R   0.578486 0.155326 0.425276 0.746761
O9    O     O_3   0.537660 0.661290 0.509340 -0.371602
O10   O     O_3   0.462340 0.161290 0.490660 -0.363391
V1    V     V_3+5 0.493010 0.935560 0.498270 1.492422
V2    V     V_3+5 0.506990 0.435560 0.501730 1.530191
C5    C     C_R   0.786810 0.941351 0.250880 -0.176586
C6    C     C_R   0.213322 0.441672 0.749189 -0.176423
H1    H     H_    0.813770 0.814794 0.249445 0.115862
H2    H     H_    0.186398 0.315316 0.750590 0.115549
C7    C     C_R   0.795309 0.093255 0.207076 0.106808
C8    C     C_R   0.204768 0.593233 0.793014 0.105990
C9    C     C_R   0.760648 0.257161 0.209303 -0.146731
C10   C     C_R   0.239394 0.756873 0.790836 -0.145623
H3    H     H_    0.766608 0.376144 0.176013 0.131377
H4    H     H_    0.233394 0.875585 0.824148 0.132259
C11   C     C_R   0.717758 0.268916 0.254282 -0.179808
C12   C     C_R   0.282293 0.768714 0.745873 -0.181085
H5    H     H_    0.691194 0.396601 0.254519 0.131982
H6    H     H_    0.308825 0.896185 0.745669 0.133013
C13   C     C_R   0.708845 0.117590 0.298262 0.115619
C14   C     C_R   0.291248 0.617745 0.701859 0.113064
C15   C     C_R   0.744044 0.951614 0.296795 0.149740
C16   C     C_R   0.256094 0.452037 0.703287 0.150550
C17   C     C_1   0.839676 0.081042 0.160107 -0.034255
C18   C     C_1   0.160376 0.580953 0.839948 -0.033703
C19   C     C_1   0.662891 0.134029 0.343307 -0.032972
C20   C     C_1   0.337179 0.634248 0.656793 -0.037789
C21   C     C_1   0.624538 0.145387 0.380764 -0.148450
C22   C     C_1   0.375499 0.645572 0.619296 -0.152872
C23   C     C_1   0.876926 0.071539 0.121174 -0.182784
C24   C     C_1   0.123106 0.571425 0.878854 -0.182232
C25   C     C_R   0.632350 0.099756 0.802784 0.294233
C26   C     C_R   0.363687 0.714727 0.198339 0.293952
H7    H     H_    0.545743 0.096765 0.736767 0.153861
H8    H     H_    0.448467 0.761999 0.264931 0.154497
H9    H     H_    0.716630 0.103932 0.919469 0.179570
H10   H     H_    0.280739 0.681736 0.081226 0.179327
C27   C     C_R   0.617051 0.142359 0.677085 -0.126593
C28   C     C_R   0.382601 0.650911 0.322893 -0.126251
C29   C     C_R   0.912646 0.041825 0.758373 0.118437
C30   C     C_R   0.086543 0.567626 0.241821 0.119404
C31   C     C_R   0.873738 0.024375 0.694057 -0.109425
C32   C     C_R   0.123957 0.595209 0.306616 -0.113568
C33   C     C_R   0.811439 0.043930 0.689396 -0.141865
C34   C     C_R   0.186166 0.617107 0.311311 -0.147053
C35   C     C_R   0.784937 0.092152 0.747876 0.113508
C36   C     C_R   0.214706 0.602989 0.252137 0.115666
C37   C     C_R   0.823211 0.092480 0.814547 0.047466
C38   C     C_R   0.176763 0.593563 0.185368 0.046757
C39   C     C_R   0.720779 0.119260 0.743095 0.002769
C40   C     C_R   0.279210 0.618754 0.256761 0.003191
C41   C     C_R   0.695692 0.107482 0.805933 0.028495
C42   C     C_R   0.302371 0.663812 0.194540 0.029760
C43   C     C_R   0.734250 0.104581 0.870823 -0.121492
C44   C     C_R   0.263978 0.656651 0.129601 -0.118260
C45   C     C_R   0.796658 0.104639 0.875038 -0.184307
C46   C     C_R   0.202992 0.614831 0.124953 -0.183283
C47   C     C_R   0.680198 0.157910 0.679161 0.181565
C48   C     C_R   0.321962 0.592097 0.319947 0.183753
C49   C     C_R   0.594156 0.108788 0.738525 -0.234653
C50   C     C_R   0.402077 0.716154 0.262528 -0.227448
C51   C     C_R   0.887048 0.070668 0.819603 -0.137813
C52   C     C_R   0.112957 0.571888 0.180343 -0.137338
H11   H     H_    0.784349 0.008533 0.639936 0.175158
H12   H     H_    0.210779 0.657299 0.361609 0.171898
H13   H     H_    0.890723 0.990328 0.646565 0.139472
H14   H     H_    0.105548 0.604866 0.354594 0.137830
H15   H     H_    0.823892 0.104724 0.926655 0.110812
H16   H     H_    0.175963 0.608991 0.073274 0.110878
O11   O     O_R   0.051730 0.724670 0.084120 -0.534264
O12   O     O_R   0.948270 0.224670 0.915880 -0.533972
O13   O     O_R   0.063080 0.393540 0.944820 -0.535736
O14   O     O_R   0.936920 0.893540 0.055180 -0.536299
C53   C     C_R   0.078030 0.562068 0.924670 0.712786
C54   C     C_R   0.921982 0.062110 0.075333 0.712839
O15   O     O_R   0.058800 0.395030 0.085390 -0.536582
O16   O     O_R   0.941200 0.895030 0.914610 -0.536843
O17   O     O_R   0.943980 0.223310 0.057440 -0.535092
O18   O     O_R   0.056020 0.723310 0.942560 -0.535759
C55   C     C_R   0.072642 0.563383 0.111460 0.678850
C56   C     C_R   0.927433 0.063689 0.888492 0.679046
O19   O     O_3   0.962360 0.556290 0.990650 -0.367649
O20   O     O_3   0.037640 0.056290 0.009350 -0.367619
V3    V     V_3+5 0.006980 0.281990 0.001730 1.428462
V4    V     V_3+5 0.993020 0.781990 0.998270 1.426268
C57   C     C_3   0.736540 0.783870 0.342915 -0.381597
C58   C     C_3   0.766876 0.818128 0.418313 -0.694388
H17   H     H_    0.815902 0.845512 0.420370 0.221018
H18   H     H_    0.746021 0.940092 0.441195 0.241568
H19   H     H_    0.761579 0.691275 0.450384 0.235347
H20   H     H_    0.687753 0.752933 0.341213 0.189812
H21   H     H_    0.757094 0.655713 0.323560 0.179448
C59   C     C_3   0.263648 0.284705 0.657120 -0.390140
C60   C     C_3   0.233327 0.320026 0.581728 -0.677159
H22   H     H_    0.184266 0.347404 0.579642 0.216407
H23   H     H_    0.254065 0.442345 0.558965 0.248201
H24   H     H_    0.238793 0.193678 0.549568 0.233429
H25   H     H_    0.312445 0.253361 0.658828 0.192414
H26   H     H_    0.243117 0.156512 0.676421 0.177723
Br1   Br    Br    0.594539 0.069699 0.884238 -0.483680
Br2   Br    Br    0.397828 0.792251 0.118107 -0.485229
Br3   Br    Br    0.706190 0.274227 0.598671 -0.605435
Br4   Br    Br    0.304707 0.440321 0.397428 -0.602494
C61   C     C_3   0.981152 0.022424 0.764119 -0.340962
C62   C     C_3   0.005254 0.002883 0.695121 -0.772786
H27   H     H_    0.989082 0.869626 0.668391 0.227433
H28   H     H_    0.991133 0.125517 0.660513 0.230975
H29   H     H_    0.055453 0.998537 0.705946 0.222034
H30   H     H_    0.002707 0.149130 0.791238 0.175633
H31   H     H_    0.996477 0.897234 0.796902 0.181885
C63   C     C_3   0.018273 0.541708 0.235955 -0.341155
C64   C     C_3   0.993678 0.533650 0.304939 -0.772994
H32   H     H_    0.015120 0.416234 0.338153 0.231568
H33   H     H_    0.001505 0.669680 0.333285 0.225657
H34   H     H_    0.944150 0.508282 0.293871 0.222696
H35   H     H_    0.995001 0.659345 0.204309 0.176240
H36   H     H_    0.005343 0.408002 0.207553 0.180996

loop_
_geom_bond_atom_site_label_1
_geom_bond_atom_site_label_2
_ccdc_geom_bond_type
C36   C40   A    
C44   C46   A    
O16   V4    S    
O4    V2    S    
C34   H12   S    
O15   C55   A    
C11   H5    S    
C18   C24   T    
O1    C3    A    
O2    C4    A    
C2    O7    A    
C41   C43   A    
C57   C58   S    
C25   C41   A    
C64   H32   S    
C48   Br4   S    
O5    C3    A    
C23   C54   S    
C60   H23   S    
C47   Br3   S    
C35   C39   A    
C5    C15   A    
C61   H31   S    
O14   C54   A    
C30   C52   A    
C59   H25   S    
C64   H33   S    
H7    C49   S    
C36   C38   A    
C61   C62   S    
O12   C56   A    
C62   H27   S    
C40   C48   A    
O14   V4    S    
C38   C52   A    
C63   H35   S    
C39   C41   A    
C28   C50   A    
C40   C42   A    
C37   C45   A    
C30   C63   S    
O16   C56   A    
C34   C36   A    
C43   C45   A    
O15   V3    S    
C13   C15   A    
C14   C20   S    
C37   C51   A    
H8    C50   S    
C57   H20   S    
C33   H11   S    
O5    V1    S    
O6    V2    S    
C27   C47   A    
C3    C22   S    
C25   Br1   S    
C59   C60   S    
C30   C32   A    
C31   C33   A    
C60   H24   S    
C32   C34   A    
C11   C13   A    
C29   C51   A    
C12   C14   A    
C45   H15   S    
O4    C2    A    
C24   C53   S    
O11   V4    S    
C64   H34   S    
C16   C59   S    
C13   C19   S    
C29   C31   A    
C42   C44   A    
C52   C55   S    
O17   V3    S    
C31   H13   S    
O6    C4    A    
O13   V3    S    
O1    V2    S    
O20   V4    S    
O2    V1    S    
C6    C16   A    
C57   H21   S    
C26   Br2   S    
O13   C53   A    
C61   H30   S    
O19   V4    S    
C9    C11   A    
C7    C9    A    
C8    C10   A    
C1    C28   S    
C46   H16   S    
C26   C42   A    
O3    V1    S    
C59   H26   S    
C39   C47   A    
C25   C49   A    
O12   V3    S    
C6    C8    A    
C10   C12   A    
C51   C56   S    
C10   H4    S    
O3    C1    A    
C54   O17   A    
C53   O18   A    
O18   V4    S    
C7    C17   S    
C58   H19   S    
C8    C18   S    
C60   H22   S    
C58   H18   S    
C62   H29   S    
C4    C21   S    
C33   C35   A    
C28   C48   A    
C1    O8    A    
C19   C21   T    
O8    V2    S    
C20   C22   T    
C12   H6    S    
C5    H1    S    
C62   H28   S    
C26   C50   A    
C6    H2    S    
C9    H3    S    
C2    C27   S    
C63   H36   S    
O20   V3    S    
C17   C23   T    
C29   C61   S    
C35   C37   A    
O11   C55   A    
C38   C46   A    
O19   V3    S    
C58   H17   S    
C27   C49   A    
O9    V2    S    
O10   V1    S    
C15   C57   S    
H10   C44   S    
C63   C64   S    
H9    C43   S    
O7    V1    S    
C14   C16   A    
C32   H14   S    
C5    C7    A    
