data_mof_unit_53136.cif
_audit_creation_date              2012-10-26T19:15:05-0400
_audit_creation_method            fapswitch 2.2
_symmetry_space_group_name_H-M    P1
_symmetry_Int_Tables_number       1
_space_group_crystal_system       triclinic
_cell_length_a                    10.827169
_cell_length_b                    10.856261
_cell_length_c                    9.627371
_cell_angle_alpha                 91.021578
_cell_angle_beta                  92.334926
_cell_angle_gamma                 91.261394
_cell_volume                      1130.21378113

loop_
_atom_site_label
_atom_site_type_symbol
_atom_type_description
_atom_site_fract_x
_atom_site_fract_y
_atom_site_fract_z
_atom_type_partial_charge
C1    C     C_R   0.503234 0.262436 0.498725 0.596889
C2    C     C_R   0.539942 0.939601 0.620856 -0.032437
C3    C     C_3   0.490638 0.932853 0.762880 -0.209000
C4    C     C_R   0.262541 0.495684 0.497237 0.556452
C5    C     C_3   0.489306 0.073376 0.761359 0.420105
C6    C     C_R   0.604112 0.532811 0.078666 0.116751
C7    C     C_R   0.392825 0.483841 0.066579 0.238239
C8    C     C_R   0.394224 0.482308 0.919307 0.042174
C9    C     C_R   0.603651 0.534323 0.931967 0.118564
C10   C     C_3   0.725196 0.473733 0.929548 -0.227890
C11   C     C_3   0.725571 0.470636 0.086857 -0.240212
C12   C     C_R   0.937496 0.420581 0.586830 0.027694
C13   C     C_R   0.503632 0.737092 0.500985 0.535843
C14   C     C_R   0.737249 0.501611 0.502530 0.592179
C15   C     C_R   0.063410 0.411264 0.571655 -0.053183
C16   C     C_R   0.128593 0.494664 0.491249 0.056523
C17   C     C_R   0.063570 0.589519 0.423640 0.113853
C18   C     C_R   0.934256 0.591840 0.429486 -0.152761
C19   C     C_R   0.870691 0.505381 0.508299 -0.001584
C20   C     C_3   0.173114 0.785290 0.431115 -0.280749
C21   C     C_3   0.230669 0.343919 0.128554 -0.273822
C22   C     C_3   0.206477 0.175586 0.425669 -0.315601
C23   C     C_3   0.919151 0.283970 0.598779 0.437014
C24   C     C_3   0.410952 0.054419 0.130560 -0.281987
C25   C     C_3   0.057326 0.272043 0.574203 0.042785
C26   C     C_R   0.538344 0.065918 0.618331 0.127964
C27   C     C_R   0.513248 0.128640 0.494891 0.053604
C28   C     C_R   0.505734 0.059047 0.367950 0.107773
C29   C     C_R   0.510665 0.930351 0.372827 -0.124558
C30   C     C_R   0.516151 0.869820 0.500130 -0.039425
Cl1   Cl    Cl    0.337708 0.133822 0.769380 -0.705492
Cl2   Cl    Cl    0.597938 0.145670 0.882429 -0.559668
Cl3   Cl    Cl    0.884595 0.238271 0.769727 -0.557378
Cl4   Cl    Cl    0.810519 0.217927 0.470812 -0.590637
Cu1   Cu    Cu3+1 0.499990 0.499980 0.640670 1.009709
Cu2   Cu    Cu3+1 0.500010 0.500020 0.359330 1.000070
H1    H     H_    0.559229 0.894982 0.838867 0.155271
H2    H     H_    0.397342 0.887821 0.762331 0.142438
H3    H     H_    0.078297 0.707853 0.259353 0.247027
H4    H     H_    0.094844 0.837606 0.471954 0.152271
H5    H     H_    0.228648 0.847399 0.366302 0.136913
H6    H     H_    0.233255 0.754692 0.519513 0.160990
H7    H     H_    0.211076 0.527993 0.085809 0.231469
H8    H     H_    0.212463 0.307239 0.020939 0.164076
H9    H     H_    0.143125 0.340057 0.184664 0.182954
H10   H     H_    0.299459 0.286552 0.183549 0.185958
H11   H     H_    0.023443 0.137080 0.418126 0.310380
H12   H     H_    0.308642 0.463733 0.860571 0.143465
H13   H     H_    0.215272 0.134846 0.320472 0.138449
H14   H     H_    0.231840 0.104222 0.502103 0.181520
H15   H     H_    0.268997 0.256528 0.438235 0.182560
H16   H     H_    0.567233 0.158584 0.201419 0.321733
H17   H     H_    0.377439 0.122406 0.054603 0.227484
H18   H     H_    0.329185 0.009326 0.175775 0.127269
H19   H     H_    0.464725 0.984333 0.075220 0.174757
H20   H     H_    0.716152 0.381503 0.879494 0.262490
H21   H     H_    0.798662 0.535073 0.889503 0.137470
H22   H     H_    0.718498 0.375746 0.128002 0.204142
H23   H     H_    0.799756 0.530274 0.137417 0.133955
H24   H     H_    0.883395 0.660830 0.372319 0.119520
H25   H     H_    0.110806 0.233665 0.663830 0.208373
H26   H     H_    0.503763 0.877168 0.276710 0.151676
N1    N     N_R   0.500790 0.500930 0.147930 -0.209603
N2    N     N_R   0.500790 0.500890 0.852020 -0.235785
N3    N     N_2   0.126991 0.680771 0.347542 -0.496682
N4    N     N_2   0.276512 0.469619 0.126791 -0.468025
N5    N     N_2   0.080921 0.212081 0.441560 -0.510011
N6    N     N_2   0.488267 0.117273 0.237177 -0.501370
O1    O     O_R   0.500000 0.319640 0.618810 -0.424607
O2    O     O_R   0.500010 0.319680 0.381230 -0.492072
O3    O     O_R   0.319650 0.499970 0.618810 -0.533538
O4    O     O_R   0.319660 0.500010 0.381230 -0.445520
O5    O     O_R   0.499990 0.680320 0.618770 -0.511914
O6    O     O_R   0.500000 0.680360 0.381190 -0.508926
O7    O     O_R   0.680340 0.499990 0.618770 -0.492167
O8    O     O_R   0.680350 0.500030 0.381190 -0.502194

loop_
_geom_bond_atom_site_label_1
_geom_bond_atom_site_label_2
_ccdc_geom_bond_type
C21   N4    S    
C9    N2    A    
Cu1   Cu2   S    
C25   N5    S    
C6    C9    A    
C20   H5    S    
C7    C8    A    
C24   H19   S    
C12   C23   S    
Cu1   O7    S    
C26   C27   A    
C28   C29   A    
C28   N6    S    
C20   H4    S    
C15   C25   S    
C24   H18   S    
C15   C16   A    
C18   C19   A    
Cu2   O8    S    
C3    H2    S    
C16   C17   A    
C23   Cl3   S    
Cu1   N2    S    
C11   H22   S    
C10   H20   S    
C9    C10   S    
H16   N6    S    
C22   H14   S    
C5    Cl2   S    
Cu1   O3    S    
H3    N3    S    
C11   H23   S    
Cu1   O1    S    
H11   N5    S    
Cu2   O2    S    
C21   H9    S    
C20   N3    S    
C10   H21   S    
C6    C11   S    
C24   H17   S    
C1    O1    A    
C14   O8    A    
C6    N1    A    
C4    C16   S    
C8    H12   S    
C29   C30   A    
C21   H8    S    
C13   C30   S    
C12   C15   A    
C23   Cl4   S    
C17   C18   A    
C2    C26   A    
C25   H25   S    
C7    N1    A    
Cu2   O6    S    
C8    N2    A    
C22   H13   S    
C18   H24   S    
C13   O5    A    
Cu2   N1    S    
C4    O4    A    
C21   H10   S    
C29   H26   S    
Cu1   O5    S    
C14   C19   S    
C3    C5    S    
C20   H6    S    
C17   N3    S    
C1    O2    A    
C2    C30   A    
C14   O7    A    
C2    C3    S    
C7    N4    S    
H7    N4    S    
C12   C19   A    
C23   C25   S    
C22   N5    S    
C10   C11   S    
C24   N6    S    
C5    C26   S    
C13   O6    A    
C3    H1    S    
C27   C28   A    
C1    C27   S    
C4    O3    A    
Cu2   O4    S    
C22   H15   S    
C5    Cl1   S    
