data_mof_unit_13964.cif
_audit_creation_date              2013-03-05T16:36:12-0500
_audit_creation_method            fapswitch 2.2
_symmetry_space_group_name_H-M    P1
_symmetry_Int_Tables_number       1
_space_group_crystal_system       triclinic
_cell_length_a                    27.823687
_cell_length_b                    9.119917
_cell_length_c                    7.773353
_cell_angle_alpha                 89.991859
_cell_angle_beta                  90.000011
_cell_angle_gamma                 90.0
_cell_volume                      1972.48609678

loop_
_atom_site_label
_atom_site_type_symbol
_atom_site_description
_atom_site_fract_x
_atom_site_fract_y
_atom_site_fract_z
_atom_type_partial_charge
O1    O     O_R   0.500000 0.288390 0.642760 -0.583164
O2    O     O_R   0.500000 0.711610 0.357240 -0.583164
O3    O     O_R   0.500000 0.711610 0.642760 -0.577171
O4    O     O_R   0.500000 0.288390 0.357240 -0.577171
C1    C     C_R   0.500000 0.219932 0.500007 0.827379
C2    C     C_R   0.500000 0.780068 0.499993 0.827379
O5    O     O_R   0.430260 0.500000 0.642770 -0.529058
O6    O     O_R   0.569740 0.500000 0.357230 -0.529398
O7    O     O_R   0.569740 0.500000 0.642770 -0.529398
O8    O     O_R   0.430260 0.500000 0.357230 -0.529058
C3    C     C_R   0.407045 0.500000 0.500000 0.874702
C4    C     C_R   0.592946 0.500000 0.500000 0.876673
Cu1   Cu    Cu3+1 0.500000 0.500000 0.669080 1.117986
Cu2   Cu    Cu3+1 0.500000 0.500000 0.330920 1.117986
C5    C     C_R   0.177426 0.371659 0.530096 0.614715
C6    C     C_R   0.822862 0.628413 0.529637 0.612947
C7    C     C_R   0.177426 0.628340 0.469904 0.614715
C8    C     C_R   0.822862 0.371587 0.470363 0.612947
O9    O     O_2   0.202323 0.247171 0.559599 -0.497560
O10   O     O_2   0.798074 0.753399 0.557373 -0.500135
O11   O     O_2   0.202323 0.752828 0.440401 -0.497561
O12   O     O_2   0.798074 0.246601 0.442627 -0.500136
N1    N     N_R   0.201421 0.500000 0.500000 -0.443668
N2    N     N_R   0.798767 0.500000 0.500000 -0.441165
C9    C     C_R   0.277923 0.518188 0.654261 -0.168509
C10   C     C_R   0.722029 0.476922 0.346704 -0.163909
C11   C     C_R   0.277923 0.481812 0.345739 -0.168509
C12   C     C_R   0.722029 0.523078 0.653296 -0.163908
C13   C     C_R   0.328045 0.518427 0.655060 0.563779
C14   C     C_R   0.671910 0.476850 0.345921 0.561233
C15   C     C_R   0.328045 0.481573 0.344940 0.563779
C16   C     C_R   0.671910 0.523150 0.654079 0.561233
C17   C     C_R   0.252854 0.500000 0.500000 0.155536
C18   C     C_R   0.747215 0.500000 0.500000 0.148010
C19   C     C_R   0.101564 0.500000 0.500000 -0.063343
C20   C     C_R   0.898727 0.500000 0.500000 -0.063732
C21   C     C_R   0.126994 0.369030 0.529825 -0.108152
C22   C     C_R   0.873298 0.630931 0.529669 -0.106636
C23   C     C_R   0.126994 0.630970 0.470175 -0.108152
C24   C     C_R   0.873298 0.369069 0.470331 -0.106636
C25   C     C_R   0.101570 0.239807 0.563357 -0.228923
C26   C     C_R   0.898726 0.760185 0.563061 -0.228573
C27   C     C_R   0.101570 0.760193 0.436643 -0.228923
C28   C     C_R   0.898727 0.239815 0.436939 -0.228573
C29   C     C_R   0.353850 0.500000 0.500000 -0.333710
C30   C     C_R   0.646124 0.500000 0.500000 -0.332183
H1    H     H_    0.258429 0.467450 0.226269 0.186506
H2    H     H_    0.741443 0.540798 0.772265 0.190519
H3    H     H_    0.258429 0.532550 0.773731 0.186506
H4    H     H_    0.741443 0.459202 0.227735 0.190518
H5    H     H_    0.120268 0.139580 0.596890 0.214552
H6    H     H_    0.880034 0.860438 0.596488 0.214893
H7    H     H_    0.120268 0.860419 0.403110 0.214552
H8    H     H_    0.880034 0.139562 0.403512 0.214893
C31   C     C_R   0.974895 0.365617 0.486993 -0.048928
C32   C     C_R   0.025402 0.634384 0.486878 -0.048934
C33   C     C_R   0.974895 0.634382 0.513007 -0.048929
C34   C     C_R   0.025402 0.365616 0.513122 -0.048934
C35   C     C_R   0.949620 0.500000 0.500000 -0.073373
C36   C     C_R   0.050676 0.500000 0.500000 -0.073037
C37   C     C_R   0.948755 0.238156 0.442161 0.721659
C38   C     C_R   0.051540 0.761846 0.441936 0.721875
C39   C     C_R   0.948755 0.761844 0.557839 0.721659
C40   C     C_R   0.051540 0.238154 0.558064 0.721875
C41   C     C_1   0.500000 0.065307 0.500010 -0.124873
C42   C     C_1   0.500000 0.934693 0.499990 -0.124873
N3    N     N_1   0.500000 0.500000 0.076820 0.007223
N4    N     N_1   0.500000 0.500000 0.923180 0.007223
F1    F     F_    0.350980 0.462012 0.192475 -0.574269
F2    F     F_    0.648948 0.547284 0.805533 -0.577168
F3    F     F_    0.350980 0.537988 0.807525 -0.574269
F4    F     F_    0.648948 0.452716 0.194467 -0.577167
F5    F     F_    0.971051 0.116204 0.383149 -0.537582
F6    F     F_    0.029240 0.883795 0.382893 -0.537679
F7    F     F_    0.971051 0.883796 0.616851 -0.537581
F8    F     F_    0.029240 0.116205 0.617108 -0.537678

loop_
_geom_bond_atom_site_label_1
_geom_bond_atom_site_label_2
_geom_bond_distance
_ccdc_geom_bond_type
C31   C35   1.416623 A    
C20   C35   1.416014 A    
C11   C17   1.397143 A    
C5    O9    1.349576 S    
C7    N1    1.367605 A    
C2    C42   1.410173 S    
O1    C1    1.273321 A    
C19   C21   1.407479 A    
C22   C26   1.399136 A    
C10   H4    1.083129 S    
C33   C35   1.416624 A    
C34   C36   1.416650 A    
C32   C33   1.419882 A    
C7    C23   1.403399 A    
O7    Cu1   1.951169 S    
C5    C21   1.403400 A    
C20   C24   1.407022 A    
C8    C24   1.403490 A    
C27   H7    1.083525 S    
N1    C17   1.431050 S    
Cu2   N3    1.975208 S    
C8    N2    1.368989 A    
O3    Cu1   1.940652 S    
C6    O10   1.349641 S    
O3    C2    1.273261 A    
C5    N1    1.367605 A    
C12   C18   1.398353 A    
C6    N2    1.368988 A    
Cu1   Cu2   2.628638 S    
O4    Cu2   1.940652 S    
O2    C2    1.273321 A    
C10   C18   1.398353 A    
C33   C39   1.414851 A    
C9    C13   1.394594 A    
C11   C15   1.394594 A    
N3    N4    1.194299 T    
C12   C16   1.394512 A    
C4    C30   1.479619 S    
O8    Cu2   1.951172 S    
C16   F2    1.357482 S    
C34   C40   1.414968 A    
C37   F5    1.353654 S    
N2    C18   1.434364 S    
C32   C36   1.416650 A    
C13   C29   1.413029 A    
C19   C36   1.415897 A    
C19   C23   1.407479 A    
C15   F1    1.357832 S    
O5    C3    1.284084 A    
C24   C28   1.399136 A    
O6    C4    1.283959 A    
C40   F8    1.353665 S    
C1    C41   1.410173 S    
C10   C14   1.394512 A    
C32   C38   1.414969 A    
C3    C29   1.480087 S    
O1    Cu1   1.940710 S    
C11   H1    1.083435 S    
C12   H2    1.083129 S    
O6    Cu2   1.951169 S    
C8    O12   1.349641 S    
C16   C30   1.412058 A    
C14   C30   1.412059 A    
O4    C1    1.273261 A    
C14   F4    1.357484 S    
C28   C37   1.392660 A    
C20   C22   1.407021 A    
C39   F7    1.353654 S    
C31   C37   1.414852 A    
C21   C25   1.398973 A    
O2    Cu2   1.940709 S    
O7    C4    1.283959 A    
C9    H3    1.083435 S    
C9    C17   1.397143 A    
O8    C3    1.284084 A    
C28   H8    1.083522 S    
O5    Cu1   1.951172 S    
C23   C27   1.398973 A    
C41   C42   1.191186 T    
C15   C29   1.413028 A    
C31   C34   1.419882 A    
C26   H6    1.083522 S    
C38   F6    1.353664 S    
C25   C40   1.392703 A    
C26   C39   1.392662 A    
C25   H5    1.083526 S    
C27   C38   1.392703 A    
C6    C22   1.403490 A    
C13   F3    1.357831 S    
Cu1   N4    1.975208 S    
C7    O11   1.349575 S    
