data_mof_unit_50897.cif
_audit_creation_date              2012-12-10T20:34:55-0500
_audit_creation_method            fapswitch 2.2
_symmetry_space_group_name_H-M    P1
_symmetry_Int_Tables_number       1
_space_group_crystal_system       triclinic
_cell_length_a                    10.72237
_cell_length_b                    10.632303
_cell_length_c                    9.974631
_cell_angle_alpha                 89.469307
_cell_angle_beta                  90.994394
_cell_angle_gamma                 89.742725
_cell_volume                      1136.91038436

loop_
_atom_site_label
_atom_site_type_symbol
_atom_type_description
_atom_site_fract_x
_atom_site_fract_y
_atom_site_fract_z
_atom_type_partial_charge
C1    C     C_R   0.510762 0.260730 0.500804 0.896945
C2    C     C_R   0.528009 0.935640 0.620205 0.020735
C3    C     C_3   0.440554 0.930396 0.736529 -0.080586
C4    C     C_R   0.257375 0.495324 0.499970 0.880281
C5    C     C_3   0.451987 0.073132 0.741417 -0.076712
C6    C     C_R   0.402983 0.549813 0.067398 0.150611
C7    C     C_R   0.601690 0.459855 0.074004 -0.130983
C8    C     C_R   0.602294 0.461597 0.930740 -0.162886
C9    C     C_R   0.401119 0.542445 0.925821 0.134786
C10   C     C_3   0.274512 0.487946 0.918461 -0.176981
C11   C     C_3   0.268816 0.510920 0.067865 0.142309
C12   C     C_3   0.876106 0.487632 0.502750 0.099324
C13   C     C_R   0.507625 0.739852 0.499316 0.880654
C14   C     C_R   0.740900 0.491701 0.500933 0.844703
C15   C     C_3   0.072723 0.400124 0.615156 -0.077592
C16   C     C_3   0.928300 0.407936 0.624309 -0.084449
C17   C     C_3   0.065982 0.629972 0.525987 0.191018
C18   C     C_3   0.066178 0.442898 0.368260 -0.432583
C19   C     C_3   0.119015 0.492586 0.502809 0.114856
C20   C     C_3   0.921283 0.625243 0.514678 -0.469667
C21   C     C_3   0.924844 0.433748 0.369455 -0.436211
C22   C     C_R   0.536617 0.063141 0.623476 -0.004893
C23   C     C_R   0.544120 0.130404 0.503737 -0.169567
C24   C     C_R   0.585855 0.068038 0.388269 0.094777
C25   C     C_R   0.582153 0.936383 0.385803 0.035878
C26   C     C_R   0.535922 0.871263 0.499646 -0.178247
H1    H     H_    0.887334 0.679589 0.425038 0.176283
H2    H     H_    0.569195 0.113715 0.190922 0.206587
H3    H     H_    0.717693 0.110268 0.252219 0.179930
H4    H     H_    0.684740 0.802153 0.293191 0.199353
H5    H     H_    0.543947 0.836789 0.216556 0.216353
H6    H     H_    0.311761 0.793528 0.701645 0.229083
H7    H     H_    0.289965 0.921885 0.603093 0.177624
H8    H     H_    0.363950 0.125990 0.720015 0.177270
H9    H     H_    0.602945 0.067920 0.874422 0.188022
H10   H     H_    0.538863 0.210512 0.850065 0.208165
H11   H     H_    0.107904 0.219843 0.684786 0.210883
H12   H     H_    0.479700 0.879282 0.825760 0.173069
H13   H     H_    0.071072 0.225586 0.520381 0.205569
H14   H     H_    0.684312 0.429263 0.879479 0.141218
H15   H     H_    0.208979 0.546208 0.858085 0.176176
H16   H     H_    0.346637 0.305637 0.935678 0.196627
H17   H     H_    0.297712 0.343992 0.783244 0.243758
H18   H     H_    0.094725 0.591798 0.086321 0.175144
H19   H     H_    0.207401 0.651042 0.192238 0.221562
H20   H     H_    0.316579 0.335348 0.151282 0.206468
H21   H     H_    0.163419 0.354364 0.110353 0.185365
H22   H     H_    0.786247 0.291405 0.688317 0.193006
H23   H     H_    0.682915 0.425426 0.128887 0.150536
H24   H     H_    0.850214 0.243730 0.544988 0.178820
H25   H     H_    0.051158 0.634216 0.733822 0.158694
H26   H     H_    0.081192 0.772675 0.664377 0.190363
H27   H     H_    0.877727 0.671383 0.602242 0.153434
H28   H     H_    0.106688 0.349849 0.343967 0.189793
H29   H     H_    0.895574 0.334758 0.354653 0.167432
H30   H     H_    0.907176 0.460584 0.717581 0.133643
H31   H     H_    0.089197 0.509628 0.289030 0.218850
H32   H     H_    0.109315 0.431812 0.712494 0.153910
H33   H     H_    0.886765 0.487962 0.281650 0.190545
H34   H     H_    0.207907 0.733485 0.440585 0.176997
H35   H     H_    0.068895 0.804327 0.431117 0.177821
N1    N     N_R   0.499150 0.499140 0.142800 -0.119232
N2    N     N_3   0.188164 0.618550 0.095712 -0.481196
N3    N     N_3   0.242267 0.399339 0.149899 -0.432147
N4    N     N_3   0.870655 0.282934 0.638216 -0.470491
N5    N     N_3   0.103694 0.677024 0.659098 -0.490032
N6    N     N_R   0.499150 0.499180 0.857150 -0.113558
N7    N     N_3   0.113028 0.716830 0.422659 -0.480984
N8    N     N_3   0.626240 0.137457 0.272861 -0.436281
N9    N     N_3   0.621629 0.873811 0.266753 -0.473545
N10   N     N_3   0.313638 0.891601 0.700455 -0.465564
N11   N     N_3   0.517656 0.115462 0.862818 -0.472756
N12   N     N_3   0.120660 0.271508 0.596350 -0.481965
N13   N     N_3   0.275261 0.353454 0.883622 -0.476376
O1    O     O_R   0.500020 0.316790 0.614690 -0.644950
O2    O     O_R   0.500000 0.316760 0.385350 -0.591452
O3    O     O_R   0.314800 0.500000 0.614670 -0.633047
O4    O     O_R   0.314790 0.499960 0.385330 -0.606290
O5    O     O_R   0.500000 0.683240 0.614650 -0.612993
O6    O     O_R   0.499980 0.683210 0.385310 -0.628156
O7    O     O_R   0.685210 0.500040 0.614670 -0.639824
O8    O     O_R   0.685200 0.500000 0.385330 -0.634954
Zn1   Zn    Zn3+2 0.500010 0.500020 0.653130 0.915750
Zn2   Zn    Zn3+2 0.499990 0.499980 0.346870 0.936168

loop_
_geom_bond_atom_site_label_1
_geom_bond_atom_site_label_2
_ccdc_geom_bond_type
C13   O5    A    
N6    Zn1   S    
C18   C21   S    
H2    N8    S    
O6    Zn2   S    
O2    Zn2   S    
C6    C9    A    
C16   H30   S    
C7    C8    A    
C15   C19   S    
C17   N5    S    
C21   H33   S    
C5    N11   S    
C11   N2    S    
O3    Zn1   S    
C15   C16   S    
C17   C20   S    
C18   C19   S    
N1    Zn2   S    
H4    N9    S    
C4    C19   S    
H5    N9    S    
C5    C22   S    
C12   C16   S    
C3    H12   S    
C2    C22   A    
C23   C24   A    
H22   N4    S    
C9    C10   S    
H17   N13   S    
C13   O6    A    
C10   H15   S    
O7    Zn1   S    
C24   N8    S    
H6    N10   S    
H3    N8    S    
H18   N2    S    
H16   N13   S    
C1    O1    A    
C24   C25   A    
C7    H23   S    
C11   N3    S    
C6    C11   S    
C21   H29   S    
C18   H28   S    
C25   C26   A    
C12   C21   S    
H19   N2    S    
H20   N3    S    
H25   N5    S    
C3    N10   S    
C9    N6    A    
C7    N1    A    
C4    O4    A    
C18   H31   S    
C5    H8    S    
C12   C20   S    
C2    C26   A    
C15   N12   S    
C12   C14   S    
H9    N11   S    
C1    C23   S    
O8    Zn2   S    
C15   H32   S    
C13   C26   S    
C14   O8    A    
H21   N3    S    
H26   N5    S    
H11   N12   S    
C17   N7    S    
C1    O2    A    
C20   H27   S    
C3    C5    S    
C16   N4    S    
C20   H1    S    
C6    N1    A    
C2    C3    S    
C4    O3    A    
O5    Zn1   S    
C10   N13   S    
H35   N7    S    
O1    Zn1   S    
C17   C19   S    
H13   N12   S    
H24   N4    S    
C10   C11   S    
H7    N10   S    
O4    Zn2   S    
H34   N7    S    
C8    N6    A    
C22   C23   A    
C25   N9    S    
C8    H14   S    
C14   O7    A    
H10   N11   S    
