data_mof_unit_66464.cif
_audit_creation_date              2013-03-05T16:10:02-0500
_audit_creation_method            fapswitch 2.2
_symmetry_space_group_name_H-M    P1
_symmetry_Int_Tables_number       1
_space_group_crystal_system       triclinic
_cell_length_a                    12.744608
_cell_length_b                    13.929018
_cell_length_c                    19.311688
_cell_angle_alpha                 90.007002
_cell_angle_beta                  93.002746
_cell_angle_gamma                 98.095402
_cell_volume                      3389.28876001

loop_
_atom_site_label
_atom_site_type_symbol
_atom_site_description
_atom_site_fract_x
_atom_site_fract_y
_atom_site_fract_z
_atom_type_partial_charge
O1    O     O_R   0.399110 0.356330 0.495750 -0.573387
O2    O     O_R   0.600890 0.643670 0.504250 -0.568621
O3    O     O_R   0.575900 0.366540 0.503170 -0.548668
O4    O     O_R   0.424100 0.633460 0.496830 -0.559655
C1    C     C_R   0.483434 0.315991 0.498769 0.839607
C2    C     C_R   0.516519 0.684020 0.500483 0.819989
O5    O     O_R   0.411580 0.494880 0.396430 -0.588199
O6    O     O_R   0.588420 0.505120 0.603570 -0.584356
O7    O     O_R   0.588360 0.505090 0.403850 -0.544187
O8    O     O_R   0.411640 0.494910 0.596150 -0.537451
C3    C     C_R   0.500494 0.502217 0.367359 0.878091
C4    C     C_R   0.499490 0.498970 0.632671 0.854399
Cu1   Cu    Cu3+1 0.395330 0.493960 0.495610 1.042698
Cu2   Cu    Cu3+1 0.604670 0.506040 0.504390 1.059401
C5    C     C_R   0.452933 0.580087 0.254901 -0.060254
C6    C     C_R   0.542424 0.430491 0.749136 -0.046235
C7    C     C_R   0.457873 0.584875 0.182094 0.305946
C8    C     C_R   0.547089 0.438999 0.822071 0.304037
C9    C     C_R   0.507778 0.517077 0.146262 -0.227763
C10   C     C_R   0.509423 0.517532 0.854037 -0.234020
C11   C     C_R   0.555403 0.445487 0.182967 0.215079
C12   C     C_R   0.466730 0.588366 0.813558 0.224641
C13   C     C_R   0.553424 0.442026 0.255504 0.233339
C14   C     C_R   0.461409 0.580165 0.740889 0.230166
C15   C     C_R   0.501571 0.508107 0.291418 -0.239513
C16   C     C_R   0.499250 0.501816 0.708668 -0.234690
N1    N     N_R   0.600197 0.514630 0.037862 -0.139869
N2    N     N_R   0.419662 0.529247 0.962307 -0.146116
N3    N     N_R   0.600625 0.515131 0.969009 -0.127404
N4    N     N_R   0.419219 0.528607 0.031155 -0.131169
C17   C     C_R   0.510319 0.522210 0.930101 0.528855
C18   C     C_R   0.509341 0.520870 0.070119 0.526184
C19   C     C_1   0.526064 0.786941 0.498772 -0.066091
C20   C     C_1   0.473610 0.213035 0.497924 -0.056982
C21   C     C_2   0.543672 0.977719 0.494530 0.202073
C22   C     C_2   0.455846 0.022179 0.498927 0.195349
C23   C     C_1   0.465100 0.126207 0.497930 0.059882
C24   C     C_1   0.534361 0.873705 0.496834 0.082026
N5    N     N_1   0.238030 0.484880 0.489000 -0.145309
N6    N     N_1   0.761970 0.515120 0.511000 -0.141660
C25   C     C_2   0.028287 0.474474 0.479665 -0.233041
C26   C     C_2   0.971808 0.526107 0.519855 -0.227108
C27   C     C_1   0.854648 0.519039 0.514122 0.287846
C28   C     C_1   0.145393 0.481232 0.485644 0.269211
H1    H     H_    0.014010 0.575500 0.558701 0.195794
H2    H     H_    0.986111 0.425077 0.440813 0.196680
C29   C     C_3   0.402889 0.656200 0.293390 -0.320004
C30   C     C_3   0.283415 0.624857 0.300562 -0.335844
C31   C     C_3   0.237144 0.694451 0.347573 -0.692272
H3    H     H_    0.275389 0.694748 0.400591 0.273819
H4    H     H_    0.249425 0.769099 0.326392 0.282437
H5    H     H_    0.150644 0.670844 0.350952 0.247051
H6    H     H_    0.240765 0.623072 0.248958 0.273203
H7    H     H_    0.268200 0.550767 0.322258 0.243293
H8    H     H_    0.443425 0.671148 0.345362 0.173743
H9    H     H_    0.415243 0.726896 0.266246 0.239079
C32   C     C_3   0.576021 0.341427 0.715569 -0.350838
C33   C     C_3   0.479422 0.265205 0.697559 -0.377092
C34   C     C_3   0.513418 0.168899 0.676821 -0.703554
H10   H     H_    0.568900 0.179762 0.634189 0.259402
H11   H     H_    0.553473 0.136923 0.721882 0.287047
H12   H     H_    0.442570 0.117366 0.659068 0.265985
H13   H     H_    0.429471 0.252789 0.743114 0.272408
H14   H     H_    0.430701 0.291495 0.654058 0.212418
H15   H     H_    0.620050 0.360891 0.668435 0.210601
H16   H     H_    0.632938 0.308576 0.750339 0.259578
N7    N     N_R   0.417858 0.662213 0.144629 0.131849
O9    O     O_R   0.483095 0.727136 0.114258 -0.271094
O10   O     O_R   0.316173 0.660977 0.133508 -0.298395
N8    N     N_R   0.584696 0.364769 0.864145 0.130150
O11   O     O_R   0.518384 0.306259 0.898817 -0.276157
O12   O     O_R   0.686141 0.362756 0.873880 -0.280061
N9    N     N_R   0.599495 0.372024 0.146420 0.170239
O13   O     O_R   0.697696 0.359070 0.159263 -0.222696
O14   O     O_R   0.541547 0.318130 0.099805 -0.255648
N10   N     N_R   0.430358 0.669752 0.845965 0.176293
O15   O     O_R   0.338901 0.695148 0.826677 -0.223191
O16   O     O_R   0.489989 0.720673 0.893361 -0.261300
N11   N     N_R   0.597823 0.366649 0.292441 0.164779
O17   O     O_R   0.700105 0.372860 0.303539 -0.265114
O18   O     O_R   0.535929 0.299126 0.322891 -0.331117
N12   N     N_R   0.424498 0.655588 0.699676 0.147622
O19   O     O_R   0.332499 0.640060 0.666052 -0.286950
O20   O     O_R   0.476857 0.742818 0.702393 -0.290082
N13   N     N_R   0.351025 0.968650 0.504541 0.142366
O21   O     O_R   0.278819 0.008916 0.534365 -0.290867
O22   O     O_R   0.322437 0.887104 0.471292 -0.348171
N14   N     N_R   0.648623 0.030991 0.488691 0.143881
O23   O     O_R   0.721093 0.989693 0.460007 -0.277510
O24   O     O_R   0.677001 0.113691 0.520476 -0.338830

loop_
_geom_bond_atom_site_label_1
_geom_bond_atom_site_label_2
_geom_bond_distance
_ccdc_geom_bond_type
C8    N8    1.434555 S    
N1    N3    1.329972 A    
C20   C23   1.198982 T    
C25   C26   1.357180 D    
C21   C22   1.359684 D    
C12   N10   1.438709 S    
C32   H16   1.108581 S    
N13   O21   1.301513 A    
O5    C3    1.282087 A    
O1    C1    1.279667 A    
N10   O16   1.301372 A    
C22   C23   1.437356 S    
C9    C11   1.410965 A    
C14   C16   1.410779 A    
C5    C15   1.419931 A    
C3    C15   1.469539 S    
C11   N9    1.436760 S    
N9    O13   1.300582 A    
O4    Cu1   1.925889 S    
C14   N12   1.434775 S    
N6    C27   1.173068 T    
C31   H4    1.110825 S    
C25   H2    1.085701 S    
N8    O11   1.300845 A    
C5    C29   1.524182 S    
C34   H10   1.109773 S    
Cu1   Cu2   2.645982 S    
C6    C16   1.417616 A    
N9    O14   1.301293 A    
O2    C2    1.280406 A    
C9    C18   1.472485 S    
N13   O22   1.301511 A    
C33   H14   1.111250 S    
C30   H6    1.108446 S    
C34   H11   1.110774 S    
C7    N7    1.435359 S    
N7    O9    1.300953 A    
C21   C24   1.437792 S    
N10   O15   1.301197 A    
O4    C2    1.282935 A    
N11   O18   1.300919 A    
C33   C34   1.526207 S    
C4    C16   1.468331 S    
N7    O10   1.300164 A    
C26   H1    1.085718 S    
C30   H7    1.109240 S    
O7    Cu2   1.941681 S    
C21   N14   1.445229 S    
C29   C30   1.537245 S    
O6    C4    1.283398 A    
C31   H5    1.110462 S    
C1    C20   1.421869 S    
O7    C3    1.287197 A    
O3    Cu2   1.925889 S    
O8    C4    1.285915 A    
C30   C31   1.525955 S    
N14   O24   1.301438 A    
N12   O19   1.300739 A    
N12   O20   1.300888 A    
C11   C13   1.403077 A    
C25   C28   1.480556 S    
C12   C14   1.405309 A    
O1    Cu1   1.924425 S    
C26   C27   1.480800 S    
C10   C12   1.409760 A    
C29   H8    1.110366 S    
C33   H13   1.112120 S    
C5    C7    1.411900 A    
C34   H12   1.110426 S    
O6    Cu2   1.937104 S    
N1    C18   1.356563 A    
N2    C17   1.355927 A    
C32   H15   1.107997 S    
O3    C1    1.283555 A    
O8    Cu1   1.941679 S    
N5    C28   1.172917 T    
C22   N13   1.444647 S    
C19   C24   1.198991 T    
C2    C19   1.422102 S    
N2    N4    1.329905 A    
N3    C17   1.356567 A    
N4    C18   1.356968 A    
C32   C33   1.533215 S    
C7    C9    1.410764 A    
C8    C10   1.409561 A    
C6    C32   1.523510 S    
C13   C15   1.408593 A    
O2    Cu2   1.924425 S    
Cu1   N5    1.988214 S    
Cu2   N6    1.988213 S    
N11   O17   1.300630 A    
O5    Cu1   1.937102 S    
N14   O23   1.301517 A    
C6    C8    1.410897 A    
C31   H3    1.110422 S    
N8    O12   1.300927 A    
C13   N11   1.434064 S    
C29   H9    1.111033 S    
C10   C17   1.469736 S    
