data_mof_unit_53949.cif
_audit_creation_date              2012-12-10T17:33:57-0500
_audit_creation_method            fapswitch 2.2
_symmetry_space_group_name_H-M    P1
_symmetry_Int_Tables_number       1
_space_group_crystal_system       triclinic
_cell_length_a                    10.74984
_cell_length_b                    12.062323
_cell_length_c                    12.860118
_cell_angle_alpha                 95.370425
_cell_angle_beta                  91.553993
_cell_angle_gamma                 86.07272
_cell_volume                      1655.96788084

loop_
_atom_site_label
_atom_site_type_symbol
_atom_type_description
_atom_site_fract_x
_atom_site_fract_y
_atom_site_fract_z
_atom_type_partial_charge
C1    C     C_R   0.499057 0.523780 0.700517 0.986221
C2    C     C_R   0.465771 0.463619 0.974247 -0.099076
C3    C     C_R   0.550033 0.536718 0.026939 0.010194
C4    C     C_R   0.741700 0.500883 0.507344 0.956921
C5    C     C_R   0.578199 0.526444 0.133158 0.050856
C6    C     C_R   0.425704 0.384772 0.135284 0.395110
C7    C     C_R   0.405896 0.388019 0.028648 -0.265038
C8    C     C_R   0.382705 0.950978 0.398312 0.336470
C9    C     C_R   0.395184 0.834181 0.408949 0.117119
C10   C     C_R   0.548556 0.861681 0.544376 0.514567
C11   C     C_R   0.541292 0.978322 0.536453 -0.068781
C12   C     C_3   0.121600 0.500456 0.506873 -0.187740
C13   C     C_R   0.459186 0.023280 0.460873 -0.220090
C14   C     C_R   0.455343 0.140751 0.452131 0.632289
C15   C     C_R   0.601079 0.166340 0.592588 -0.171683
C16   C     C_R   0.503082 0.476095 0.299704 0.905765
C17   C     C_R   0.613605 0.051836 0.602562 0.085526
C18   C     C_R   0.258240 0.500771 0.504541 0.997436
C19   C     C_3   0.938048 0.401105 0.578300 0.043674
C20   C     C_3   0.084733 0.394526 0.564052 0.698734
C21   C     C_3   0.922931 0.486452 0.395047 0.212670
C22   C     C_3   0.921059 0.614993 0.565227 -0.307762
C23   C     C_3   0.067489 0.492995 0.389533 0.217967
C24   C     C_3   0.878510 0.499300 0.511205 -0.179412
C25   C     C_3   0.066943 0.611641 0.573638 0.749486
C26   C     C_R   0.506857 0.458074 0.187581 -0.138279
C27   C     C_R   0.503627 0.540759 0.813084 -0.134743
C28   C     C_R   0.602011 0.619254 0.973028 0.437208
C29   C     C_R   0.581208 0.618475 0.864314 -0.136319
C30   C     C_R   0.442589 0.466642 0.867479 0.380587
H1    H     H_    0.880422 0.559462 0.357932 0.199681
H2    H     H_    0.698207 0.560207 0.259694 0.194959
H3    H     H_    0.310237 0.267658 0.141808 0.337778
H4    H     H_    0.692734 0.756724 0.983673 0.335397
H5    H     H_    0.740849 0.678717 0.817805 0.183842
H6    H     H_    0.614374 0.773284 0.825782 0.233208
H7    H     H_    0.389796 0.319233 0.826802 0.326172
H8    H     H_    0.411387 0.149515 0.308590 0.365785
H9    H     H_    0.810370 0.444771 0.697744 0.172275
H10   H     H_    0.953564 0.488898 0.730062 0.246237
H11   H     H_    0.256360 0.938133 0.284836 0.330291
H12   H     H_    0.339499 0.333710 0.989973 0.165377
H13   H     H_    0.787918 0.036475 0.664905 0.181840
H14   H     H_    0.672690 0.051490 0.753171 0.182640
H15   H     H_    0.228111 0.782058 0.355804 0.192389
H16   H     H_    0.344447 0.761487 0.267282 0.178602
H17   H     H_    0.625839 0.739061 0.612750 0.394833
H18   H     H_    0.132595 0.325283 0.692254 0.368366
H19   H     H_    0.077512 0.274672 0.446197 0.333210
H20   H     H_    0.928759 0.329273 0.329976 0.345791
H21   H     H_    0.221073 0.401360 0.323334 0.246120
H22   H     H_    0.093597 0.401100 0.246945 0.235952
H23   H     H_    0.654621 0.222923 0.643251 0.166536
H24   H     H_    0.897623 0.718441 0.440819 0.211512
H25   H     H_    0.887377 0.786027 0.561946 0.244496
H26   H     H_    0.074815 0.677128 0.718687 0.348875
H27   H     H_    0.882814 0.625992 0.645143 0.167661
H28   H     H_    0.883574 0.266588 0.469544 0.210397
H29   H     H_    0.937424 0.228999 0.587533 0.208693
H30   H     H_    0.091321 0.724397 0.472811 0.359710
H31   H     H_    0.177603 0.586334 0.320986 0.350851
H32   H     H_    0.762264 0.550226 0.144128 0.226186
N1    N     N_R   0.523380 0.207800 0.519350 -0.131530
N2    N     N_3   0.866123 0.713282 0.515969 -0.401033
N3    N     N_R   0.476620 0.792180 0.480650 -0.167057
N4    N     N_3   0.887799 0.291169 0.548836 -0.414859
N5    N     N_3   0.681813 0.581648 0.183760 -0.344544
N6    N     N_3   0.644740 0.690392 0.803988 -0.443500
N7    N     N_3   0.906145 0.425310 0.689843 -0.444667
N8    N     N_3   0.699189 0.012304 0.680399 -0.369970
N9    N     N_3   0.322455 0.758053 0.345565 -0.386147
N10   N     N_3   0.124724 0.396643 0.324382 -0.442950
O1    O     O_R   0.506240 0.421700 0.658830 -0.614726
O2    O     O_3   0.088827 0.589757 0.340738 -0.819370
O3    O     O_3   0.364022 0.313135 0.190270 -0.765769
O4    O     O_3   0.670867 0.699046 0.028328 -0.751916
O5    O     O_3   0.361473 0.396744 0.813675 -0.697153
O6    O     O_3   0.386046 0.190366 0.375959 -0.634778
O7    O     O_3   0.293823 0.996679 0.331931 -0.739348
O8    O     O_3   0.629555 0.819795 0.617525 -0.761815
O9    O     O_3   0.145753 0.396716 0.662724 -0.647762
O10   O     O_3   0.129652 0.293041 0.508536 -0.723525
O11   O     O_3   0.871144 0.396542 0.334045 -0.798153
O12   O     O_R   0.491240 0.609310 0.646410 -0.626890
O13   O     O_3   0.104247 0.605956 0.678937 -0.719175
O14   O     O_R   0.692710 0.406190 0.506230 -0.599120
O15   O     O_R   0.677700 0.593810 0.493810 -0.646215
O16   O     O_R   0.508760 0.390690 0.353590 -0.545057
O17   O     O_R   0.493760 0.578300 0.341170 -0.624169
O18   O     O_R   0.322300 0.406190 0.506190 -0.520285
O19   O     O_R   0.307290 0.593810 0.493770 -0.581016
O20   O     O_3   0.113902 0.711367 0.545191 -0.742055
Zn1   Zn    Zn3+2 0.510020 0.374730 0.508290 1.048852
Zn2   Zn    Zn3+2 0.489980 0.625270 0.491710 0.990165

loop_
_geom_bond_atom_site_label_1
_geom_bond_atom_site_label_2
_ccdc_geom_bond_type
C8    C13   A    
C20   O10   S    
H15   N9    S    
C19   C20   S    
O1    Zn1   S    
C5    N5    S    
C22   H27   S    
C6    O3    S    
C4    O15   A    
C1    O12   A    
C21   H1    S    
C12   C23   S    
H32   N5    S    
C18   O19   A    
C15   H23   S    
C28   C29   A    
H29   N4    S    
C4    C24   S    
C27   C29   A    
O15   Zn2   S    
H18   O9    S    
C19   N4    S    
C7    H12   S    
O17   Zn2   S    
C2    C7    A    
C30   O5    S    
H3    O3    S    
C11   C17   A    
C21   O11   S    
C8    C9    A    
C22   C25   S    
C8    O7    S    
H14   N8    S    
C16   O17   A    
C13   C14   A    
C27   C30   A    
H17   O8    S    
H28   N4    S    
H20   O11   S    
H30   O20   S    
C16   C26   S    
H10   N7    S    
C18   O18   A    
C10   O8    S    
H8    O6    S    
H7    O5    S    
H19   O10   S    
H22   N10   S    
O14   Zn1   S    
C29   N6    S    
H25   N2    S    
C12   C20   S    
C25   O13   S    
H9    N7    S    
O12   Zn2   S    
H16   N9    S    
H2    N5    S    
N3    Zn2   S    
H13   N8    S    
C21   C23   S    
C22   C24   S    
C19   N7    S    
H21   N10   S    
C23   O2    S    
C28   O4    S    
O18   Zn1   S    
C1    C27   S    
C10   N3    A    
C15   C17   A    
O16   Zn1   S    
C3    C28   A    
C25   O20   S    
C23   N10   S    
C9    N9    S    
C3    C5    A    
H11   O7    S    
H6    N6    S    
C6    C7    A    
H31   O2    S    
N1    Zn1   S    
C12   C25   S    
C2    C30   A    
C1    O1    A    
C2    C3    A    
O19   Zn2   S    
C11   C13   A    
H26   O13   S    
C6    C26   A    
H24   N2    S    
H5    N6    S    
C14   N1    A    
C19   C24   S    
C14   O6    S    
C9    N3    A    
C10   C11   A    
C22   N2    S    
C5    C26   A    
C17   N8    S    
C4    O14   A    
C21   C24   S    
C12   C18   S    
C16   O16   A    
C15   N1    A    
C20   O9    S    
H4    O4    S    
