data_mof_unit_30177.cif
_audit_creation_date              2012-12-10T18:59:57-0500
_audit_creation_method            fapswitch 2.2
_symmetry_space_group_name_H-M    P1
_symmetry_Int_Tables_number       1
_space_group_crystal_system       triclinic
_cell_length_a                    10.71191
_cell_length_b                    10.707898
_cell_length_c                    9.813979
_cell_angle_alpha                 90.113474
_cell_angle_beta                  90.14151
_cell_angle_gamma                 90.285927
_cell_volume                      1125.66372313

loop_
_atom_site_label
_atom_site_type_symbol
_atom_type_description
_atom_site_fract_x
_atom_site_fract_y
_atom_site_fract_z
_atom_type_partial_charge
C1    C     C_R   0.499442 0.259806 0.499847 0.881869
C2    C     C_R   0.500559 0.740193 0.500153 0.881872
C3    C     C_R   0.872458 0.494215 0.501017 -0.057274
C4    C     C_R   0.127542 0.505782 0.498983 -0.057274
C5    C     C_R   0.938980 0.442939 0.611470 0.015377
C6    C     C_R   0.061020 0.557059 0.388531 0.015376
C7    C     C_R   0.523239 0.063816 0.378302 -0.209186
C8    C     C_R   0.476768 0.936184 0.621699 -0.209191
C9    C     C_R   0.524303 0.935966 0.378613 -0.225073
C10   C     C_R   0.475704 0.064034 0.621387 -0.225077
C11   C     C_R   0.500958 0.872592 0.500281 -0.005243
C12   C     C_R   0.499047 0.127408 0.499719 -0.005237
C13   C     C_R   0.568871 0.585860 0.072378 -0.079681
C14   C     C_R   0.431129 0.414140 0.927622 -0.079677
C15   C     C_R   0.568829 0.585834 0.928303 -0.062287
C16   C     C_R   0.431170 0.414166 0.071697 -0.062300
C17   C     C_R   0.260016 0.503317 0.499616 0.899363
C18   C     C_R   0.739984 0.496682 0.500384 0.899356
C19   C     C_R   0.245557 0.790404 0.176304 -0.155846
C20   C     C_R   0.754430 0.209624 0.823726 -0.155844
C21   C     C_R   0.184201 0.736276 0.288456 0.153098
C22   C     C_R   0.815794 0.263734 0.711569 0.153102
C23   C     C_R   0.121349 0.620923 0.271494 0.130089
C24   C     C_R   0.878650 0.379087 0.728515 0.130085
C25   C     C_R   0.117847 0.563951 0.142438 -0.203431
C26   C     C_R   0.882149 0.436076 0.857563 -0.203431
C27   C     C_R   0.178395 0.619211 0.031871 -0.138738
C28   C     C_R   0.821595 0.380833 0.968136 -0.138742
C29   C     C_R   0.242827 0.731775 0.048982 -0.131143
C30   C     C_R   0.757158 0.268270 0.951038 -0.131132
C31   C     C_R   0.933037 0.549581 0.390581 -0.286465
C32   C     C_R   0.066962 0.450416 0.609419 -0.286467
H1    H     H_    0.290562 0.773815 0.963335 0.129515
H2    H     H_    0.709416 0.226243 0.036690 0.129518
H3    H     H_    0.624092 0.654126 0.873809 0.121881
H4    H     H_    0.375907 0.345874 0.126191 0.121883
H5    H     H_    0.295379 0.878081 0.187317 0.121867
H6    H     H_    0.704603 0.121950 0.812723 0.121861
H7    H     H_    0.069889 0.475579 0.128149 0.134899
H8    H     H_    0.930109 0.524449 0.871840 0.134897
H9    H     H_    0.176341 0.574098 0.933053 0.140991
H10   H     H_    0.823646 0.425958 0.066947 0.140989
H11   H     H_    0.880537 0.590631 0.307335 0.155467
H12   H     H_    0.119464 0.409367 0.692666 0.155469
H13   H     H_    0.542258 0.112451 0.283805 0.151927
H14   H     H_    0.457750 0.887549 0.716196 0.151930
H15   H     H_    0.543694 0.887147 0.284227 0.151345
H16   H     H_    0.456315 0.112852 0.715774 0.151344
H17   H     H_    0.624076 0.654244 0.127407 0.115635
H18   H     H_    0.375924 0.345756 0.872593 0.115636
N1    N     N_R   0.499970 0.499970 0.857200 -0.073907
N2    N     N_R   0.500030 0.500030 0.142800 -0.073908
O1    O     O_R   0.499990 0.316750 0.614620 -0.624355
O2    O     O_R   0.500010 0.683250 0.385380 -0.624353
O3    O     O_R   0.499990 0.316780 0.385290 -0.635009
O4    O     O_R   0.500010 0.683220 0.614710 -0.635007
O5    O     O_R   0.316760 0.500000 0.614660 -0.632379
O6    O     O_R   0.683240 0.500000 0.385340 -0.632381
O7    O     O_R   0.316760 0.500020 0.385330 -0.609842
O8    O     O_R   0.683240 0.499980 0.614670 -0.609842
Zn1   Zn    Zn3+2 0.500000 0.499980 0.653120 0.949353
Zn2   Zn    Zn3+2 0.500000 0.500020 0.346880 0.949351
N3    N     N_3   0.185670 0.796907 0.419221 -0.480488
H19   H     H_    0.093878 0.822083 0.441984 0.173450
H20   H     H_    0.236992 0.880079 0.414584 0.184225
N4    N     N_3   0.814329 0.203087 0.580813 -0.480485
H21   H     H_    0.906122 0.177908 0.558055 0.173449
H22   H     H_    0.763009 0.119914 0.585462 0.184227

loop_
_geom_bond_atom_site_label_1
_geom_bond_atom_site_label_2
_ccdc_geom_bond_type
O6    Zn2   S    
N4    H22   S    
N3    H20   S    
O5    Zn1   S    
C14   C16   A    
C15   N1    A    
C27   C29   A    
C13   N2    A    
C20   H6    S    
C19   H5    S    
C27   H9    S    
C26   C28   A    
C14   N1    A    
N1    Zn1   S    
C2    O4    A    
C5    C32   A    
C7    C9    A    
C28   C30   A    
C6    C31   A    
C32   H12   S    
C20   C30   A    
C31   H11   S    
C16   H4    S    
C2    C11   S    
C3    C31   A    
C9    C11   A    
C26   H8    S    
C14   H18   S    
C1    C12   S    
C10   C12   A    
C30   H2    S    
C17   O7    A    
C8    C11   A    
C13   H17   S    
C6    C23   S    
C7    H13   S    
C18   O8    A    
C19   C21   A    
C20   C22   A    
N4    H21   S    
C8    H14   S    
C13   C15   A    
C21   C23   A    
C10   H16   S    
C7    C12   A    
C22   C24   A    
C1    O3    A    
C21   N3    S    
C9    H15   S    
C25   C27   A    
C4    C17   S    
C4    C32   A    
C19   C29   A    
O3    Zn2   S    
C29   H1    S    
C23   C25   A    
C25   H7    S    
C3    C18   S    
C4    C6    A    
C2    O2    A    
C28   H10   S    
C16   N2    A    
C15   H3    S    
C1    O1    A    
O4    Zn1   S    
C5    C24   S    
O7    Zn2   S    
N2    Zn2   S    
O2    Zn2   S    
C17   O5    A    
O1    Zn1   S    
C18   O6    A    
C8    C10   A    
C22   N4    S    
N3    H19   S    
C24   C26   A    
O8    Zn1   S    
C3    C5    A    
