data_mof_unit_40212.cif
_audit_creation_date              2012-12-10T17:51:33-0500
_audit_creation_method            fapswitch 2.2
_symmetry_space_group_name_H-M    P1
_symmetry_Int_Tables_number       1
_space_group_crystal_system       triclinic
_cell_length_a                    9.971423
_cell_length_b                    10.702954
_cell_length_c                    16.855083
_cell_angle_alpha                 93.548172
_cell_angle_beta                  82.865148
_cell_angle_gamma                 92.100108
_cell_volume                      1780.72411854

loop_
_atom_site_label
_atom_site_type_symbol
_atom_type_description
_atom_site_fract_x
_atom_site_fract_y
_atom_site_fract_z
_atom_type_partial_charge
C1    C     C_R   0.503290 0.738469 0.492996 0.857790
C2    C     C_R   0.546337 0.529292 0.262528 -0.201812
C3    C     C_R   0.325307 0.846978 0.390496 -0.216164
C4    C     C_R   0.478613 0.499823 0.652508 0.877006
C5    C     C_R   0.220465 0.899262 0.358501 -0.139044
C6    C     C_R   0.201119 0.026973 0.369182 0.226989
C7    C     C_R   0.290636 0.104157 0.409218 -0.197115
C8    C     C_R   0.398523 0.052673 0.443076 0.079901
C9    C     C_R   0.410400 0.921410 0.436775 0.102645
C10   C     C_R   0.510903 0.868136 0.474912 -0.134182
C11   C     C_R   0.617875 0.940854 0.499115 -0.166149
C12   C     C_R   0.391817 0.617426 0.776461 -0.180749
C13   C     C_R   0.610572 0.067749 0.503749 -0.147253
C14   C     C_R   0.498280 0.125001 0.481177 -0.103958
C15   C     C_R   0.844484 0.602379 0.639673 0.219245
C16   C     C_R   0.498654 0.259559 0.493838 0.904495
C17   C     C_R   0.907524 0.613941 0.709492 -0.187444
C18   C     C_R   0.046467 0.629847 0.702951 -0.210229
C19   C     C_R   0.121212 0.613265 0.628392 -0.130623
C20   C     C_R   0.062226 0.555102 0.564065 0.144993
C21   C     C_R   0.917686 0.553731 0.566148 0.082774
C22   C     C_R   0.941327 0.450641 0.436561 0.006069
C23   C     C_R   0.514495 0.470411 0.126135 -0.202168
C24   C     C_R   0.083583 0.451191 0.437080 -0.172595
C25   C     C_R   0.522283 0.504367 0.347326 0.885200
C26   C     C_R   0.462321 0.515095 0.738467 -0.004999
C27   C     C_R   0.532323 0.437997 0.781685 -0.201648
C28   C     C_R   0.535603 0.465592 0.862673 -0.152785
C29   C     C_R   0.473998 0.573688 0.899694 0.159167
C30   C     C_R   0.397131 0.646460 0.857492 -0.108370
C31   C     C_2   0.888501 0.392573 0.365033 0.511653
C32   C     C_2   0.701653 0.712959 0.293914 0.506575
C33   C     C_2   0.736442 0.593970 0.965787 0.467268
C34   C     C_R   0.490198 0.447855 0.206497 0.174041
C35   C     C_R   0.632259 0.631898 0.236386 -0.156418
C36   C     C_R   0.649495 0.658049 0.154954 0.240759
C37   C     C_R   0.590601 0.575886 0.100357 0.061004
C38   C     C_2   0.485630 0.607172 0.983621 -0.335647
C39   C     C_2   0.602038 0.598086 0.015190 -0.023201
H1    H     H_    0.586697 0.358664 0.752350 0.148463
H2    H     H_    0.147080 0.409581 0.386272 0.168917
H3    H     H_    0.346516 0.728131 0.886321 0.151108
H4    H     H_    0.471884 0.405989 0.083085 0.182109
H5    H     H_    0.340416 0.679113 0.742510 0.131108
H6    H     H_    0.391532 0.621609 0.022809 0.193926
H7    H     H_    0.589458 0.404727 0.895965 0.151242
H8    H     H_    0.939303 0.411431 0.306042 0.067621
H9    H     H_    0.648021 0.742895 0.350736 0.036851
H10   H     H_    0.747967 0.621736 0.904481 0.059550
H11   H     H_    0.704913 0.900385 0.518420 0.202875
H12   H     H_    0.341071 0.748393 0.376323 0.173036
H13   H     H_    0.154806 0.840208 0.324604 0.188578
H14   H     H_    0.274522 0.202921 0.410402 0.191399
H15   H     H_    0.692007 0.120655 0.528494 0.184815
H16   H     H_    0.850505 0.640450 0.766628 0.171643
H17   H     H_    0.094457 0.664749 0.754407 0.169946
H18   H     H_    0.223122 0.649275 0.621319 0.199180
I1    I     I_    0.745926 0.829878 0.115701 -0.192755
I2    I     I_    0.038432 0.100361 0.320470 -0.254455
I3    I     I_    0.715590 0.757630 0.653231 -0.399467
I4    I     I_    0.377897 0.282646 0.236684 -0.327243
N1    N     N_R   0.857140 0.501200 0.500750 -0.123684
N2    N     N_R   0.142740 0.501280 0.500770 -0.115164
O1    O     O_R   0.385310 0.683220 0.500000 -0.638722
O2    O     O_2   0.820980 0.743169 0.279176 -0.526794
O3    O     O_2   0.835584 0.559925 0.993526 -0.536539
O4    O     O_R   0.614640 0.683250 0.500010 -0.603038
O5    O     O_R   0.371780 0.500010 0.615800 -0.632255
O6    O     O_R   0.601110 0.500030 0.615800 -0.603770
O7    O     O_R   0.385360 0.316750 0.499990 -0.629216
O8    O     O_R   0.614690 0.316780 0.500000 -0.568274
O9    O     O_R   0.398890 0.499970 0.384200 -0.621195
O10   O     O_R   0.628220 0.499990 0.384200 -0.590260
O11   O     O_2   0.795222 0.315620 0.370836 -0.505799
Zn1   Zn    Zn3+2 0.346870 0.499980 0.499990 0.948348
Zn2   Zn    Zn3+2 0.653130 0.500020 0.500010 1.012890

loop_
_geom_bond_atom_site_label_1
_geom_bond_atom_site_label_2
_ccdc_geom_bond_type
C2    C35   A    
C15   I3    S    
C35   C36   A    
C7    C8    A    
C19   H18   S    
O5    Zn1   S    
C28   H7    S    
C26   C27   A    
C33   C39   S    
C36   C37   A    
C36   I1    S    
C5    C6    A    
C33   H10   S    
C23   H4    S    
O6    Zn2   S    
C18   C19   A    
C38   H6    S    
C19   C20   A    
C8    C9    A    
C29   C38   S    
C5    H13   S    
C14   C16   S    
C9    C10   A    
C17   H16   S    
C18   H17   S    
C2    C34   A    
C31   H8    S    
C13   C14   A    
C24   H2    S    
C32   H9    S    
N1    Zn2   S    
C16   O8    A    
O9    Zn1   S    
C4    O6    A    
C33   O3    D    
C38   C39   D    
C22   C31   S    
C32   C35   S    
C16   O7    A    
C4    O5    A    
C3    H12   S    
C31   O11   D    
C23   C37   A    
C34   I4    S    
C12   C26   A    
C29   C30   A    
C3    C9    A    
C22   N1    A    
C27   H1    S    
C23   C34   A    
C17   C18   A    
C25   O9    A    
C21   N1    A    
C24   N2    A    
O10   Zn2   S    
C22   C24   A    
C7    H14   S    
C1    O1    A    
C27   C28   A    
C13   H15   S    
C15   C17   A    
C28   C29   A    
C8    C14   A    
C12   C30   A    
C6    I2    S    
C1    C10   S    
C3    C5    A    
C4    C26   S    
C6    C7    A    
C20   N2    A    
C12   H5    S    
C11   H11   S    
C11   C13   A    
O8    Zn2   S    
N2    Zn1   S    
C1    O4    A    
O1    Zn1   S    
C2    C25   S    
C25   O10   A    
C10   C11   A    
C15   C21   A    
C20   C21   A    
C37   C39   S    
O7    Zn1   S    
C30   H3    S    
O4    Zn2   S    
C32   O2    D    
