data_mof_unit_22686.cif
_audit_creation_date              2012-12-11T14:25:42-0500
_audit_creation_method            fapswitch 2.2
_symmetry_space_group_name_H-M    P1
_symmetry_Int_Tables_number       1
_space_group_crystal_system       triclinic
_cell_length_a                    6.96519
_cell_length_b                    14.925474
_cell_length_c                    16.14097
_cell_angle_alpha                 90.691157
_cell_angle_beta                  88.731761
_cell_angle_gamma                 90.912129
_cell_volume                      1677.25653247

loop_
_atom_site_label
_atom_site_type_symbol
_atom_type_description
_atom_site_fract_x
_atom_site_fract_y
_atom_site_fract_z
_atom_type_partial_charge
O1    O     O_R   0.494490 0.416160 0.413410 -0.548535
O2    O     O_R   0.823830 0.407240 0.585990 -0.512160
O3    O     O_R   0.994160 0.583840 0.586590 -0.534291
C1    C     C_R   0.650341 0.381319 0.610383 0.732381
O4    O     O_R   0.824200 0.405280 0.414020 -0.543005
O5    O     O_R   0.994530 0.581860 0.413390 -0.535730
C2    C     C_R   0.656119 0.384634 0.385224 0.738233
O6    O     O_R   0.494110 0.418140 0.586610 -0.518920
O7    O     O_3   0.660810 0.557940 0.500000 -0.385291
V1    V     V_3+5 0.935650 0.489250 0.500000 1.558281
O8    O     O_R   0.324250 0.592760 0.414010 -0.556804
C3    C     C_R   0.158408 0.607867 0.380908 0.701016
O9    O     O_R   0.323880 0.594720 0.585980 -0.535132
C4    C     C_R   0.154930 0.616187 0.615002 0.761765
V2    V     V_3+5 0.435660 0.510750 0.500000 1.543393
O10   O     O_3   0.160630 0.442060 0.500000 -0.369147
C5    C     C_3   0.082367 0.640678 0.772211 -0.218699
C6    C     C_3   0.024660 0.719648 0.834400 0.156157
H1    H     H_    0.865961 0.728189 0.833620 0.146070
H2    H     H_    0.851782 0.730216 0.659350 0.176905
C7    C     C_3   0.999129 0.759302 0.662158 -0.312237
C8    C     C_3   0.340974 0.735657 0.697806 0.178327
C9    C     C_3   0.143656 0.685265 0.685498 -0.125072
H3    H     H_    0.457754 0.687372 0.708219 0.144205
C10   C     C_3   0.113665 0.811362 0.805167 -0.080120
C11   C     C_3   0.006907 0.840168 0.724124 -0.217855
C12   C     C_3   0.325526 0.797185 0.775914 -0.302815
H4    H     H_    0.409712 0.769078 0.826965 0.203245
H5    H     H_    0.387558 0.863894 0.760765 0.192142
H6    H     H_    0.032050 0.784063 0.598533 0.195791
H7    H     H_    0.095548 0.894469 0.694862 0.158061
C13   C     C_2   0.004127 0.702146 0.272290 -0.126664
C14   C     C_2   0.160038 0.658454 0.300891 -0.200997
C15   C     C_2   0.008831 0.752298 0.192654 0.298664
C16   C     C_2   0.110715 0.829474 0.186231 0.245941
C17   C     C_2   0.732236 0.168031 0.746458 0.295984
C18   C     C_2   0.642661 0.183488 0.821368 0.187044
C19   C     C_2   0.754132 0.239514 0.679450 -0.088640
C20   C     C_2   0.620599 0.304282 0.669053 -0.268057
C21   C     C_2   0.768904 0.193956 0.225701 0.349379
C22   C     C_2   0.607553 0.173945 0.182386 0.158744
C23   C     C_2   0.768173 0.256132 0.300098 -0.165882
C24   C     C_2   0.646632 0.324591 0.312450 -0.250303
H8    H     H_    0.878542 0.246465 0.345568 0.146105
H9    H     H_    0.539025 0.340319 0.267796 0.188446
O11   O     O_R   0.770850 0.076180 0.907410 -0.532579
O12   O     O_R   0.440600 0.088970 0.079950 -0.560889
O13   O     O_R   0.270430 0.912340 0.080550 -0.542109
C25   C     C_R   0.608025 0.109878 0.109701 0.659810
O14   O     O_R   0.441120 0.087010 0.907980 -0.555408
O15   O     O_R   0.270950 0.910370 0.907350 -0.540123
C26   C     C_R   0.614331 0.109254 0.881151 0.707814
O16   O     O_R   0.770320 0.078150 0.080620 -0.519225
O17   O     O_3   0.604200 0.936340 0.994000 -0.350382
V3    V     V_3+5 0.329300 0.004970 0.993950 1.519174
O18   O     O_R   0.941240 0.899420 0.907920 -0.507064
C27   C     C_R   0.108862 0.881211 0.875969 0.784016
O19   O     O_R   0.940720 0.901380 0.079890 -0.522065
C28   C     C_R   0.107032 0.883159 0.109887 0.724136
V4    V     V_3+5 0.829310 0.983370 0.993880 1.620151
O20   O     O_3   0.104280 0.052120 0.993920 -0.385330
C29   C     C_2   0.909655 0.575940 0.765142 0.716090
O21   O     O_2   0.756430 0.602410 0.740321 -0.583539
O22   O     O_R   0.923852 0.486235 0.788587 -0.619092
H10   H     H_    0.799261 0.451143 0.781710 0.326688
C30   C     C_2   0.812344 0.686735 0.308926 0.827480
O23   O     O_2   0.723534 0.748112 0.341703 -0.514951
O24   O     O_R   0.733863 0.600367 0.304190 -0.671411
H11   H     H_    0.616641 0.592869 0.340902 0.311767
C31   C     C_2   0.327294 0.643353 0.244075 0.801062
O25   O     O_2   0.419869 0.706267 0.215175 -0.510682
O26   O     O_R   0.375643 0.555402 0.222513 -0.673606
H12   H     H_    0.487906 0.552531 0.181540 0.307828
O27   O     O_3   0.902105 0.722126 0.126317 -0.634243
H13   H     H_    0.843187 0.663360 0.140955 0.307929
O28   O     O_3   0.214970 0.859966 0.253268 -0.614253
H14   H     H_    0.274217 0.918851 0.239207 0.301495
O29   O     O_3   0.805665 0.083229 0.733657 -0.663358
H15   H     H_    0.872266 0.079345 0.679262 0.324408
O30   O     O_3   0.601996 0.270029 0.846866 -0.653572
H16   H     H_    0.543930 0.267806 0.903488 0.281299
C32   C     C_2   0.899079 0.226354 0.611618 0.744163
O31   O     O_2   0.864858 0.173154 0.555435 -0.552269
O32   O     O_R   0.067642 0.277800 0.609067 -0.622735
H17   H     H_    0.151610 0.263634 0.558620 0.300430
C33   C     C_2   0.252928 0.585715 0.802361 0.842443
O33   O     O_2   0.314194 0.524970 0.758415 -0.511333
O34   O     O_R   0.346090 0.605599 0.876418 -0.628163
H18   H     H_    0.458077 0.564770 0.886328 0.314358
C34   C     C_2   0.421171 0.288868 0.702601 0.919882
O35   O     O_2   0.326126 0.351753 0.728199 -0.475336
O36   O     O_R   0.343039 0.201839 0.705437 -0.667439
H19   H     H_    0.213710 0.198959 0.735463 0.303253
O37   O     O_3   0.938276 0.151853 0.203623 -0.651163
H20   H     H_    0.039291 0.171552 0.242385 0.301433
O38   O     O_3   0.433862 0.206882 0.211645 -0.666817
H21   H     H_    0.337677 0.202419 0.167566 0.305749
O39   O     O_3   0.070324 0.702480 0.917084 -0.605269
H22   H     H_    0.982517 0.653514 0.936207 0.319816
C35   C     C_2   0.808165 0.878785 0.731103 0.776290
O40   O     O_2   0.714270 0.876739 0.795532 -0.566460
O41   O     O_R   0.729109 0.914507 0.659987 -0.629514
H23   H     H_    0.597517 0.940814 0.670595 0.333279
O42   O     O_3   0.390299 0.787881 0.628066 -0.628509
H24   H     H_    0.480280 0.752774 0.592455 0.316718

loop_
_geom_bond_atom_site_label_1
_geom_bond_atom_site_label_2
_ccdc_geom_bond_type
O13   V3    S    
C30   O24   S    
C7    C11   S    
C12   H5    S    
C1    O6    A    
O12   C25   A    
O17   V4    S    
C5    C9    S    
C10   C27   S    
O12   V3    S    
C17   C18   D    
C15   C16   D    
O5    C3    A    
C19   C20   D    
C33   O34   S    
C22   O38   S    
O19   V4    S    
V2    O10   S    
O11   C26   A    
C8    O42   S    
O18   C27   A    
C16   C28   S    
C6    H1    S    
C35   O40   D    
C29   O22   S    
O8    V2    S    
O24   H11   S    
O14   C26   A    
C31   O25   D    
O15   C27   A    
C2    C24   S    
O7    V1    S    
C20   C34   S    
C21   C23   S    
C30   O23   D    
C11   H7    S    
O1    C2    A    
O9    C4    A    
C19   C32   S    
O37   H20   S    
C6    C10   S    
C23   H8    S    
C22   C25   S    
O42   H24   S    
O16   V4    S    
C18   O30   S    
C16   O28   S    
O27   H13   S    
C5    C33   S    
O32   H17   S    
O4    C2    A    
C18   C26   S    
O29   H15   S    
O26   H12   S    
O19   C28   A    
O18   V4    S    
V4    O20   S    
C13   C15   S    
C4    C9    S    
O2    C1    A    
C29   O21   D    
C5    C29   S    
C34   O36   S    
C1    C20   S    
O38   H21   S    
H2    C7    S    
C35   O41   S    
C5    C6    S    
O28   H14   S    
C24   H9    S    
O3    C4    A    
C14   C31   S    
C15   O27   S    
O1    V2    S    
C21   C22   D    
O39   H22   S    
O6    V2    S    
C32   O32   S    
C8    C12   S    
C7    C9    S    
C8    H3    S    
C23   C24   D    
O2    V1    S    
O13   C28   A    
C13   C30   S    
O17   V3    S    
O11   V4    S    
C33   O33   D    
C21   O37   S    
O30   H16   S    
O5    V1    S    
C31   O26   S    
O8    C3    A    
C10   C12   S    
C7    H6    S    
O14   V3    S    
C13   C14   D    
O9    V2    S    
C10   C11   S    
O4    V1    S    
O3    V1    S    
V1    O10   S    
O22   H10   S    
C34   O35   D    
C25   O16   A    
V3    O20   S    
C17   C19   S    
O36   H19   S    
O15   V3    S    
O7    V2    S    
O41   H23   S    
O34   H18   S    
C32   O31   D    
C12   H4    S    
C8    C9    S    
C17   O29   S    
C6    O39   S    
C3    C14   S    
C11   C35   S    
