data_mof_unit_13343.cif
_audit_creation_date              2012-12-11T16:53:43-0500
_audit_creation_method            fapswitch 2.2
_symmetry_space_group_name_H-M    P1
_symmetry_Int_Tables_number       1
_space_group_crystal_system       triclinic
_cell_length_a                    14.891118
_cell_length_b                    14.866263
_cell_length_c                    17.064245
_cell_angle_alpha                 109.25321
_cell_angle_beta                  106.149288
_cell_angle_gamma                 108.415005
_cell_volume                      3060.0214926

loop_
_atom_site_label
_atom_site_type_symbol
_atom_type_description
_atom_site_fract_x
_atom_site_fract_y
_atom_site_fract_z
_atom_type_partial_charge
C1    C     C_R   0.085349 0.289318 0.082444 0.043881
C2    C     C_R   0.026040 0.579595 0.745643 0.068076
C3    C     C_R   0.762964 0.195397 0.726187 0.092634
C4    C     C_R   0.279179 0.451944 0.955238 0.075137
C5    C     C_R   0.272541 0.688197 0.253168 -0.118216
C6    C     C_R   0.702999 0.493629 0.912603 0.070968
C7    C     C_R   0.890526 0.457076 0.189350 0.021169
C8    C     C_R   0.079844 0.807030 0.019865 0.199305
C9    C     C_R   0.908377 0.721450 0.945687 -0.185175
C10   C     C_R   0.064574 0.544621 0.265313 -0.154136
C11   C     C_R   0.282287 0.783592 0.177534 -0.164394
C12   C     C_R   0.934944 0.519445 0.747535 -0.120967
C13   C     C_R   0.694241 0.405164 0.997112 -0.300844
C14   C     C_R   0.336528 0.780710 0.256451 0.059022
C15   C     C_R   0.638106 0.436316 0.940553 0.118589
C16   C     C_R   0.972503 0.529412 0.276871 0.076360
C17   C     C_R   0.992143 0.821618 0.985774 0.020531
C18   C     C_R   0.387777 0.457015 0.866986 0.116705
C19   C     C_R   0.340409 0.410372 0.913663 0.028124
C20   C     C_R   0.371492 0.338493 0.936048 -0.201706
C21   C     C_R   0.464673 0.336936 0.934795 -0.181636
C22   C     C_R   0.526667 0.407217 0.911225 0.036098
C23   C     C_R   0.779587 0.202049 0.812883 -0.132288
C24   C     C_R   0.481569 0.458416 0.869273 0.080348
C25   C     C_3   0.524319 0.568848 0.877552 -0.182798
C26   C     C_3   0.420065 0.566236 0.871368 -0.274269
C27   C     C_R   0.965193 0.577111 0.365098 0.063517
C28   C     C_R   0.033583 0.621716 0.680014 0.126976
C29   C     C_R   0.138870 0.704678 0.614915 -0.221217
C30   C     C_R   0.131259 0.685761 0.687878 -0.180238
C31   C     C_R   0.942807 0.589984 0.603997 -0.260429
C32   C     C_R   0.950152 0.603727 0.529166 0.174859
C33   C     C_R   0.049287 0.655144 0.531618 0.105752
C34   C     C_R   0.249604 0.526647 0.942345 -0.149302
C35   C     C_R   0.055904 0.647629 0.449121 0.081064
C36   C     C_R   0.867029 0.545902 0.367787 -0.195816
C37   C     C_R   0.859521 0.558816 0.449283 -0.237623
C38   C     C_R   0.722935 0.097225 0.640415 0.049248
C39   C     C_R   0.446027 0.851658 0.323869 0.122941
C40   C     C_R   0.603806 0.016510 0.390458 -0.207358
C41   C     C_R   0.508779 0.938655 0.316765 -0.173793
C42   C     C_R   0.485610 0.836921 0.400754 -0.255231
C43   C     C_R   0.577680 0.916472 0.476737 0.128709
C44   C     C_R   0.634296 0.011140 0.474058 0.079105
C45   C     C_R   0.782019 0.297098 0.735267 -0.124182
C46   C     C_R   0.713188 0.100369 0.556664 0.085729
C47   C     C_R   0.679216 0.998407 0.639906 -0.255809
C48   C     C_R   0.608188 0.906885 0.558158 0.011553
C49   C     C_R   0.070291 0.116580 0.156375 0.172936
C50   C     C_R   0.987208 0.113715 0.089775 0.021922
C51   C     C_R   0.887818 0.026661 0.057461 -0.204315
C52   C     C_R   0.875034 0.951963 0.093099 -0.190828
C53   C     C_R   0.960686 0.959823 0.160936 0.010867
C54   C     C_R   0.056519 0.043339 0.189253 0.177467
C55   C     C_3   0.167531 0.090462 0.253667 -0.518213
C56   C     C_R   0.248143 0.432827 0.020542 -0.134746
C57   C     C_3   0.185565 0.173728 0.217925 -0.498899
C58   C     C_R   0.107894 0.602669 0.823494 -0.158074
C59   C     C_R   0.913836 0.202761 0.001089 -0.172235
C60   C     C_R   0.997782 0.194400 0.054067 0.051687
H1    H     H_    0.827666 0.701146 0.907487 0.125027
H2    H     H_    0.144134 0.588182 0.316268 0.124743
H3    H     H_    0.317575 0.833587 0.150575 0.109265
H4    H     H_    0.770074 0.411940 0.018309 0.217315
H5    H     H_    0.332315 0.293922 0.965476 0.129473
H6    H     H_    0.493652 0.290637 0.962528 0.140826
H7    H     H_    0.855934 0.500520 0.705603 0.076684
H8    H     H_    0.540802 0.573194 0.818875 0.160929
H9    H     H_    0.426175 0.629727 0.932816 0.142799
H10   H     H_    0.794692 0.506735 0.307557 0.141438
H11   H     H_    0.216046 0.750995 0.622746 0.131176
H12   H     H_    0.782780 0.525492 0.448179 0.130591
H13   H     H_    0.202793 0.716865 0.747909 0.112896
H14   H     H_    0.866205 0.545174 0.598195 0.111403
H15   H     H_    0.772667 0.139042 0.832248 0.096746
H16   H     H_    0.693238 0.992664 0.703229 0.127148
H17   H     H_    0.647912 0.083799 0.382868 0.129260
H18   H     H_    0.482908 0.949846 0.256437 0.113237
H19   H     H_    0.439916 0.768612 0.406086 0.125427
H20   H     H_    0.818915 0.014929 0.004579 0.124126
H21   H     H_    0.798306 0.887552 0.067566 0.128842
H22   H     H_    0.179562 0.123514 0.326485 0.198630
H23   H     H_    0.204302 0.037406 0.234743 0.190482
H24   H     H_    0.210939 0.254336 0.272807 0.194779
H25   H     H_    0.254980 0.556116 0.893880 0.104036
H26   H     H_    0.233784 0.169310 0.178691 0.202140
H27   H     H_    0.773407 0.323093 0.682990 0.110837
H28   H     H_    0.256288 0.376230 0.044858 0.100486
H29   H     H_    0.188660 0.658619 0.849651 0.088779
H30   H     H_    0.832287 0.154952 0.981721 0.096153
H31   H     H_    0.294386 0.649373 0.293322 0.077270
N1    N     N_R   0.055640 0.348550 0.045600 -0.052164
N2    N     N_R   0.798340 0.505430 0.954400 -0.060550
N3    N     N_R   0.931580 0.439470 0.128350 -0.063632
N4    N     N_R   0.051950 0.704140 0.002340 -0.058059
N5    N     N_R   0.944360 0.651450 0.954400 -0.051037
N6    N     N_R   0.039170 0.492150 0.176290 -0.051609
N7    N     N_R   0.188710 0.696600 0.128350 -0.037659
N8    N     N_R   0.794820 0.447010 0.002340 -0.143755
N9    N     N_R   0.960830 0.507850 0.823710 -0.034672
N10   N     N_R   0.811290 0.303400 0.871650 -0.042728
N11   N     N_R   0.205180 0.552990 0.997660 -0.038868
N12   N     N_R   0.814810 0.361830 0.823710 -0.047649
N13   N     N_R   0.201660 0.494570 0.045600 -0.041557
N14   N     N_R   0.068420 0.560530 0.871650 -0.032208
N15   N     N_R   0.948050 0.295860 0.997660 -0.043187
N16   N     N_R   0.185190 0.638170 0.176290 -0.036388
Ni1   Ni    Ni4+2 0.119330 0.493420 0.109950 0.198258
Ni2   Ni    Ni4+2 0.880670 0.506580 0.890050 0.196611
Ni3   Ni    Ni4+2 0.872590 0.372590 0.000000 0.190780
Ni4   Ni    Ni4+2 0.127410 0.627410 0.000000 0.208330
N17   N     N_3   0.176512 0.338197 0.166667 -0.226584
H32   H     H_    0.153921 0.363809 0.219487 0.098396
H33   H     H_    0.230704 0.407863 0.172807 0.094294
N18   N     N_3   0.668447 0.495615 0.826177 -0.230490
H34   H     H_    0.616416 0.417439 0.775579 0.094041
H35   H     H_    0.731784 0.517544 0.809602 0.095862
N19   N     N_3   0.788059 0.385990 0.171438 -0.226424
H36   H     H_    0.760901 0.314502 0.112962 0.107719
H37   H     H_    0.738352 0.420363 0.157354 0.109612
N20   N     N_2   0.182865 0.885660 0.051567 -0.111239
H38   H     H_    0.226806 0.919092 0.121047 0.151655
C61   C     C_3   0.236985 0.860336 0.995665 -0.960312
H39   H     H_    0.313212 0.930511 0.022786 0.246802
H40   H     H_    0.189999 0.840616 0.923809 0.263597
H41   H     H_    0.251951 0.792324 0.997187 0.242017
N21   N     N_3   0.611346 0.648222 0.967124 -0.205145
H42   H     H_    0.591476 0.642382 0.020092 0.128353
H43   H     H_    0.623734 0.723779 0.972796 0.102271
N22   N     N_3   0.361166 0.561230 0.784314 -0.203936
H44   H     H_    0.281399 0.528077 0.768451 0.117092
H45   H     H_    0.383597 0.639473 0.793601 0.108300
N23   N     N_2   0.152058 0.707627 0.449706 -0.123775
H46   H     H_    0.217624 0.706441 0.489228 0.153511
C62   C     C_3   0.167672 0.811437 0.456708 -0.898977
H47   H     H_    0.175110 0.863677 0.524476 0.249370
H48   H     H_    0.101027 0.803795 0.400953 0.260578
H49   H     H_    0.240420 0.848655 0.449578 0.248652
N24   N     N_2   0.777894 0.194749 0.557254 -0.120156
H50   H     H_    0.740792 0.221446 0.516183 0.152588
C63   C     C_3   0.874948 0.198911 0.554027 -0.893167
H51   H     H_    0.923416 0.278095 0.561663 0.247315
H52   H     H_    0.858973 0.135952 0.487302 0.247128
H53   H     H_    0.919649 0.187822 0.611167 0.260308
N25   N     N_3   0.559238 0.806917 0.558874 -0.221693
H54   H     H_    0.586499 0.815443 0.625627 0.100951
H55   H     H_    0.582552 0.754480 0.522005 0.103738

loop_
_geom_bond_atom_site_label_1
_geom_bond_atom_site_label_2
_ccdc_geom_bond_type
C62   H49   S    
C59   C60   A    
C21   H6    S    
C3    C23   A    
N4    N5    A    
C18   C26   S    
C2    C12   A    
C35   N23   S    
N17   H33   S    
N25   H54   S    
C62   H47   S    
C39   C41   A    
C53   C54   A    
C8    N4    A    
N9    N14   A    
C34   N11   A    
C11   N7    A    
C18   C24   A    
C36   C37   A    
C45   H27   S    
C47   H16   S    
C11   H3    S    
C63   H52   S    
C1    N17   S    
N15   Ni3   S    
C11   C14   A    
C8    N20   S    
C61   H40   S    
C49   C54   A    
C29   C33   A    
C49   C57   S    
C57   H26   S    
C18   C19   A    
N19   H36   S    
C45   N12   A    
C14   C39   S    
C51   H20   S    
N6    Ni1   S    
N1    Ni1   S    
C15   C22   S    
C47   C48   A    
C3    C38   S    
C44   C46   A    
N18   H35   S    
N16   Ni1   S    
C43   C48   A    
N2    N8    A    
C26   N22   S    
C16   C27   S    
N14   Ni4   S    
C42   H19   S    
N10   N12   A    
C21   C22   A    
C4    C56   A    
C4    C19   S    
C7    N19   S    
N11   Ni4   S    
C10   H2    S    
C25   H8    S    
N17   H32   S    
N25   H55   S    
C36   H10   S    
C39   C42   A    
C12   H7    S    
C4    C34   A    
C59   N15   A    
N20   C61   S    
C51   C52   A    
C20   H5    S    
C61   H39   S    
C24   C25   S    
C56   N13   A    
C1    C60   A    
C41   H18   S    
C10   C16   A    
C30   H13   S    
C31   H14   S    
N3    N6    A    
C27   C35   A    
N10   Ni3   S    
N8    Ni3   S    
N3    Ni3   S    
N7    N16   A    
C12   N9    A    
C34   H25   S    
C13   N8    A    
C10   N6    A    
N22   H45   S    
C43   C44   A    
N21   H43   S    
C29   C30   A    
C31   C32   A    
C40   C44   A    
C6    C15   A    
C6    N2    A    
C48   N25   S    
C38   C47   A    
C50   C51   A    
N20   H38   S    
C57   H24   S    
C32   C37   A    
C55   H22   S    
N11   N13   A    
C9    N5    A    
C5    C14   A    
C5    H31   S    
N1    N15   A    
C7    C16   A    
C1    N1    A    
C55   C57   S    
N23   H46   S    
C9    H1    S    
C63   H53   S    
C42   C43   A    
C55   H23   S    
N21   H42   S    
N13   Ni1   S    
C52   C53   A    
C5    N16   A    
C9    C17   A    
C62   H48   S    
C7    N3    A    
C54   C55   S    
C40   C41   A    
N7    Ni4   S    
C28   C31   A    
C23   H15   S    
C61   H41   S    
N24   H50   S    
C2    C58   A    
C27   C36   A    
N5    Ni2   S    
C8    C17   A    
N12   Ni2   S    
C58   N14   A    
C50   C60   S    
C32   C33   A    
C19   C20   A    
C13   C15   A    
N22   H44   S    
C25   C26   S    
N4    Ni4   S    
C63   H51   S    
N24   C63   S    
C23   N10   A    
C13   H4    S    
C28   C30   A    
C33   C35   A    
C3    C45   A    
C22   C24   A    
C25   N21   S    
C52   H21   S    
C58   H29   S    
N19   H37   S    
C6    N18   S    
C38   C46   A    
C56   H28   S    
N9    Ni2   S    
C20   C21   A    
C49   C50   A    
C37   H12   S    
N23   C62   S    
C26   H9    S    
C40   H17   S    
C2    C28   S    
C59   H30   S    
N18   H34   S    
N2    Ni2   S    
C46   N24   S    
C29   H11   S    
