data_mof_unit_49059.cif
_audit_creation_date              2013-03-05T15:55:26-0500
_audit_creation_method            fapswitch 2.2
_symmetry_space_group_name_H-M    P1
_symmetry_Int_Tables_number       1
_space_group_crystal_system       triclinic
_cell_length_a                    10.965641
_cell_length_b                    12.542623
_cell_length_c                    13.456872
_cell_angle_alpha                 117.755653
_cell_angle_beta                  72.998109
_cell_angle_gamma                 101.703781
_cell_volume                      1561.42383229

loop_
_atom_site_label
_atom_site_type_symbol
_atom_site_description
_atom_site_fract_x
_atom_site_fract_y
_atom_site_fract_z
_atom_type_partial_charge
O1    O     O_R   0.537340 0.972510 0.318130 -0.527827
O2    O     O_R   0.487200 0.806530 0.359650 -0.579573
C1    C     C_R   0.510242 0.854855 0.286597 0.879345
O3    O     O_R   0.707380 0.082980 0.479220 -0.544848
O4    O     O_R   0.657240 0.917000 0.520740 -0.591919
C2    C     C_R   0.740085 0.001377 0.500595 0.858817
Cu1   Cu    Cu3+1 0.529690 0.098270 0.475420 1.058024
Cu2   Cu    Cu3+1 0.470310 0.901730 0.524580 1.046369
O5    O     O_R   0.512800 0.193470 0.640350 -0.565270
O6    O     O_R   0.462660 0.027490 0.681870 -0.561036
O7    O     O_R   0.342760 0.083000 0.479260 -0.571164
O8    O     O_R   0.292620 0.917020 0.520780 -0.538546
C3    C     C_R   0.486147 0.144692 0.712639 0.790720
C4    C     C_R   0.260391 0.001451 0.502685 0.899292
C5    C     C_3   0.971366 0.094353 0.454837 0.181561
H1    H     H_    0.974921 0.062284 0.362646 0.185036
C6    C     C_3   0.110389 0.093652 0.457974 -0.435972
H2    H     H_    0.172910 0.076786 0.371852 0.239367
H3    H     H_    0.146486 0.185790 0.512974 0.221847
C7    C     C_3   0.894573 0.038692 0.626420 -0.071227
C8    C     C_3   0.930266 0.869968 0.412990 0.215373
C9    C     C_3   0.880179 0.002507 0.499935 -0.151063
C10   C     C_3   0.123041 0.000896 0.501815 -0.166028
C11   C     C_3   0.039224 0.045888 0.627889 -0.036078
C12   C     C_3   0.072588 0.866892 0.423118 0.384633
H4    H     H_    0.844113 0.967401 0.653531 0.157140
H5    H     H_    0.046900 0.985961 0.664326 0.245783
C13   C     C_R   0.430638 0.268202 0.033934 -0.087360
H6    H     H_    0.447176 0.091150 0.896378 0.221081
H7    H     H_    0.394610 0.232289 0.096985 0.219426
C14   C     C_R   0.484080 0.227599 0.833584 -0.066321
C15   C     C_R   0.582115 0.812269 0.076599 0.319908
C16   C     C_R   0.637414 0.729891 0.966237 -0.140386
C17   C     C_R   0.624215 0.606449 0.935069 0.090765
C18   C     C_R   0.537090 0.560547 0.011040 0.027519
C19   C     C_R   0.484705 0.643901 0.125282 -0.050470
C20   C     C_R   0.502515 0.435106 0.979457 0.044756
C21   C     C_R   0.445337 0.393147 0.065283 0.017140
C22   C     C_R   0.392504 0.475989 0.176918 0.271303
C23   C     C_R   0.401509 0.597624 0.201064 -0.132231
C24   C     C_R   0.509073 0.351528 0.864710 -0.209444
C25   C     C_R   0.456109 0.186243 0.918403 -0.149711
C26   C     C_R   0.518853 0.770681 0.161668 -0.130184
H8    H     H_    0.525435 0.383415 0.799920 0.172358
H9    H     H_    0.696695 0.762733 0.904589 0.203027
H10   H     H_    0.346612 0.655507 0.282484 0.252250
C27   C     C_R   0.722663 0.343433 0.334991 0.087064
H11   H     H_    0.730540 0.161779 0.307123 0.172425
H12   H     H_    0.767285 0.532224 0.297574 0.204127
N1    N     N_R   0.574690 0.246280 0.438200 -0.209654
C28   C     C_R   0.317341 0.756669 0.644132 0.557153
C29   C     C_R   0.265706 0.653245 0.659028 -0.195844
C30   C     C_R   0.330839 0.550141 0.600161 -0.201853
C31   C     C_R   0.454720 0.548919 0.530563 0.000079
C32   C     C_R   0.496111 0.649454 0.501151 0.221092
C33   C     C_R   0.532292 0.446291 0.479296 -0.035703
C34   C     C_R   0.648184 0.444362 0.396666 0.086734
C35   C     C_R   0.685017 0.538816 0.368055 -0.261646
C36   C     C_R   0.607127 0.630610 0.406994 0.185320
C37   C     C_R   0.504109 0.344357 0.504925 0.321414
C38   C     C_R   0.678641 0.242289 0.354177 0.151368
N2    N     N_R   0.426100 0.754320 0.561190 -0.268830
H13   H     H_    0.278424 0.472284 0.609002 0.180332
H14   H     H_    0.174226 0.653220 0.718291 0.204582
N3    N     N_R   0.930761 0.218373 0.510544 0.171212
O9    O     O_R   0.941069 0.293760 0.614715 -0.344364
O10   O     O_R   0.906084 0.260934 0.447517 -0.355013
N4    N     N_R   0.073385 0.785690 0.477251 0.114155
O11   O     O_R   0.989812 0.788133 0.569493 -0.384949
O12   O     O_R   0.159004 0.708115 0.432920 -0.276847
N5    N     N_R   0.320690 0.437347 0.263916 0.121123
O13   O     O_R   0.203666 0.465907 0.315341 -0.271469
O14   O     O_R   0.374321 0.379452 0.296692 -0.381162
N6    N     N_R   0.595276 0.937904 0.101247 0.127886
O15   O     O_R   0.702934 0.985657 0.060486 -0.358288
O16   O     O_R   0.494000 0.998178 0.145548 -0.299469
N7    N     N_3   0.713370 0.534767 0.833395 -0.531488
H15   H     H_    0.735197 0.460947 0.839368 0.265788
H16   H     H_    0.677727 0.507925 0.760488 0.233644
N8    N     N_3   0.840473 0.343273 0.251756 -0.550367
H17   H     H_    0.908067 0.402041 0.297457 0.280263
H18   H     H_    0.875987 0.257834 0.207889 0.258900
N9    N     N_3   0.416034 0.345268 0.607329 -0.547316
H19   H     H_    0.324904 0.311041 0.592284 0.225922
H20   H     H_    0.418741 0.429985 0.677646 0.196587
N10   N     N_R   0.254573 0.864773 0.719258 0.133286
O17   O     O_R   0.135594 0.864451 0.720942 -0.316209
O18   O     O_R   0.292121 0.934331 0.814098 -0.376735
N11   N     N_3   0.627535 0.675588 0.324465 -0.509391
H21   H     H_    0.717430 0.718404 0.311794 0.292023
H22   H     H_    0.621277 0.603419 0.244443 0.210506
N12   N     N_3   0.833315 0.149496 0.713308 -0.497662
H23   H     H_    0.837752 0.162513 0.794834 0.235140
H24   H     H_    0.735778 0.136335 0.715388 0.199759
N13   N     N_3   0.090307 0.164893 0.704884 -0.582272
H25   H     H_    0.061969 0.235681 0.699217 0.299993
H26   H     H_    0.055920 0.177445 0.790467 0.248399
N14   N     N_3   0.844823 0.776428 0.440991 -0.580664
H27   H     H_    0.805347 0.797601 0.527592 0.257041
H28   H     H_    0.887067 0.694413 0.398872 0.279151
N15   N     N_R   0.926360 0.837703 0.291723 0.130182
O19   O     O_R   0.952143 0.729648 0.211831 -0.281550
O20   O     O_R   0.857042 0.893956 0.270172 -0.406191
N16   N     N_R   0.159239 0.818128 0.305753 0.130058
O21   O     O_R   0.156588 0.702097 0.240603 -0.275755
O22   O     O_R   0.242899 0.886733 0.266036 -0.378197

loop_
_geom_bond_atom_site_label_1
_geom_bond_atom_site_label_2
_geom_bond_distance
_ccdc_geom_bond_type
N15   O19   1.301217 A    
C14   C25   1.395737 A    
C32   C36   1.441879 A    
H6    C25   1.077193 S    
C16   H9    1.083857 S    
N13   H25   1.039000 S    
C11   H5    1.097979 S    
N16   O22   1.299623 A    
C34   C35   1.361848 A    
Cu1   Cu2   2.748502 S    
N7    H15   1.044764 S    
C23   H10   1.068004 S    
C28   N2    1.368994 A    
C1    C26   1.498092 S    
C6    C10   1.572713 S    
N6    O16   1.301512 A    
C18   C20   1.424508 A    
C17   N7    1.436918 S    
C15   N6    1.436273 S    
C21   C22   1.397663 A    
C37   N9    1.429468 S    
N10   O18   1.297689 A    
C5    H1    1.102587 S    
C2    C9    1.530875 S    
C32   N2    1.424543 A    
C33   C34   1.418821 A    
Cu1   O5    1.940869 S    
C17   C18   1.429427 A    
C36   N11   1.410211 S    
O5    C3    1.312072 A    
C5    C9    1.588768 S    
C7    C11   1.575796 S    
N4    O11   1.300878 A    
N3    O10   1.300795 A    
C10   C11   1.564717 S    
N11   H22   1.045854 S    
C8    N15   1.499121 S    
N15   O20   1.302598 A    
C8    C9    1.617760 S    
C12   N4    1.505464 S    
C27   N8    1.440917 S    
O3    Cu1   2.013701 S    
C28   N10   1.424505 S    
N16   O21   1.302625 A    
C16   C17   1.390614 A    
N7    H16   1.044928 S    
C31   C33   1.459588 A    
N6    O15   1.301436 A    
C28   C29   1.386125 A    
C19   C23   1.414763 A    
O3    C2    1.319997 A    
C29   H14   1.083766 S    
C11   N13   1.474791 S    
C22   C23   1.392406 A    
N5    O14   1.300367 A    
N10   O17   1.297455 A    
C35   C36   1.380208 A    
C30   C31   1.404920 A    
H12   C35   1.084932 S    
C33   C37   1.427270 A    
O1    C1    1.326136 A    
C18   C19   1.420076 A    
C4    C10   1.508188 S    
Cu1   O7    2.007251 S    
C20   C21   1.418720 A    
C27   C34   1.415234 A    
C7    N12   1.468242 S    
N9    H19   1.042679 S    
C13   C21   1.407614 A    
Cu2   O8    2.013700 S    
N12   H24   1.042664 S    
C6    H2    1.106231 S    
O7    C4    1.311636 A    
N8    H18   1.046034 S    
N9    H20   1.045215 S    
O8    C4    1.322104 A    
N14   H27   1.038934 S    
N14   H28   1.044398 S    
C24   H8    1.075402 S    
C29   C30   1.378293 A    
C5    C6    1.539256 S    
C8    C12   1.615370 S    
C31   C32   1.442318 A    
C14   C24   1.398066 A    
O1    Cu1   1.953307 S    
C3    C14   1.463695 S    
O2    Cu2   1.940871 S    
Cu1   N1    2.071369 S    
C7    C9    1.592654 S    
N8    H17   1.045774 S    
O6    C3    1.319316 A    
C27   C38   1.375780 A    
O4    Cu2   2.007253 S    
N13   H26   1.046233 S    
C12   N16   1.493243 S    
N1    C37   1.367327 A    
C15   C16   1.392549 A    
C13   H7    1.080103 S    
O2    C1    1.321074 A    
N5    O13   1.300072 A    
C8    N14   1.468215 S    
C30   H13   1.067071 S    
H11   C38   1.082310 S    
O4    C2    1.323602 A    
C7    H4    1.106287 S    
C13   C25   1.387732 A    
N12   H23   1.045838 S    
C6    H3    1.108633 S    
C15   C26   1.417305 A    
C10   C12   1.600027 S    
C20   C24   1.395143 A    
N1    C38   1.340523 A    
Cu2   O6    1.953307 S    
N3    O9    1.298719 A    
N4    O12   1.298657 A    
C22   N5    1.435316 S    
C19   C26   1.431439 A    
N11   H21   1.030251 S    
Cu2   N2    2.059432 S    
C5    N3    1.476347 S    
