data_mof_unit_25627.cif
_audit_creation_date              2013-03-05T15:46:46-0500
_audit_creation_method            fapswitch 2.2
_symmetry_space_group_name_H-M    P1
_symmetry_Int_Tables_number       1
_space_group_crystal_system       triclinic
_cell_length_a                    10.163176
_cell_length_b                    10.932998
_cell_length_c                    12.598587
_cell_angle_alpha                 90.397007
_cell_angle_beta                  109.365311
_cell_angle_gamma                 94.910473
_cell_volume                      1314.9028066

loop_
_atom_site_label
_atom_site_type_symbol
_atom_site_description
_atom_site_fract_x
_atom_site_fract_y
_atom_site_fract_z
_atom_type_partial_charge
O1    O     O_R   0.936910 0.692950 0.509080 -0.585107
O2    O     O_R   0.138320 0.658600 0.480130 -0.628235
C1    C     C_R   0.046966 0.731812 0.487467 0.935711
O3    O     O_R   0.002900 0.525670 0.675280 -0.555671
O4    O     O_R   0.204310 0.491320 0.646330 -0.628991
C2    C     C_R   0.138688 0.529619 0.710310 0.916270
Zn1   Zn    Zn3+2 0.865520 0.522940 0.519330 1.006857
Zn2   Zn    Zn3+2 0.134480 0.477060 0.480670 0.959902
O5    O     O_R   0.861680 0.341400 0.519870 -0.613047
O6    O     O_R   0.063090 0.307050 0.490920 -0.613010
O7    O     O_R   0.795690 0.508680 0.353670 -0.621048
O8    O     O_R   0.997100 0.474330 0.324720 -0.618960
C3    C     C_R   0.948148 0.268676 0.506037 0.960163
C4    C     C_R   0.865773 0.490474 0.287315 0.875803
C5    C     C_R   0.772322 0.437144 0.975210 0.056689
H1    H     H_    0.941205 0.390896 0.120497 0.165908
H2    H     H_    0.629689 0.506284 0.764027 0.158918
C6    C     C_R   0.792521 0.490690 0.167060 -0.111341
C7    C     C_R   0.155257 0.598791 0.905789 0.321385
C8    C     C_R   0.223562 0.580863 0.019954 -0.203220
C9    C     C_R   0.359561 0.546627 0.056366 -0.239484
C10   C     C_R   0.436989 0.544920 0.981670 0.093932
C11   C     C_R   0.368218 0.559095 0.866673 0.054698
C12   C     C_R   0.580269 0.523586 0.017523 0.025906
C13   C     C_R   0.642333 0.487901 0.938047 0.111087
C14   C     C_R   0.577748 0.514876 0.825762 -0.194298
C15   C     C_R   0.448895 0.562826 0.794193 -0.152461
C16   C     C_R   0.666572 0.545600 0.128486 -0.076874
C17   C     C_R   0.843662 0.433562 0.090634 -0.232084
C18   C     C_R   0.221594 0.568136 0.827698 -0.242555
H3    H     H_    0.404050 0.524369 0.143815 0.164696
H4    H     H_    0.172129 0.593984 0.081389 0.190136
H5    H     H_    0.412934 0.601899 0.712680 0.165158
H6    H     H_    0.074864 0.101183 0.438232 0.196108
C19   C     C_2   0.062885 0.862724 0.470433 -0.393587
C20   C     C_2   0.956868 0.933697 0.460668 0.035543
H7    H     H_    0.826152 0.105128 0.528635 0.163183
C21   C     C_2   0.913048 0.139109 0.501547 -0.345085
C22   C     C_2   0.986774 0.065099 0.463234 -0.204493
H8    H     H_    0.164475 0.903386 0.470723 0.156222
H9    H     H_    0.574702 0.417360 0.430604 0.175221
H10   H     H_    0.427965 0.600967 0.541455 0.147914
N1    N     N_2   0.313640 0.446500 0.454900 -0.134120
C23   C     C_2   0.430574 0.516765 0.496903 -0.139581
H11   H     H_    0.679663 0.623171 0.598064 0.192514
N2    N     N_2   0.686360 0.553430 0.545150 -0.185303
C24   C     C_2   0.570129 0.490365 0.487622 -0.124859
C25   C     C_1   0.815842 0.887814 0.456528 0.306332
N3    N     N_1   0.704477 0.853362 0.455481 -0.195531
C26   C     C_1   0.315287 0.337155 0.398310 0.297403
N4    N     N_1   0.316290 0.246163 0.351203 -0.248383
C27   C     C_1   0.832376 0.385935 0.897549 0.192118
N5    N     N_1   0.880448 0.344942 0.835379 -0.182428
C28   C     C_1   0.640512 0.645631 0.193063 0.210983
N6    N     N_1   0.617961 0.725785 0.242797 -0.180395
N7    N     N_R   0.025142 0.655105 0.871633 0.213025
O9    O     O_R   0.952653 0.658697 0.939326 -0.415902
O10   O     O_R   0.997150 0.727970 0.787291 -0.383732

loop_
_geom_bond_atom_site_label_1
_geom_bond_atom_site_label_2
_geom_bond_distance
_ccdc_geom_bond_type
C7    N7    1.441737 S    
Zn1   N2    2.006887 S    
O4    Zn2   1.969298 S    
N1    C23   1.305194 D    
Zn2   N1    2.006781 S    
N1    C26   1.391852 S    
C5    C17   1.395810 A    
H7    C21   1.086226 S    
C11   C15   1.413894 A    
C4    C6    1.449806 S    
C19   C20   1.354516 D    
C23   C24   1.512682 S    
C1    C19   1.452018 S    
Zn2   O8    1.995836 S    
C13   C14   1.393599 A    
C26   N4    1.157389 T    
C3    C21   1.426913 S    
C6    C17   1.402315 A    
N2    C24   1.296899 D    
C5    C27   1.445752 S    
C8    C9    1.389752 A    
Zn1   O7    1.969298 S    
C9    H3    1.081518 S    
C14   C15   1.386705 A    
C21   C22   1.336929 D    
H10   C23   1.081720 S    
O3    Zn1   1.995835 S    
H2    C14   1.082675 S    
C9    C10   1.413708 A    
C25   N3    1.157631 T    
C2    C18   1.476054 S    
N7    O10   1.301808 A    
C20   C25   1.461376 S    
O2    C1    1.301684 A    
C20   C22   1.440619 S    
H9    C24   1.084344 S    
O4    C2    1.292090 A    
O7    C4    1.289445 A    
C10   C12   1.415025 A    
C5    C13   1.411157 A    
N7    O9    1.301069 A    
C19   H8    1.087453 S    
H6    C22   1.088422 S    
C11   C18   1.418486 A    
C12   C16   1.388381 A    
O8    C4    1.288020 A    
C6    C16   1.399335 A    
C12   C13   1.417121 A    
O3    C2    1.298755 A    
C8    H4    1.082818 S    
O2    Zn2   1.981919 S    
C28   N6    1.155464 T    
Zn1   O5    1.981922 S    
O5    C3    1.286105 A    
C10   C11   1.400584 A    
C16   C28   1.451985 S    
O1    Zn1   1.957681 S    
H1    C17   1.084505 S    
H11   N2    1.030708 S    
C7    C18   1.417314 A    
Zn2   O6    1.957683 S    
C15   H5    1.074512 S    
C7    C8    1.397898 A    
C27   N5    1.157344 T    
O1    C1    1.275916 A    
O6    C3    1.281283 A    
