data_mof_unit_35934.cif
_audit_creation_date              2012-12-10T16:32:36-0500
_audit_creation_method            fapswitch 2.2
_symmetry_space_group_name_H-M    P1
_symmetry_Int_Tables_number       1
_space_group_crystal_system       triclinic
_cell_length_a                    16.915995
_cell_length_b                    16.892183
_cell_length_c                    16.904208
_cell_angle_alpha                 65.317729
_cell_angle_beta                  65.280651
_cell_angle_gamma                 65.300202
_cell_volume                      3809.79243119

loop_
_atom_site_label
_atom_site_type_symbol
_atom_type_description
_atom_site_fract_x
_atom_site_fract_y
_atom_site_fract_z
_atom_type_partial_charge
C1    C     C_R   0.590668 0.035366 0.589824 0.073882
C2    C     C_R   0.821178 0.563474 0.035653 0.895601
C3    C     C_R   0.436345 0.964774 0.178833 0.896424
C4    C     C_R   0.563655 0.035226 0.821167 0.896424
C5    C     C_R   0.563597 0.821152 0.035316 0.896412
C6    C     C_R   0.436403 0.178848 0.964684 0.896413
C7    C     C_R   0.035750 0.563414 0.821164 0.895584
C8    C     C_R   0.964250 0.436586 0.178836 0.895583
C9    C     C_R   0.821196 0.035649 0.563476 0.895563
C10   C     C_R   0.178804 0.964351 0.436524 0.895564
C11   C     C_R   0.544396 0.017125 0.543658 0.125619
C12   C     C_R   0.409331 0.964634 0.410175 0.073882
C13   C     C_R   0.455604 0.982875 0.456342 0.125619
C14   C     C_R   0.017282 0.543576 0.544341 0.127168
C15   C     C_R   0.982718 0.456424 0.455658 0.127168
C16   C     C_R   0.544404 0.543549 0.017245 0.127641
C17   C     C_R   0.455596 0.456451 0.982755 0.127641
C18   C     C_R   0.592767 0.956535 0.490378 -0.178253
C19   C     C_R   0.407233 0.043465 0.509621 -0.178253
C20   C     C_R   0.956381 0.490726 0.592761 -0.181483
C21   C     C_R   0.043619 0.509274 0.407239 -0.181484
C22   C     C_R   0.451089 0.552489 0.060492 -0.186151
C23   C     C_R   0.035637 0.589692 0.590549 0.074113
C24   C     C_R   0.548911 0.447511 0.939508 -0.186151
C25   C     C_R   0.548969 0.939804 0.447185 -0.184906
C26   C     C_R   0.451031 0.060196 0.552814 -0.184906
C27   C     C_R   0.407275 0.509397 0.043637 -0.179573
C28   C     C_R   0.592725 0.490602 0.956363 -0.179573
C29   C     C_R   0.939493 0.447594 0.549003 -0.187891
C30   C     C_R   0.060508 0.552405 0.450997 -0.187891
C31   C     C_R   0.549240 0.039536 0.679499 -0.242503
C32   C     C_R   0.450760 0.960464 0.320501 -0.242503
C33   C     C_R   0.039802 0.679377 0.549097 -0.244698
C34   C     C_R   0.964363 0.410307 0.409450 0.074113
C35   C     C_R   0.960199 0.320623 0.450903 -0.244699
C36   C     C_R   0.680022 0.548444 0.040263 -0.240062
C37   C     C_R   0.319978 0.451556 0.959738 -0.240062
C38   C     C_R   0.319987 0.959753 0.451480 -0.238856
C39   C     C_R   0.680013 0.040247 0.548519 -0.238854
C40   C     C_R   0.450840 0.320638 0.960193 -0.243289
C41   C     C_R   0.549160 0.679362 0.039807 -0.243289
C42   C     C_R   0.959478 0.451634 0.320101 -0.241025
C43   C     C_R   0.040522 0.548366 0.679899 -0.241024
C44   C     C_R   0.594377 0.055345 0.723186 -0.092582
C45   C     C_R   0.590650 0.589696 0.035528 0.073855
C46   C     C_R   0.405623 0.944654 0.276814 -0.092584
C47   C     C_R   0.055532 0.723113 0.594272 -0.092226
C48   C     C_R   0.944468 0.276887 0.405727 -0.092225
C49   C     C_R   0.723327 0.594142 0.055742 -0.091743
C50   C     C_R   0.276673 0.405858 0.944258 -0.091743
C51   C     C_R   0.276662 0.944264 0.405836 -0.092096
C52   C     C_R   0.723338 0.055737 0.594164 -0.092097
C53   C     C_R   0.405708 0.276878 0.944469 -0.092753
C54   C     C_R   0.594292 0.723122 0.055531 -0.092752
C55   C     C_R   0.944068 0.405944 0.276734 -0.091855
C56   C     C_R   0.409350 0.410304 0.964473 0.073856
C57   C     C_R   0.055931 0.594055 0.723266 -0.091854
C58   C     C_R   0.674257 0.079222 0.674280 0.047400
C59   C     C_R   0.325743 0.920778 0.325719 0.047401
C60   C     C_R   0.079346 0.674224 0.674199 0.046717
C61   C     C_R   0.920654 0.325776 0.325801 0.046717
C62   C     C_R   0.674217 0.674262 0.079283 0.047109
C63   C     C_R   0.325783 0.325737 0.920716 0.047109
C64   C     C_R   0.964681 0.178865 0.436404 0.896420
C65   C     C_R   0.035319 0.821135 0.563596 0.896420
C66   C     C_R   0.178822 0.436526 0.964347 0.895601
H1    H     H_    0.412052 0.108052 0.592379 0.131642
H2    H     H_    0.412169 0.591815 0.108559 0.129764
H3    H     H_    0.079600 0.516094 0.335735 0.131386
H4    H     H_    0.920401 0.483905 0.664265 0.131386
H5    H     H_    0.484442 0.025187 0.716623 0.164351
H6    H     H_    0.515559 0.974813 0.283376 0.164351
H7    H     H_    0.025469 0.716482 0.484278 0.163296
H8    H     H_    0.974532 0.283518 0.515722 0.163297
H9    H     H_    0.716710 0.482116 0.029201 0.160121
H10   H     H_    0.283290 0.517884 0.970799 0.160122
H11   H     H_    0.283324 0.970710 0.517820 0.160560
H12   H     H_    0.587948 0.891948 0.407621 0.131642
H13   H     H_    0.716676 0.029291 0.482179 0.160560
H14   H     H_    0.515667 0.283553 0.974445 0.164177
H15   H     H_    0.484333 0.716447 0.025555 0.164178
H16   H     H_    0.970434 0.517994 0.283454 0.159743
H17   H     H_    0.029566 0.482006 0.716546 0.159742
H18   H     H_    0.653831 0.163094 0.743359 0.166324
H19   H     H_    0.743721 0.162505 0.654437 0.166737
H20   H     H_    0.346168 0.836908 0.256639 0.166326
H21   H     H_    0.256281 0.837493 0.345564 0.166735
H22   H     H_    0.162396 0.654468 0.743764 0.168558
H23   H     H_    0.108579 0.591666 0.412023 0.130050
H24   H     H_    0.162988 0.743409 0.653848 0.168161
H25   H     H_    0.837605 0.345532 0.256235 0.168559
H26   H     H_    0.837011 0.256592 0.346153 0.168160
H27   H     H_    0.653825 0.743502 0.162987 0.167007
H28   H     H_    0.743627 0.654471 0.162497 0.167808
H29   H     H_    0.256374 0.345529 0.837502 0.167808
H30   H     H_    0.346175 0.256498 0.837014 0.167008
H31   H     H_    0.891421 0.408333 0.587977 0.130050
H32   H     H_    0.664196 0.483681 0.920355 0.131038
H33   H     H_    0.335804 0.516318 0.079645 0.131038
H34   H     H_    0.335721 0.079349 0.516740 0.133849
H35   H     H_    0.664279 0.920651 0.483259 0.133850
H36   H     H_    0.587831 0.408185 0.891441 0.129764
N1    N     N_3   0.709020 0.118430 0.709454 -0.402727
N2    N     N_3   0.290979 0.881570 0.290547 -0.402728
N3    N     N_3   0.118383 0.709485 0.709041 -0.401587
N4    N     N_3   0.881617 0.290515 0.290959 -0.401587
N5    N     N_3   0.709003 0.709500 0.118402 -0.402180
N6    N     N_3   0.290997 0.290500 0.881597 -0.402180
O1    O     O_R   0.982940 0.138950 0.510160 -0.643536
O2    O     O_R   0.982940 0.510160 0.138950 -0.644232
O3    O     O_R   0.861050 0.017060 0.489840 -0.643123
O4    O     O_R   0.138950 0.982940 0.510160 -0.643123
O5    O     O_R   0.867700 0.025880 0.612340 -0.600545
O6    O     O_R   0.132300 0.974120 0.387660 -0.600544
O7    O     O_R   0.025880 0.612340 0.867700 -0.599966
O8    O     O_R   0.974120 0.387660 0.132300 -0.599967
O9    O     O_R   0.612340 0.867700 0.025880 -0.600248
O10   O     O_R   0.387660 0.132300 0.974120 -0.600249
O11   O     O_R   0.387660 0.974120 0.132300 -0.600377
O12   O     O_R   0.017060 0.861050 0.489840 -0.643535
O13   O     O_R   0.612340 0.025880 0.867700 -0.600376
O14   O     O_R   0.132300 0.387660 0.974120 -0.600120
O15   O     O_R   0.867700 0.612340 0.025880 -0.600120
O16   O     O_R   0.974120 0.132300 0.387660 -0.599778
O17   O     O_R   0.025880 0.867700 0.612340 -0.599779
O18   O     O_R   0.138950 0.510160 0.982940 -0.644092
O19   O     O_R   0.861050 0.489840 0.017060 -0.644092
O20   O     O_R   0.510160 0.982940 0.138950 -0.642374
O21   O     O_R   0.489840 0.017060 0.861050 -0.642375
O22   O     O_R   0.489840 0.861050 0.017060 -0.642472
O23   O     O_R   0.510160 0.138950 0.982940 -0.642471
O24   O     O_R   0.017060 0.489840 0.861050 -0.644232
Zn1   Zn    Zn3+2 0.004880 0.004880 0.583590 0.961686
Zn2   Zn    Zn3+2 0.995120 0.995120 0.416410 0.961687
Zn3   Zn    Zn3+2 0.004880 0.583590 0.004880 0.960355
Zn4   Zn    Zn3+2 0.995120 0.416410 0.995120 0.960355
Zn5   Zn    Zn3+2 0.583590 0.004880 0.004880 0.963176
Zn6   Zn    Zn3+2 0.416410 0.995120 0.995120 0.963175

loop_
_geom_bond_atom_site_label_1
_geom_bond_atom_site_label_2
_ccdc_geom_bond_type
C16   C28   A    
C35   H8    S    
C9    O3    A    
C37   C50   A    
C46   C59   A    
C43   H17   S    
C5    O9    A    
C42   H16   S    
O4    Zn1   S    
H20   N2    S    
C48   C61   A    
C11   C18   A    
C2    O15   A    
C18   C25   A    
C27   H33   S    
C26   H1    S    
C36   H9    S    
C48   C64   S    
C35   C48   A    
O13   Zn5   S    
C1    C31   A    
C23   C43   A    
C65   O17   A    
C34   C35   A    
C7    O7    A    
C19   C26   A    
C47   C60   A    
C22   H2    S    
C37   C56   A    
O21   Zn6   S    
C44   C58   A    
C40   C56   A    
C34   C42   A    
C66   O14   A    
C10   O4    A    
C15   C34   S    
O12   Zn2   S    
H19   N1    S    
C2    O19   A    
C31   H5    S    
C39   C52   A    
H30   N6    S    
O5    Zn1   S    
C12   C32   A    
C50   C63   A    
H25   N4    S    
C20   H4    S    
O2    Zn3   S    
C9    C52   S    
C14   C30   A    
C30   H23   S    
C10   C51   S    
C8    C55   S    
C15   C29   A    
C20   C29   A    
C52   C58   A    
H28   N5    S    
C17   C24   A    
C31   C44   A    
C13   C19   A    
O1    Zn1   S    
C25   H12   S    
C17   C27   A    
C14   C20   A    
C5    C54   S    
O19   Zn4   S    
C58   N1    S    
C32   H6    S    
C1    C39   A    
C3    O20   A    
C57   C60   A    
C62   N5    S    
C4    C44   S    
C11   C26   A    
C23   C33   A    
C64   O16   A    
C66   O18   A    
O15   Zn3   S    
C18   H35   S    
C39   H13   S    
C14   C23   S    
O20   Zn5   S    
O23   Zn5   S    
C2    C49   S    
C8    O2    A    
C42   C55   A    
O24   Zn4   S    
C41   H15   S    
C40   H14   S    
O6    Zn2   S    
C43   C57   A    
C36   C45   A    
C61   N4    S    
C50   C66   S    
C17   C56   S    
O14   Zn4   S    
C7    O24   A    
C60   N3    S    
C3    O11   A    
O8    Zn4   S    
H26   N4    S    
C5    O22   A    
C37   H10   S    
O18   Zn3   S    
C22   C27   A    
C33   C47   A    
C51   C59   A    
C59   N2    S    
C6    C53   S    
O22   Zn6   S    
C33   H7    S    
C16   C22   A    
C49   C62   A    
O11   Zn6   S    
C32   C46   A    
O9    Zn5   S    
C24   C28   A    
H24   N3    S    
C6    O23   A    
C13   C25   A    
C10   O6    A    
C16   C45   S    
C28   H32   S    
C19   H34   S    
O3    Zn2   S    
C4    O21   A    
C38   C51   A    
C38   H11   S    
C29   H31   S    
C54   C62   A    
C21   C30   A    
C3    C46   S    
O17   Zn1   S    
O16   Zn2   S    
C9    O5    A    
H27   N5    S    
H22   N3    S    
C53   C63   A    
C64   O1    A    
O7    Zn3   S    
C55   C61   A    
C65   O12   A    
C7    C57   S    
C4    O13   A    
C24   H36   S    
C12   C38   A    
C41   C54   A    
H29   N6    S    
C8    O8    A    
H21   N2    S    
C15   C21   A    
C12   C13   S    
C40   C53   A    
C21   H3    S    
H18   N1    S    
C41   C45   A    
C1    C11   S    
C63   N6    S    
O10   Zn6   S    
C47   C65   S    
C36   C49   A    
C6    O10   A    
