data_mof_unit_33049.cif
_audit_creation_date              2012-12-11T16:11:51-0500
_audit_creation_method            fapswitch 2.2
_symmetry_space_group_name_H-M    P1
_symmetry_Int_Tables_number       1
_space_group_crystal_system       triclinic
_cell_length_a                    6.95539
_cell_length_b                    14.491361
_cell_length_c                    15.649435
_cell_angle_alpha                 90.00728
_cell_angle_beta                  90.041395
_cell_angle_gamma                 90.119658
_cell_volume                      1577.35069196

loop_
_atom_site_label
_atom_site_type_symbol
_atom_type_description
_atom_site_fract_x
_atom_site_fract_y
_atom_site_fract_z
_atom_type_partial_charge
O1    O     O_R   0.638960 0.835150 0.161940 -0.539493
O2    O     O_R   0.361040 0.164850 0.838060 -0.539492
O3    O     O_R   0.309170 0.846340 0.337470 -0.549742
O4    O     O_R   0.690830 0.153660 0.662530 -0.549742
O5    O     O_R   0.138810 0.664830 0.338070 -0.538797
O6    O     O_R   0.861190 0.335170 0.661930 -0.538797
C1    C     C_R   0.478097 0.868443 0.366436 0.697370
C2    C     C_R   0.521903 0.131557 0.633564 0.697369
O7    O     O_R   0.309250 0.846350 0.162570 -0.535990
O8    O     O_R   0.690750 0.153650 0.837430 -0.535989
O9    O     O_R   0.138880 0.664840 0.161920 -0.526627
O10   O     O_R   0.861120 0.335160 0.838080 -0.526627
C3    C     C_R   0.478423 0.868578 0.133465 0.705392
C4    C     C_R   0.521577 0.131422 0.866535 0.705391
O11   O     O_R   0.638880 0.835150 0.338090 -0.541093
O12   O     O_R   0.361120 0.164850 0.661910 -0.541093
O13   O     O_3   0.472380 0.690440 0.250000 -0.372223
O14   O     O_3   0.527620 0.309560 0.750000 -0.372223
V1    V     V_3+5 0.197550 0.761040 0.250010 1.426899
V2    V     V_3+5 0.802450 0.238960 0.749990 1.426899
O15   O     O_R   0.809160 0.653640 0.162540 -0.546779
O16   O     O_R   0.190840 0.346360 0.837460 -0.546780
C5    C     C_R   0.977835 0.631428 0.133632 0.749523
C6    C     C_R   0.022165 0.368572 0.866368 0.749524
O17   O     O_R   0.809090 0.653640 0.337440 -0.553445
O18   O     O_R   0.190910 0.346360 0.662560 -0.553445
C7    C     C_R   0.977824 0.634378 0.368532 0.725476
C8    C     C_R   0.022176 0.365621 0.631468 0.725476
V3    V     V_3+5 0.697540 0.738950 0.250000 1.403466
V4    V     V_3+5 0.302460 0.261050 0.750000 1.403466
O19   O     O_3   0.972580 0.809550 0.250010 -0.375899
O20   O     O_3   0.027420 0.190450 0.749990 -0.375899
C9    C     C_3   0.177239 0.539735 0.489650 -0.293164
C10   C     C_3   0.822761 0.460265 0.510350 -0.293165
C11   C     C_3   0.056359 0.537572 0.572846 0.301654
C12   C     C_3   0.943640 0.462428 0.427154 0.301654
H1    H     H_    0.320779 0.572128 0.481682 0.142131
H2    H     H_    0.679221 0.427872 0.518318 0.142131
C13   C     C_3   0.009997 0.434637 0.560373 -0.203660
C14   C     C_3   0.990003 0.565363 0.439626 -0.203660
C15   C     C_3   0.126487 0.436661 0.476529 0.310148
C16   C     C_3   0.873513 0.563339 0.523470 0.310149
C17   C     C_3   0.922765 0.421837 0.024503 0.404225
C18   C     C_3   0.077235 0.578163 0.975497 0.404226
C19   C     C_3   0.095534 0.467807 0.069333 -0.239770
C20   C     C_3   0.904466 0.532192 0.930667 -0.239772
H3    H     H_    0.170198 0.440469 0.126696 0.130678
H4    H     H_    0.829801 0.559531 0.873304 0.130678
C21   C     C_3   0.987648 0.561003 0.063420 -0.078686
C22   C     C_3   0.012352 0.438997 0.936579 -0.078685
C23   C     C_3   0.812732 0.513868 0.019982 -0.223185
C24   C     C_3   0.187268 0.486132 0.980018 -0.223183
H5    H     H_    0.659471 0.523550 0.037496 0.134955
H6    H     H_    0.340529 0.476450 0.962504 0.134955
C25   C     C_3   0.666967 0.999044 0.455902 -0.214155
C26   C     C_3   0.333033 0.000956 0.544098 -0.214155
C27   C     C_3   0.534390 0.084825 0.466580 -0.206393
C28   C     C_3   0.465610 0.915175 0.533420 -0.206393
H7    H     H_    0.559966 0.154392 0.439086 0.113986
H8    H     H_    0.440034 0.845608 0.560914 0.113986
H9    H     H_    0.802476 0.995233 0.419413 0.134528
H10   H     H_    0.197524 0.004767 0.580587 0.134528
C29   C     C_3   0.511273 0.061865 0.562763 -0.106434
C30   C     C_3   0.488727 0.938135 0.437237 -0.106434
C31   C     C_3   0.640595 0.977417 0.551497 0.376559
C32   C     C_3   0.359405 0.022583 0.448503 0.376559
C33   C     C_3   0.678113 0.972639 0.020920 -0.113185
C34   C     C_3   0.321887 0.027361 0.979080 -0.113185
C35   C     C_3   0.584587 0.961578 0.931599 -0.143158
C36   C     C_3   0.415413 0.038422 0.068401 -0.143158
H11   H     H_    0.654471 0.930307 0.874824 0.119111
H12   H     H_    0.345529 0.069693 0.125176 0.119111
H13   H     H_    0.825429 0.949981 0.038351 0.120135
H14   H     H_    0.174570 0.050019 0.961649 0.120135
C37   C     C_3   0.510017 0.061282 0.937380 -0.013896
C38   C     C_3   0.489983 0.938718 0.062620 -0.013896
C39   C     C_3   0.603453 0.073149 0.025917 -0.141596
C40   C     C_3   0.396547 0.926851 0.974082 -0.141596
H15   H     H_    0.689095 0.133816 0.046856 0.138944
H16   H     H_    0.310905 0.866184 0.953144 0.138944
N1    N     N_2   0.117681 0.573634 0.654790 -0.527380
H17   H     H_    0.232198 0.538292 0.680576 0.248796
C41   C     C_3   0.136751 0.672591 0.660132 -0.568765
H18   H     H_    0.215916 0.691548 0.719262 0.182388
H19   H     H_    0.992418 0.703938 0.664051 0.238971
H20   H     H_    0.215526 0.700285 0.603918 0.192607
N2    N     N_2   0.882319 0.426366 0.345210 -0.527380
H21   H     H_    0.767802 0.461708 0.319424 0.248796
C42   C     C_3   0.863249 0.327409 0.339867 -0.568763
H22   H     H_    0.784084 0.308452 0.280738 0.182389
H23   H     H_    0.784474 0.299715 0.396082 0.192606
H24   H     H_    0.007581 0.296062 0.335949 0.238971
N3    N     N_2   0.261991 0.366410 0.451081 -0.535544
H25   H     H_    0.349242 0.344694 0.500356 0.247354
C43   C     C_3   0.367723 0.387061 0.373983 -0.570941
H26   H     H_    0.447978 0.324863 0.353535 0.196572
H27   H     H_    0.469779 0.444526 0.385947 0.196799
H28   H     H_    0.269209 0.407033 0.321356 0.230060
N4    N     N_2   0.738008 0.633590 0.548919 -0.535544
H29   H     H_    0.650758 0.655306 0.499643 0.247354
C44   C     C_3   0.632277 0.612939 0.626017 -0.570941
H30   H     H_    0.552022 0.675137 0.646465 0.196572
H31   H     H_    0.730791 0.592967 0.678644 0.230060
H32   H     H_    0.530221 0.555474 0.614053 0.196799
O21   O     O_3   0.841140 0.337745 0.049196 -0.657777
H33   H     H_    0.795060 0.347510 0.108428 0.276342
O22   O     O_3   0.158860 0.662255 0.950804 -0.657777
H34   H     H_    0.204933 0.652491 0.891571 0.276342
N5    N     N_2   0.795705 0.954231 0.608892 -0.523954
H35   H     H_    0.882339 0.009800 0.623155 0.257731
C45   C     C_3   0.902925 0.873246 0.584727 -0.589357
H36   H     H_    0.018215 0.861204 0.632410 0.196579
H37   H     H_    0.970475 0.882855 0.521003 0.194618
H38   H     H_    0.806353 0.812361 0.582901 0.237089
N6    N     N_2   0.204294 0.045769 0.391108 -0.523954
H39   H     H_    0.117660 0.990200 0.376845 0.257731
C46   C     C_3   0.097075 0.126753 0.415273 -0.589356
H40   H     H_    0.981785 0.138796 0.367590 0.196579
H41   H     H_    0.193646 0.187639 0.417099 0.237089
H42   H     H_    0.029525 0.117145 0.478997 0.194617

loop_
_geom_bond_atom_site_label_1
_geom_bond_atom_site_label_2
_ccdc_geom_bond_type
C18   C21   S    
N2    H21   S    
C29   C31   S    
C44   H30   S    
O6    C8    A    
O13   V3    S    
C34   H14   S    
C43   H26   S    
C33   C39   S    
C27   C32   S    
O4    C2    A    
V1    O19   S    
N1    H17   S    
C35   C40   S    
C43   H28   S    
C13   C15   S    
C34   C37   S    
O9    V1    S    
N3    H25   S    
C38   C40   S    
O3    C1    A    
N5    C45   S    
C9    C11   S    
C40   H16   S    
C5    C21   S    
C28   H8    S    
N6    H39   S    
O17   V3    S    
C17   O21   S    
C35   H11   S    
C11   C16   S    
O7    C3    A    
N1    C41   S    
O5    C7    A    
O15   C5    A    
O7    V1    S    
C15   N3    S    
C41   H18   S    
O8    V2    S    
C21   C23   S    
C10   C16   S    
C22   C24   S    
O22   H34   S    
O3    V1    S    
O14   V4    S    
C42   H23   S    
O14   V2    S    
C26   H10   S    
C18   C24   S    
C2    O12   A    
C19   H3    S    
N3    C43   S    
C36   C39   S    
C34   C40   S    
C12   C15   S    
C25   C31   S    
C24   H6    S    
O11   V3    S    
C39   H15   S    
C12   N2    S    
C28   C30   S    
C20   H4    S    
C9    C14   S    
C32   N6    S    
C10   C13   S    
C12   C14   S    
O8    C4    A    
C46   H42   S    
C1    O11   A    
C18   C20   S    
C19   C24   S    
N6    C46   S    
O15   V3    S    
C20   C23   S    
C9    H1    S    
C33   C35   S    
C30   C32   S    
C11   C13   S    
C17   C19   S    
C28   C31   S    
N4    H29   S    
C3    C38   S    
C19   C21   S    
C7    C14   S    
C25   C30   S    
O10   V2    S    
O1    V3    S    
C26   C29   S    
C45   H37   S    
C42   H24   S    
C37   C39   S    
C6    C22   S    
C31   N5    S    
C33   H13   S    
N4    C44   S    
O18   V4    S    
C44   H32   S    
C25   C27   S    
C36   C38   S    
O16   C6    A    
O1    C3    A    
C8    C13   S    
V2    O20   S    
C18   O22   S    
O10   C6    A    
O16   V4    S    
C45   H36   S    
C41   H19   S    
C10   H2    S    
C27   C29   S    
C14   C16   S    
C43   H27   S    
C17   C22   S    
O5    V1    S    
O17   C7    A    
O6    V2    S    
O21   H33   S    
C20   C22   S    
O18   C8    A    
C11   N1    S    
C44   H31   S    
O2    V4    S    
C9    C15   S    
C4    C37   S    
C46   H41   S    
V3    O19   S    
C46   H40   S    
V4    O20   S    
C17   C23   S    
C26   C32   S    
C25   H9    S    
O9    C5    A    
O13   V1    S    
C26   C28   S    
C35   C37   S    
C45   H38   S    
C10   C12   S    
O2    C4    A    
C1    C30   S    
C27   H7    S    
C2    C29   S    
O4    V2    S    
C41   H20   S    
C34   C36   S    
N5    H35   S    
N2    C42   S    
C36   H12   S    
C33   C38   S    
C23   H5    S    
C42   H22   S    
C16   N4    S    
O12   V4    S    
