data_mof_unit_8784.cif
_audit_creation_date              2012-12-10T17:15:13-0500
_audit_creation_method            fapswitch 2.2
_symmetry_space_group_name_H-M    P1
_symmetry_Int_Tables_number       1
_space_group_crystal_system       triclinic
_cell_length_a                    10.136772
_cell_length_b                    10.803662
_cell_length_c                    12.774889
_cell_angle_alpha                 91.163741
_cell_angle_beta                  90.921413
_cell_angle_gamma                 97.064791
_cell_volume                      1387.88087488

loop_
_atom_site_label
_atom_site_type_symbol
_atom_type_description
_atom_site_fract_x
_atom_site_fract_y
_atom_site_fract_z
_atom_type_partial_charge
C1    C     C_R   0.443640 0.267649 0.489672 0.911661
C2    C     C_R   0.555799 0.732745 0.511535 0.906750
C3    C     C_2   0.074784 0.543271 0.532244 0.555380
C4    C     C_2   0.925244 0.536110 0.505374 0.520549
C5    C     C_R   0.474436 0.503894 0.698245 0.873131
C6    C     C_R   0.526440 0.496695 0.301904 0.888765
C7    C     C_R   0.543729 0.489929 0.191798 -0.078994
C8    C     C_R   0.463325 0.516278 0.808774 -0.052629
C9    C     C_R   0.423678 0.643864 0.958761 -0.019470
C10   C     C_R   0.603351 0.375012 0.040466 -0.020862
C11   C     C_R   0.419931 0.622924 0.851205 -0.245421
C12   C     C_R   0.604164 0.392840 0.148230 -0.206007
C13   C     C_R   0.519713 0.432228 0.870548 -0.240481
C14   C     C_R   0.489659 0.575824 0.130635 -0.258545
C15   C     C_R   0.536243 0.454827 0.977387 0.090447
C16   C     C_R   0.482217 0.559064 0.022824 0.095584
C17   C     C_2   0.406590 0.135021 0.491468 -0.382077
C18   C     C_2   0.590236 0.866603 0.512814 -0.441111
C19   C     C_2   0.499066 0.059285 0.471235 -0.079135
C20   C     C_2   0.493906 0.940035 0.526144 -0.024886
H1    H     H_    0.451800 0.653804 0.169165 0.173645
H2    H     H_    0.552446 0.350697 0.833333 0.165848
H3    H     H_    0.650136 0.330136 0.198591 0.213535
H4    H     H_    0.384631 0.690048 0.799609 0.199113
H5    H     H_    0.684696 0.900831 0.480216 0.190752
H6    H     H_    0.316137 0.105017 0.532855 0.175415
N1    N     N_2   0.162330 0.550370 0.457540 0.021698
N2    N     N_2   0.837670 0.449630 0.542460 0.007571
O1    O     O_R   0.567930 0.307680 0.508550 -0.633833
O2    O     O_R   0.432070 0.692320 0.491450 -0.598756
O3    O     O_R   0.351090 0.340020 0.481290 -0.571010
O4    O     O_R   0.648910 0.659980 0.518710 -0.592147
O5    O     O_R   0.590490 0.486480 0.665020 -0.663176
O6    O     O_R   0.409510 0.513520 0.334980 -0.621395
O7    O     O_R   0.373660 0.518820 0.637760 -0.551720
O8    O     O_R   0.626340 0.481180 0.362240 -0.571636
Zn1   Zn    Zn3+2 0.644780 0.478400 0.518200 0.999906
Zn2   Zn    Zn3+2 0.355220 0.521600 0.481800 1.064724
C21   C     C_2   0.368821 0.756268 0.999198 0.887449
O9    O     O_2   0.289895 0.748290 0.070780 -0.672874
O10   O     O_R   0.403231 0.870812 0.951614 -0.769615
H7    H     H_    0.358308 0.940409 0.984609 0.361419
C22   C     C_2   0.675447 0.274233 0.998103 0.895724
O11   O     O_2   0.748095 0.293372 0.923257 -0.676207
O12   O     O_R   0.665651 0.159266 0.047560 -0.752822
H8    H     H_    0.720730 0.098610 0.012487 0.354352
C23   C     C_2   0.381788 0.901714 0.597246 0.949380
O13   O     O_2   0.269066 0.874310 0.561551 -0.661277
O14   O     O_R   0.405973 0.901728 0.705042 -0.791638
H9    H     H_    0.320955 0.883902 0.745639 0.344666
C24   C     C_2   0.603179 0.095925 0.392280 0.954118
O15   O     O_2   0.569297 0.119165 0.303256 -0.604580
O16   O     O_R   0.738009 0.108977 0.420658 -0.821016
H10   H     H_    0.797738 0.136738 0.360449 0.355805
O17   O     O_3   0.880757 0.619015 0.434997 -0.603948
C25   C     C_3   0.930725 0.744166 0.461348 0.022867
H11   H     H_    0.040047 0.758863 0.474115 0.156629
H12   H     H_    0.883305 0.774611 0.533716 0.160693
C26   C     C_3   0.898203 0.827773 0.372263 -0.753066
H13   H     H_    0.792177 0.806389 0.347699 0.255404
H14   H     H_    0.918636 0.927146 0.398011 0.239512
H15   H     H_    0.960159 0.813157 0.303481 0.241488
O18   O     O_3   0.121278 0.550908 0.636178 -0.597280
C27   C     C_3   0.029697 0.596909 0.705510 0.049477
H16   H     H_    0.943134 0.525830 0.717386 0.174628
H17   H     H_    0.995490 0.684233 0.676540 0.106500
C28   C     C_3   0.093796 0.626003 0.812803 -0.737294
H18   H     H_    0.166223 0.711223 0.809600 0.232621
H19   H     H_    0.016597 0.643998 0.869988 0.215689
H20   H     H_    0.143237 0.545889 0.839829 0.266293
O19   O     O_3   0.892631 0.352489 0.582861 -0.580130
C29   C     C_3   0.803021 0.285765 0.649920 0.227844
H21   H     H_    0.728623 0.222538 0.604416 0.206630
H22   H     H_    0.755157 0.348577 0.703046 0.166014
C30   C     C_3   0.879606 0.203253 0.717111 -0.768680
H23   H     H_    0.953371 0.261840 0.768043 0.270875
H24   H     H_    0.809852 0.144003 0.766835 0.239363
H25   H     H_    0.932550 0.141455 0.666436 0.258391
O20   O     O_3   0.110345 0.507010 0.363779 -0.554575
C31   C     C_3   0.137578 0.601508 0.289697 0.251983
H26   H     H_    0.233217 0.593785 0.251738 0.189416
H27   H     H_    0.141902 0.697099 0.324456 0.121888
C32   C     C_3   0.030446 0.584219 0.203775 -0.795701
H28   H     H_    0.047264 0.660631 0.146919 0.239566
H29   H     H_    0.033453 0.493661 0.161679 0.257269
H30   H     H_    0.930407 0.585220 0.237493 0.285567

loop_
_geom_bond_atom_site_label_1
_geom_bond_atom_site_label_2
_ccdc_geom_bond_type
O17   C25   S    
C8    C13   A    
C2    C18   S    
O10   H7    S    
C19   C20   S    
C9    C21   S    
C22   O11   D    
C21   O10   S    
O16   H10   S    
C12   H3    S    
C17   H6    S    
C14   H1    S    
O8    Zn1   S    
C9    C16   A    
N1    O20   S    
C10   C15   A    
C29   C30   S    
N1    Zn2   S    
C15   C16   A    
C11   H4    S    
C1    O3    A    
C24   O15   D    
C25   H11   S    
O2    Zn2   S    
C2    O4    A    
C7    C14   A    
C23   O13   D    
C6    O8    A    
C5    O5    A    
C9    C11   A    
C26   H13   S    
C18   H5    S    
C31   C32   S    
C4    N2    D    
C7    C12   A    
C26   H14   S    
O18   C27   S    
C28   H18   S    
C27   C28   S    
O7    Zn2   S    
C23   O14   S    
C21   O9    D    
C31   H26   S    
O12   H8    S    
O5    Zn1   S    
C6    O6    A    
C28   H19   S    
C27   H17   S    
C30   H23   S    
C22   O12   S    
C32   H28   S    
C1    O1    A    
O4    Zn1   S    
C30   H24   S    
C10   C12   A    
C29   H22   S    
C32   H29   S    
C13   C15   A    
C4    O17   S    
C14   C16   A    
N2    O19   S    
C3    C4    S    
C26   H15   S    
C10   C22   S    
O6    Zn2   S    
C29   H21   S    
C5    C8    S    
C25   C26   S    
C6    C7    S    
C3    O18   S    
C1    C17   S    
O3    Zn2   S    
C2    O2    A    
C28   H20   S    
C27   H16   S    
C3    N1    D    
O19   C29   S    
N2    Zn1   S    
C8    C11   A    
C5    O7    A    
C17   C19   D    
C31   H27   S    
C25   H12   S    
C13   H2    S    
C18   C20   D    
C30   H25   S    
C20   C23   S    
O20   C31   S    
C19   C24   S    
C32   H30   S    
O14   H9    S    
O1    Zn1   S    
C24   O16   S    
