data_mof_unit_26343.cif
_audit_creation_date              2012-12-11T15:37:05-0500
_audit_creation_method            fapswitch 2.2
_symmetry_space_group_name_H-M    P1
_symmetry_Int_Tables_number       1
_space_group_crystal_system       triclinic
_cell_length_a                    15.00438
_cell_length_b                    15.076907
_cell_length_c                    34.748617
_cell_angle_alpha                 91.270543
_cell_angle_beta                  91.573483
_cell_angle_gamma                 60.104968
_cell_volume                      6811.96238112

loop_
_atom_site_label
_atom_site_type_symbol
_atom_type_description
_atom_site_fract_x
_atom_site_fract_y
_atom_site_fract_z
_atom_type_partial_charge
C1    C     C_R   0.588977 0.353883 0.440485 0.564584
C2    C     C_R   0.587823 0.096801 0.762628 -0.135204
C3    C     C_R   0.091422 0.768283 0.885982 -0.127071
C4    C     C_R   0.121152 0.756059 0.847865 -0.129722
C5    C     C_R   0.129375 0.673135 0.826031 0.027809
C6    C     C_R   0.115237 0.598282 0.843604 -0.116462
C7    C     C_R   0.085402 0.610469 0.881824 -0.123099
C8    C     C_R   0.209829 0.578541 0.765554 -0.126910
C9    C     C_R   0.217499 0.575846 0.725704 -0.120156
C10   C     C_R   0.158189 0.664968 0.704290 0.027521
C11   C     C_R   0.091196 0.756793 0.722882 -0.121965
C12   C     C_R   0.082384 0.759168 0.762668 -0.124406
C13   C     C_R   0.580663 0.172541 0.788669 0.037833
C14   C     C_R   0.655105 0.759531 0.164659 -0.116640
C15   C     C_R   0.142214 0.670297 0.784265 0.023571
C16   C     C_R   0.203621 0.723837 0.646053 -0.144742
C17   C     C_R   0.236396 0.705976 0.608203 -0.179408
C18   C     C_R   0.188084 0.574108 0.601754 0.270208
C19   C     C_R   0.159568 0.589751 0.640223 -0.095917
C20   C     C_R   0.170431 0.661999 0.662680 -0.019687
C21   C     C_R   0.235200 0.626713 0.586509 0.012319
C22   C     C_R   0.674532 0.076463 0.905137 -0.022467
C23   C     C_R   0.587821 0.076093 0.888929 -0.149429
C24   C     C_R   0.545012 0.192825 0.639516 -0.115918
C25   C     C_R   0.554410 0.111150 0.851435 -0.173267
C26   C     C_3   0.182366 0.452086 0.323207 -0.150176
C27   C     C_3   0.128291 0.845760 0.436087 0.023091
C28   C     C_3   0.045149 0.942252 0.416004 -0.278078
C29   C     C_3   0.948018 0.996732 0.439859 -0.474854
C30   C     C_3   0.919628 0.606497 0.387098 -0.014750
C31   C     C_3   0.903713 0.699156 0.364066 -0.265655
C32   C     C_3   0.954948 0.753343 0.384235 -0.484338
C33   C     C_3   0.923481 0.406071 0.292104 0.024405
C34   C     C_3   0.934974 0.310308 0.271550 -0.276114
C35   C     C_R   0.831035 0.620421 0.160849 -0.123835
C36   C     C_3   0.047197 0.234646 0.262779 -0.494327
C37   C     C_3   0.399853 0.687721 0.788156 0.009413
C38   C     C_3   0.364435 0.801046 0.780796 -0.285048
C39   C     C_3   0.258180 0.855390 0.761552 -0.481442
C40   C     C_3   0.849000 0.391563 0.866384 0.014405
C41   C     C_3   0.946775 0.299890 0.851122 -0.248363
C42   C     C_3   0.967267 0.200495 0.869681 -0.492622
C43   C     C_3   0.095597 0.543684 0.555148 0.021825
C44   C     C_3   0.997871 0.559526 0.574407 -0.277495
C45   C     C_3   0.907647 0.597824 0.545747 -0.482782
C46   C     C_R   0.551665 0.215170 0.601263 -0.118006
C47   C     C_3   0.826555 0.096879 0.805170 0.004430
C48   C     C_3   0.863962 0.136103 0.772679 -0.247974
C49   C     C_3   0.949533 0.048340 0.750223 -0.496732
C50   C     C_R   0.683407 0.257124 0.619692 -0.126779
C51   C     C_R   0.675629 0.236217 0.657962 -0.122536
C52   C     C_R   0.603922 0.207328 0.668295 0.027487
C53   C     C_R   0.618405 0.250914 0.591237 0.018389
C54   C     C_R   0.046375 0.738693 0.048284 0.541112
C55   C     C_R   0.744999 0.684149 0.182957 0.038250
C56   C     C_R   0.747224 0.746541 0.064087 0.543797
C57   C     C_R   0.750664 0.040998 0.050718 0.543373
C58   C     C_R   0.017598 0.722276 0.939847 0.543813
C59   C     C_R   0.717234 0.730022 0.954859 0.547545
C60   C     C_R   0.829255 0.636072 0.121375 -0.127226
C61   C     C_R   0.721670 0.023838 0.941742 0.546361
C62   C     C_R   0.791211 0.578066 0.242229 -0.115162
C63   C     C_R   0.786295 0.569436 0.282250 0.309298
C64   C     C_R   0.734080 0.659387 0.304677 0.063878
C65   C     C_R   0.698383 0.755141 0.287845 -0.191204
C66   C     C_R   0.606915 0.147376 0.829711 0.029943
C67   C     C_R   0.706488 0.762624 0.248475 -0.139609
C68   C     C_R   0.749116 0.674498 0.225161 -0.015181
C69   C     C_R   0.596798 0.706551 0.351499 -0.178035
C70   C     C_R   0.593166 0.609937 0.449337 0.536709
C71   C     C_R   0.562114 0.696091 0.386787 -0.142827
C72   C     C_R   0.738097 0.583959 0.408148 -0.127550
C73   C     C_R   0.773783 0.598549 0.373246 0.314109
C74   C     C_R   0.702242 0.655505 0.343988 0.065899
C75   C     C_R   0.632227 0.632247 0.414880 -0.025671
C76   C     C_R   0.107548 0.726251 0.083728 0.020890
C77   C     C_R   0.693029 0.149245 0.846085 0.263261
C78   C     C_R   0.157014 0.630929 0.102069 -0.126954
C79   C     C_R   0.185851 0.624328 0.140744 -0.121574
C80   C     C_R   0.166968 0.712546 0.161478 0.029770
C81   C     C_R   0.128862 0.805629 0.142244 -0.121629
C82   C     C_R   0.304414 0.591045 0.442193 0.535810
C83   C     C_R   0.099158 0.812553 0.103442 -0.128446
C84   C     C_R   0.234499 0.738245 0.224842 -0.119645
C85   C     C_R   0.241948 0.728792 0.264896 -0.118783
C86   C     C_R   0.185850 0.691796 0.284040 0.060400
C87   C     C_R   0.118862 0.668881 0.262885 -0.070486
C88   C     C_R   0.724558 0.116289 0.883781 -0.108385
C89   C     C_R   0.112683 0.676772 0.222998 -0.116846
C90   C     C_R   0.171878 0.709569 0.203703 0.024271
C91   C     C_R   0.227756 0.573211 0.339356 0.270373
C92   C     C_R   0.254596 0.551191 0.378366 -0.169069
C93   C     C_R   0.220634 0.724666 0.390464 0.248236
C94   C     C_R   0.605359 0.300622 0.553827 0.551158
C95   C     C_R   0.197383 0.745684 0.351327 -0.156446
C96   C     C_R   0.202447 0.670398 0.325619 -0.006212
C97   C     C_R   0.254423 0.624850 0.403930 -0.032642
C98   C     C_R   0.716990 0.109031 0.084957 0.019972
C99   C     C_R   0.567979 0.264688 0.774568 -0.074102
C100  C     C_R   0.778431 0.147156 0.100906 -0.129526
C101  C     C_R   0.753854 0.198856 0.136294 -0.121502
C102  C     C_R   0.667465 0.213345 0.156405 0.032547
C103  C     C_R   0.602750 0.180628 0.139332 -0.120696
C104  C     C_R   0.627226 0.129043 0.103982 -0.127569
C105  C     C_R   0.551573 0.316655 0.210494 -0.115492
C106  C     C_R   0.587672 0.606539 0.559084 0.539316
C107  C     C_R   0.536496 0.342637 0.249615 -0.111649
C108  C     C_R   0.620714 0.304117 0.275513 0.031343
C109  C     C_R   0.720124 0.241278 0.261484 -0.111126
C110  C     C_R   0.571858 0.277193 0.735165 -0.127369
C111  C     C_R   0.735212 0.215668 0.222540 -0.114555
C112  C     C_R   0.651088 0.251734 0.196684 0.030542
C113  C     C_R   0.674260 0.345613 0.338853 -0.116983
C114  C     C_R   0.668057 0.354663 0.378770 -0.126488
C115  C     C_R   0.522566 0.326401 0.376626 -0.125210
C116  C     C_R   0.528819 0.317306 0.336502 -0.105192
C117  C     C_R   0.606122 0.324826 0.317360 0.025857
C118  C     C_R   0.296820 0.589681 0.551477 0.543435
C119  C     C_R   0.593797 0.342781 0.398176 0.011071
C120  C     C_R   0.692243 0.688389 0.919963 -0.023503
C121  C     C_R   0.587178 0.198243 0.709274 0.021888
C122  C     C_R   0.767707 0.595585 0.903862 -0.121141
C123  C     C_R   0.756192 0.566468 0.866221 0.251852
C124  C     C_R   0.669468 0.633724 0.843849 0.076103
C125  C     C_R   0.590486 0.722354 0.861075 -0.133516
C126  C     C_R   0.601238 0.748975 0.898888 -0.154423
C127  C     C_R   0.578517 0.627444 0.782556 0.275799
C128  C     C_R   0.577179 0.623092 0.741809 -0.116587
C129  C     C_R   0.658440 0.617081 0.720699 -0.018460
C130  C     C_R   0.741414 0.715887 0.103457 0.020682
C131  C     C_R   0.745286 0.608209 0.739981 -0.147515
C132  C     C_R   0.590766 0.109729 0.723062 -0.121002
C133  C     C_R   0.749163 0.609849 0.780016 -0.129714
C134  C     C_R   0.666511 0.619944 0.801558 0.070528
C135  C     C_R   0.726328 0.547544 0.655310 -0.120374
C136  C     C_R   0.710185 0.546433 0.615531 -0.138128
C137  C     C_R   0.545787 0.702371 0.621328 -0.125916
C138  C     C_R   0.561380 0.702615 0.661001 -0.124392
C139  C     C_R   0.649938 0.623318 0.678393 0.035326
C140  C     C_R   0.617854 0.621769 0.598386 0.017562
C141  C     C_R   0.069283 0.697779 0.902765 0.021818
C142  C     C_R   0.653298 0.775339 0.125257 -0.127709
Cr1   Cr    Cr6+3 0.426010 0.422500 0.497000 1.018123
Cr2   Cr    Cr6+3 0.651300 0.426310 0.501970 0.997674
Cr3   Cr    Cr6+3 0.422670 0.651170 0.501050 1.023978
Cr4   Cr    Cr6+3 0.905130 0.911420 0.992650 1.006303
Cr5   Cr    Cr6+3 0.911860 0.682710 0.002320 1.007687
Cr6   Cr    Cr6+3 0.682710 0.906840 0.004710 1.010599
H1    H     H_    0.584390 0.837012 0.112234 0.125766
H2    H     H_    0.216465 0.551637 0.155199 0.107479
H3    H     H_    0.983395 0.202067 0.901001 0.143008
H4    H     H_    0.034915 0.134789 0.856238 0.137304
H5    H     H_    0.899782 0.189643 0.865590 0.183727
H6    H     H_    0.112575 0.489949 0.530430 0.157203
H7    H     H_    0.082731 0.617026 0.542810 0.105282
H8    H     H_    0.012210 0.485972 0.586666 0.170723
H9    H     H_    0.977161 0.616364 0.598247 0.155072
H10   H     H_    0.891052 0.672064 0.533481 0.144552
H11   H     H_    0.838161 0.608981 0.560624 0.153739
H12   H     H_    0.925242 0.541174 0.522034 0.141176
H13   H     H_    0.072961 0.642821 0.277181 0.117287
H14   H     H_    0.799178 0.046153 0.792123 0.138203
H15   H     H_    0.891784 0.051083 0.825407 0.123931
H16   H     H_    0.798663 0.182494 0.752642 0.177460
H17   H     H_    0.892928 0.185785 0.784867 0.167121
H18   H     H_    0.016431 0.002042 0.769580 0.138953
H19   H     H_    0.974790 0.079570 0.726919 0.144504
H20   H     H_    0.921358 0.998885 0.737030 0.145779
H21   H     H_    0.898565 0.589148 0.105351 0.127709
H22   H     H_    0.062101 0.656604 0.207063 0.107347
H23   H     H_    0.283051 0.473812 0.388039 0.135281
H24   H     H_    0.114027 0.874363 0.157963 0.103979
H25   H     H_    0.847730 0.133532 0.086842 0.123715
H26   H     H_    0.578060 0.100951 0.092409 0.124056
H27   H     H_    0.475350 0.301173 0.320587 0.127257
H28   H     H_    0.459138 0.392064 0.259681 0.140578
H29   H     H_    0.479996 0.733377 0.391237 0.163953
H30   H     H_    0.485411 0.346190 0.191126 0.104922
H31   H     H_    0.804270 0.224647 0.148549 0.101201
H32   H     H_    0.786075 0.208335 0.280944 0.093917
H33   H     H_    0.812510 0.163646 0.213010 0.100363
H34   H     H_    0.732940 0.354193 0.324756 0.152017
H35   H     H_    0.721678 0.370972 0.394511 0.140560
H36   H     H_    0.536275 0.189710 0.154280 0.101237
H37   H     H_    0.463214 0.318980 0.390739 0.124898
H38   H     H_    0.839405 0.548910 0.919365 0.129700
H39   H     H_    0.541936 0.821268 0.910392 0.134687
H40   H     H_    0.901130 0.561695 0.174351 0.095440
H41   H     H_    0.502384 0.762711 0.678369 0.099621
H42   H     H_    0.513477 0.625221 0.725814 0.100933
H43   H     H_    0.808579 0.603502 0.724044 0.117593
H44   H     H_    0.815488 0.607362 0.794264 0.152520
H45   H     H_    0.795483 0.486062 0.668284 0.105652
H46   H     H_    0.767176 0.483453 0.598586 0.118474
H47   H     H_    0.523764 0.775350 0.844343 0.130596
H48   H     H_    0.473921 0.761621 0.609093 0.125574
H49   H     H_    0.080876 0.835633 0.901671 0.121645
H50   H     H_    0.822911 0.509869 0.224303 0.103212
H51   H     H_    0.792937 0.534833 0.429781 0.114156
H52   H     H_    0.068935 0.554928 0.894134 0.133652
H53   H     H_    0.131917 0.543150 0.652920 0.119656
H54   H     H_    0.270835 0.504716 0.711579 0.115449
H55   H     H_    0.256839 0.509366 0.781759 0.108003
H56   H     H_    0.133475 0.813697 0.835006 0.091278
H57   H     H_    0.045253 0.825939 0.706540 0.106076
H58   H     H_    0.027936 0.830026 0.776595 0.099837
H59   H     H_    0.211742 0.780371 0.663210 0.111852
H60   H     H_    0.269957 0.749036 0.597041 0.135176
H61   H     H_    0.120857 0.533879 0.827151 0.110542
H62   H     H_    0.165688 0.562900 0.087482 0.124692
H63   H     H_    0.586858 0.807874 0.181035 0.104667
H64   H     H_    0.548498 0.044785 0.904567 0.134529
H65   H     H_    0.791768 0.117171 0.895492 0.130170
H66   H     H_    0.723037 0.246139 0.679767 0.103341
H67   H     H_    0.566639 0.347053 0.724965 0.111904
H68   H     H_    0.561808 0.324173 0.794242 0.148700
H69   H     H_    0.489384 0.107431 0.838960 0.112338
H70   H     H_    0.601880 0.048334 0.703459 0.106327
H71   H     H_    0.598639 0.024808 0.773018 0.103239
H72   H     H_    0.489690 0.170046 0.646933 0.109428
H73   H     H_    0.061355 0.887007 0.090028 0.126000
H74   H     H_    0.659683 0.824549 0.305022 0.108591
H75   H     H_    0.500560 0.209910 0.579876 0.128386
H76   H     H_    0.734911 0.285251 0.612924 0.126390
H77   H     H_    0.675932 0.837716 0.236003 0.120752
H78   H     H_    0.540872 0.751494 0.329391 0.119009
H79   H     H_    0.102148 0.510910 0.330249 0.115155
H80   H     H_    0.218913 0.397589 0.347295 0.111667
H81   H     H_    0.177892 0.407839 0.298028 0.133019
H82   H     H_    0.146911 0.868250 0.464531 0.150875
H83   H     H_    0.098390 0.792969 0.442200 0.102929
H84   H     H_    0.176722 0.820826 0.340854 0.121813
H85   H     H_    0.075024 0.995368 0.411384 0.172313
H86   H     H_    0.025242 0.921526 0.387481 0.152477
H87   H     H_    0.915901 0.945500 0.444336 0.143973
H88   H     H_    0.889375 0.066006 0.424481 0.164000
H89   H     H_    0.965334 0.020533 0.468268 0.150947
H90   H     H_    0.003502 0.553491 0.391013 0.141818
H91   H     H_    0.888370 0.630658 0.416627 0.114687
H92   H     H_    0.936317 0.673693 0.334922 0.163163
H93   H     H_    0.820273 0.754663 0.360754 0.157184
H94   H     H_    0.919444 0.784200 0.412601 0.141014
H95   H     H_    0.294065 0.746883 0.280794 0.107384
H96   H     H_    0.945197 0.817609 0.366237 0.147623
H97   H     H_    0.038164 0.699416 0.388636 0.145623
H98   H     H_    0.963902 0.383213 0.320504 0.180770
H99   H     H_    0.963351 0.438593 0.275644 0.103795
H100  H     H_    0.904999 0.272556 0.290176 0.157965
H101  H     H_    0.889382 0.331972 0.244181 0.164702
H102  H     H_    0.078360 0.269840 0.243400 0.142141
H103  H     H_    0.052855 0.165674 0.248292 0.145255
H104  H     H_    0.094024 0.210884 0.289843 0.144357
H105  H     H_    0.345904 0.685766 0.808938 0.166710
H106  H     H_    0.279871 0.764526 0.210284 0.107443
H107  H     H_    0.392412 0.647613 0.762168 0.130154
H108  H     H_    0.361619 0.839988 0.808624 0.153307
H109  H     H_    0.418750 0.808469 0.761905 0.151326
H110  H     H_    0.258634 0.817215 0.733792 0.153347
H111  H     H_    0.235729 0.936111 0.755815 0.140386
H112  H     H_    0.200566 0.854953 0.780693 0.145215
H113  H     H_    0.781893 0.381622 0.858694 0.169020
H114  H     H_    0.856878 0.393502 0.898315 0.117958
H115  H     H_    0.939233 0.294139 0.819416 0.167404
H116  H     H_    0.013391 0.311446 0.857330 0.168424
O1    O     O_R   0.324990 0.503440 0.453910 -0.549225
O2    O     O_R   0.675430 0.831160 0.051290 -0.519093
O3    O     O_R   0.698870 0.998880 0.039560 -0.501417
O4    O     O_R   0.522030 0.339050 0.458320 -0.503183
O5    O     O_R   0.811290 0.006780 0.950620 -0.521804
O6    O     O_R   0.980960 0.812920 0.953200 -0.502848
O7    O     O_R   0.001480 0.656720 0.955830 -0.519432
O8    O     O_R   0.809240 0.683250 0.968050 -0.502500
O9    O     O_R   0.652500 0.818540 0.967340 -0.516527
O10   O     O_R   0.677620 0.987170 0.961730 -0.497980
O11   O     O_3   0.833240 0.833660 0.999890 -0.232755
O12   O     O_R   0.639980 0.519500 0.542640 -0.502266
O13   O     O_R   0.676180 0.324490 0.458320 -0.517702
O14   O     O_R   0.643570 0.521510 0.464260 -0.523898
O15   O     O_R   0.504630 0.675350 0.460920 -0.497016
O16   O     O_R   0.339850 0.642450 0.459830 -0.452703
O17   O     O_R   0.321120 0.501280 0.538470 -0.464167
O18   O     O_R   0.518440 0.337050 0.536710 -0.488107
O19   O     O_R   0.672300 0.322330 0.542880 -0.515594
O20   O     O_3   0.242207 0.496271 0.313262 -0.570421
O21   O     O_3   0.219350 0.799834 0.414387 -0.551934
O22   O     O_3   0.878178 0.552427 0.366799 -0.577658
O23   O     O_R   0.500750 0.673190 0.545480 -0.518491
O24   O     O_3   0.817927 0.475145 0.298782 -0.561127
O25   O     O_3   0.499659 0.634354 0.805256 -0.580461
O26   O     O_3   0.836651 0.481180 0.849255 -0.589662
O27   O     O_3   0.180713 0.498419 0.581104 -0.555533
O28   O     O_3   0.748042 0.181720 0.824963 -0.591136
O29   O     O_R   0.336260 0.640450 0.538210 -0.517345
O30   O     O_3   0.499990 0.499990 0.500010 -0.263335
O31   O     O_R   0.834210 0.019400 0.034570 -0.520771
O32   O     O_R   0.002210 0.824620 0.031030 -0.502039
O33   O     O_R   0.024400 0.669340 0.039790 -0.519772
O34   O     O_R   0.830490 0.694950 0.045870 -0.502235

loop_
_geom_bond_atom_site_label_1
_geom_bond_atom_site_label_2
_ccdc_geom_bond_type
C24   C52   A    
C38   H108  S    
C31   H92   S    
C14   C142  A    
C99   H68   S    
C59   C120  S    
C18   C21   A    
C41   C42   S    
C118  O29   A    
C25   H69   S    
C95   C96   A    
C45   H11   S    
C127  C134  A    
C85   H95   S    
C105  H30   S    
C136  C140  A    
C16   H59   S    
C69   H78   S    
C77   O28   S    
C55   C68   S    
C138  C139  A    
C135  C136  A    
C127  O25   S    
C6    H61   S    
C85   C86   A    
C108  C109  A    
C135  C139  A    
C105  C107  A    
C50   H76   S    
C39   H111  S    
C37   C38   S    
C14   H63   S    
C91   O20   S    
C60   H21   S    
C142  H1    S    
C2    C13   A    
C126  H39   S    
Cr5   O8    S    
C76   C78   A    
C89   H22   S    
C49   H19   S    
Cr3   O30   S    
C109  C111  A    
C110  C121  A    
C1    C119  S    
C5    C6    A    
C115  H37   S    
C120  C126  A    
C4    H56   S    
C16   C17   A    
C107  H28   S    
C125  H47   S    
C92   H23   S    
C114  H35   S    
C56   C130  S    
C111  H33   S    
C36   H103  S    
C116  C117  A    
C30   H91   S    
Cr1   O4    S    
C73   C74   A    
C81   H24   S    
Cr6   O2    S    
C7    H52   S    
C69   C71   A    
C123  O26   S    
C29   H87   S    
Cr5   O7    S    
C103  C104  A    
C132  H70   S    
Cr2   O19   S    
C91   C96   A    
C47   H14   S    
C102  C112  S    
C73   O22   S    
C48   H17   S    
Cr5   O33   S    
C77   C88   A    
C10   C20   S    
C8    C9    A    
C65   C67   A    
C137  C138  A    
C43   O27   S    
C47   C48   S    
C36   H102  S    
C107  C108  A    
Cr5   O34   S    
C127  C128  A    
C40   O26   S    
Cr2   O13   S    
C22   C88   A    
C82   O1    A    
C43   H6    S    
C42   H4    S    
C9    C10   A    
C78   H62   S    
C26   O20   S    
C114  C119  A    
C116  H27   S    
C28   H85   S    
C94   O18   A    
C47   H15   S    
C14   C55   A    
C137  H48   S    
C93   C95   A    
C71   C75   A    
C128  C129  A    
C8    H55   S    
C44   H9    S    
Cr3   O15   S    
C45   H12   S    
C84   C90   A    
C30   H90   S    
C72   C75   A    
C43   H7    S    
C47   O28   S    
C76   C83   A    
C29   H89   S    
C65   H74   S    
C81   C83   A    
C120  C122  A    
C92   C97   A    
C50   C51   A    
C100  H25   S    
C13   C66   S    
C17   H60   S    
C26   H81   S    
C69   C74   A    
C137  C140  A    
Cr1   O17   S    
C50   C53   A    
C88   H65   S    
C45   H10   S    
C61   O10   A    
C35   C55   A    
C106  O23   A    
C44   H8    S    
C101  C102  A    
C123  C124  A    
C42   H5    S    
C106  O12   A    
C84   C85   A    
C62   H50   S    
C118  O17   A    
Cr4   O11   S    
C39   H112  S    
Cr2   O30   S    
C91   C92   A    
Cr4   O32   S    
C86   C87   A    
C18   C19   A    
C104  H26   S    
C37   H107  S    
C63   C64   A    
C99   C110  A    
C58   O7    A    
C17   C21   A    
C70   O15   A    
C51   C52   A    
C115  C119  A    
C35   C60   A    
Cr1   O1    S    
C12   H58   S    
C133  H44   S    
C13   C99   A    
Cr3   O23   S    
C67   C68   A    
C29   H88   S    
C1    O13   A    
C21   C118  S    
C101  H31   S    
C39   H110  S    
C41   H116  S    
C27   O21   S    
C133  C134  A    
C40   H113  S    
C27   H82   S    
C26   H80   S    
C31   C32   S    
C129  C139  S    
C12   C15   A    
C41   H115  S    
C30   C31   S    
C16   C20   A    
C62   C63   A    
C33   C34   S    
Cr6   O11   S    
C33   H98   S    
C103  H36   S    
C95   H84   S    
C42   H3    S    
C40   H114  S    
C54   O33   A    
C86   C96   S    
C63   O24   S    
C49   H20   S    
C79   H2    S    
C54   C76   S    
C24   H72   S    
C51   H66   S    
C27   H83   S    
C40   C41   S    
C87   H13   S    
C105  C112  A    
C8    C15   A    
C98   C100  A    
C87   C89   A    
C43   C44   S    
C84   H106  S    
C125  C126  A    
C135  H45   S    
C82   C97   S    
C113  C117  A    
C138  H41   S    
C72   H51   S    
C34   H100  S    
C60   C130  A    
C3    C4    A    
C113  H34   S    
C93   C97   A    
C7    C141  A    
C56   O2    A    
C44   C45   S    
Cr6   O3    S    
C113  C114  A    
C52   C121  S    
C106  C140  S    
C66   C77   A    
C28   C29   S    
Cr1   O18   S    
C64   C74   S    
C111  C112  A    
C32   H94   S    
C53   C94   S    
C78   C79   A    
C136  H46   S    
C108  C117  S    
C31   H93   S    
Cr4   O5    S    
C82   O16   A    
C25   C66   A    
C80   C81   A    
C131  C133  A    
C19   C20   A    
C3    H49   S    
Cr4   O31   S    
Cr1   O30   S    
C109  H32   S    
C6    C7    A    
C48   H16   S    
C131  H43   S    
C3    C141  A    
C11   H57   S    
C18   O27   S    
C58   O6    A    
C37   H105  S    
C38   H109  S    
C70   O14   A    
C124  C134  S    
C32   H97   S    
Cr2   O12   S    
Cr6   O10   S    
C56   O34   A    
C64   C65   A    
C71   H29   S    
C26   H79   S    
C57   O31   A    
C110  H67   S    
C122  C123  A    
C61   O5    A    
C49   H18   S    
Cr3   O29   S    
Cr4   O6    S    
C22   C61   S    
C93   O21   S    
C35   H40   S    
C9    H54   S    
C58   C141  S    
C22   C23   A    
C38   C39   S    
C1    O4    A    
C2    C132  A    
C72   C73   A    
C48   C49   S    
C57   C98   S    
C59   O9    A    
C46   C53   A    
C100  C101  A    
C36   H104  S    
C34   C36   S    
C59   O8    A    
C33   H99   S    
C34   H101  S    
C128  H42   S    
C62   C68   A    
C23   C25   A    
C19   H53   S    
C80   C90   S    
C102  C103  A    
C130  C142  A    
Cr5   O11   S    
C5    C15   S    
C122  H38   S    
C10   C11   A    
C46   H75   S    
C79   C80   A    
C83   H73   S    
C4    C5    A    
C124  C125  A    
C57   O3    A    
C37   O25   S    
C2    H71   S    
C23   H64   S    
C54   O32   A    
C70   C75   S    
C30   O22   S    
C67   H77   S    
Cr6   O9    S    
C94   O19   A    
Cr3   O16   S    
Cr2   O14   S    
C121  C132  A    
C129  C131  A    
C89   C90   A    
C98   C104  A    
C32   H96   S    
C115  C116  A    
C11   C12   A    
C28   H86   S    
C24   C46   A    
C27   C28   S    
C33   O24   S    
