data_mof_unit_31548.cif
_audit_creation_date              2012-12-11T14:30:15-0500
_audit_creation_method            fapswitch 2.2
_symmetry_space_group_name_H-M    P1
_symmetry_Int_Tables_number       1
_space_group_crystal_system       triclinic
_cell_length_a                    12.626978
_cell_length_b                    12.626904
_cell_length_c                    27.120766
_cell_angle_alpha                 90.000197
_cell_angle_beta                  90.000117
_cell_angle_gamma                 119.999775
_cell_volume                      3744.81071146

loop_
_atom_site_label
_atom_site_type_symbol
_atom_type_description
_atom_site_fract_x
_atom_site_fract_y
_atom_site_fract_z
_atom_type_partial_charge
C1    C     C_R   0.557371 0.456183 0.822194 0.556190
C2    C     C_R   0.456190 0.557375 0.177807 0.556247
C3    C     C_R   0.004253 0.313428 0.474444 0.401893
C4    C     C_R   0.308999 0.995427 0.025525 0.401861
C5    C     C_R   0.686568 0.690832 0.474445 0.401876
C6    C     C_R   0.313417 0.004221 0.525559 0.401897
C7    C     C_R   0.996044 0.309348 0.974415 0.401931
C8    C     C_R   0.690824 0.686577 0.525557 0.401879
C9    C     C_R   0.313275 0.003943 0.974413 0.401923
C10   C     C_R   0.995749 0.309178 0.525556 0.401896
C11   C     C_R   0.690692 0.686696 0.974421 0.401904
C12   C     C_R   0.442630 0.898817 0.322193 0.556231
C13   C     C_R   0.101178 0.543808 0.177808 0.556242
C14   C     C_R   0.994358 0.501808 0.974087 -0.047805
C15   C     C_R   0.507424 0.005631 0.525913 -0.047800
C16   C     C_R   0.498221 0.492566 0.974089 -0.047797
C17   C     C_R   0.994338 0.501776 0.525910 -0.047800
C18   C     C_R   0.507408 0.005607 0.974082 -0.047801
C19   C     C_R   0.498224 0.492572 0.525912 -0.047795
C20   C     C_R   0.501775 0.994335 0.474090 -0.047800
C21   C     C_R   0.898816 0.442630 0.677806 0.556195
C22   C     C_R   0.005648 0.507433 0.025912 -0.047800
C23   C     C_R   0.492572 0.498223 0.474088 -0.047795
C24   C     C_R   0.501741 0.994303 0.025906 -0.047791
C25   C     C_R   0.005636 0.507423 0.474087 -0.047801
C26   C     C_R   0.492582 0.498236 0.025912 -0.047789
C27   C     C_R   0.994442 0.694129 0.974448 -0.054378
C28   C     C_R   0.699501 0.005229 0.525582 -0.054364
C29   C     C_R   0.305886 0.300345 0.974444 -0.054388
C30   C     C_R   0.994734 0.694252 0.525579 -0.054364
C31   C     C_R   0.699629 0.005492 0.974438 -0.054390
C32   C     C_R   0.543814 0.101181 0.822193 0.556181
C33   C     C_R   0.305743 0.300497 0.525582 -0.054374
C34   C     C_R   0.694265 0.994761 0.474417 -0.054369
C35   C     C_R   0.004906 0.699339 0.025613 -0.054337
C36   C     C_R   0.300506 0.305733 0.474417 -0.054372
C37   C     C_R   0.694379 0.995022 0.025603 -0.054351
C38   C     C_R   0.005203 0.699485 0.474415 -0.054362
C39   C     C_R   0.300667 0.305598 0.025608 -0.054356
C40   C     C_R   0.970784 0.585586 0.896229 0.212875
C41   C     C_R   0.614701 0.029091 0.603784 0.212873
C42   C     C_R   0.414442 0.385221 0.896229 0.212866
C43   C     C_R   0.557372 0.456187 0.677806 0.556203
C44   C     C_R   0.970896 0.585602 0.603782 0.212871
C45   C     C_R   0.614762 0.029186 0.896224 0.212870
C46   C     C_R   0.414402 0.385305 0.603783 0.212871
C47   C     C_R   0.585606 0.970913 0.396216 0.212873
C48   C     C_R   0.028943 0.614601 0.103799 0.212879
C49   C     C_R   0.385306 0.414399 0.396216 0.212871
C50   C     C_R   0.585627 0.971019 0.103792 0.212874
C51   C     C_R   0.029079 0.614689 0.396214 0.212872
C52   C     C_R   0.385399 0.414366 0.103796 0.212872
C53   C     C_R   0.044975 0.524406 0.128315 -0.012075
C54   C     C_R   0.898821 0.442639 0.822193 0.556168
C55   C     C_R   0.479448 0.955020 0.371685 -0.012104
C56   C     C_R   0.475591 0.520589 0.128313 -0.012073
C57   C     C_R   0.044973 0.524424 0.371684 -0.012106
C58   C     C_R   0.479406 0.954992 0.128310 -0.012071
C59   C     C_R   0.475572 0.520557 0.371686 -0.012105
C60   C     C_R   0.524427 0.044969 0.628317 -0.012114
C61   C     C_R   0.955046 0.479499 0.871682 -0.012138
C62   C     C_R   0.520557 0.475573 0.628314 -0.012109
C63   C     C_R   0.524433 0.044955 0.871680 -0.012134
C64   C     C_R   0.955019 0.479450 0.628315 -0.012111
C65   C     C_R   0.543813 0.101182 0.677807 0.556190
C66   C     C_R   0.520540 0.475551 0.871686 -0.012132
C67   C     C_R   0.987913 0.595369 0.947912 0.020028
C68   C     C_R   0.607351 0.011934 0.552103 0.020036
C69   C     C_R   0.404656 0.392567 0.947911 0.020034
C70   C     C_R   0.988038 0.595401 0.552101 0.020033
C71   C     C_R   0.607410 0.012045 0.947905 0.020033
C72   C     C_R   0.404598 0.392648 0.552102 0.020036
C73   C     C_R   0.595407 0.988051 0.447898 0.020029
C74   C     C_R   0.011784 0.607266 0.052118 0.020031
C75   C     C_R   0.392652 0.404594 0.447898 0.020034
C76   C     C_R   0.456187 0.557372 0.322194 0.556230
C77   C     C_R   0.595436 0.988158 0.052110 0.020036
C78   C     C_R   0.011923 0.607342 0.447895 0.020031
C79   C     C_R   0.392740 0.404545 0.052115 0.020035
C80   C     C_R   0.972883 0.393701 0.897808 -0.111606
C81   C     C_R   0.420852 0.027267 0.602177 -0.111618
C82   C     C_R   0.606364 0.579168 0.897816 -0.111605
C83   C     C_R   0.972708 0.393570 0.602174 -0.111614
C84   C     C_R   0.420799 0.027131 0.897807 -0.111597
C85   C     C_R   0.606440 0.579138 0.602174 -0.111624
C86   C     C_R   0.393563 0.972696 0.397828 -0.111616
C87   C     C_R   0.442625 0.898814 0.177806 0.556250
C88   C     C_R   0.027433 0.420909 0.102159 -0.111628
C89   C     C_R   0.579135 0.606444 0.397827 -0.111622
C90   C     C_R   0.393439 0.972518 0.102153 -0.111636
C91   C     C_R   0.027289 0.420857 0.397825 -0.111609
C92   C     C_R   0.579090 0.606550 0.102158 -0.111642
C93   C     C_R   0.989748 0.402303 0.948562 -0.049155
C94   C     C_R   0.412595 0.010390 0.551424 -0.049160
C95   C     C_R   0.597743 0.587444 0.948567 -0.049149
C96   C     C_R   0.989580 0.402188 0.551421 -0.049160
C97   C     C_R   0.412525 0.010241 0.948559 -0.049152
C98   C     C_R   0.101182 0.543812 0.322193 0.556229
C99   C     C_R   0.597816 0.587398 0.551422 -0.049160
C100  C     C_R   0.402181 0.989566 0.448580 -0.049163
C101  C     C_R   0.010560 0.412668 0.051407 -0.049174
C102  C     C_R   0.587394 0.597820 0.448579 -0.049161
C103  C     C_R   0.402068 0.989393 0.051402 -0.049175
C104  C     C_R   0.010410 0.412600 0.448577 -0.049160
C105  C     C_R   0.587342 0.597912 0.051409 -0.049170
C106  C     C_R   0.004539 0.313573 0.025527 0.401878
C107  C     C_R   0.309165 0.995721 0.474447 0.401894
C108  C     C_R   0.686448 0.690978 0.025532 0.401838
Cl1   Cl    Cl    0.029929 0.735875 0.137207 -0.469017
Cl2   Cl    Cl    0.736217 0.030441 0.862853 -0.468848
Cl3   Cl    Cl    0.969764 0.705845 0.637168 -0.468961
Cl4   Cl    Cl    0.294249 0.263759 0.862860 -0.468877
Cl5   Cl    Cl    0.705859 0.969812 0.362827 -0.468918
Cl6   Cl    Cl    0.264133 0.294067 0.137202 -0.469012
Cl7   Cl    Cl    0.030217 0.736066 0.362827 -0.468918
Cl8   Cl    Cl    0.705956 0.970116 0.137201 -0.469002
Cl9   Cl    Cl    0.263933 0.294158 0.362829 -0.468925
Cl10  Cl    Cl    0.736099 0.030263 0.637168 -0.468956
Cl11  Cl    Cl    0.969485 0.705769 0.862864 -0.468875
Cl12  Cl    Cl    0.294160 0.263935 0.637170 -0.468958
Cr1   Cr    Cr6+3 0.487630 0.241180 0.750000 1.174643
Cr2   Cr    Cr6+3 0.753550 0.512370 0.750000 1.174637
Cr3   Cr    Cr6+3 0.758820 0.246450 0.750000 1.174649
Cr4   Cr    Cr6+3 0.241180 0.487630 0.250000 1.174650
Cr5   Cr    Cr6+3 0.512370 0.753550 0.250000 1.174634
Cr6   Cr    Cr6+3 0.246450 0.758820 0.250000 1.174645
F1    F     F_    0.007913 0.221051 0.049683 -0.570529
F2    F     F_    0.220662 0.007089 0.950233 -0.570355
F3    F     F_    0.992501 0.213357 0.549725 -0.570447
F4    F     F_    0.786447 0.779313 0.950241 -0.570390
F5    F     F_    0.213340 0.992463 0.450279 -0.570456
F6    F     F_    0.778961 0.786877 0.049689 -0.570581
F7    F     F_    0.007515 0.220862 0.450275 -0.570452
F8    F     F_    0.213103 0.992050 0.049681 -0.570553
F9    F     F_    0.779134 0.786659 0.450277 -0.570479
F10   F     F_    0.220846 0.007471 0.549728 -0.570446
F11   F     F_    0.992915 0.213598 0.950234 -0.570348
F12   F     F_    0.786645 0.779148 0.549726 -0.570471
H1    H     H_    0.008700 0.777197 0.043897 0.274481
H2    H     H_    0.777640 0.009562 0.956178 0.274447
H3    H     H_    0.990789 0.768250 0.543850 0.274478
H4    H     H_    0.231944 0.222334 0.956184 0.274465
H5    H     H_    0.035789 0.349602 0.120865 0.246146
H6    H     H_    0.313968 0.964463 0.379107 0.246151
H7    H     H_    0.650393 0.686213 0.120866 0.246141
H8    H     H_    0.035528 0.349497 0.379105 0.246154
H9    H     H_    0.313779 0.964165 0.120861 0.246148
H10   H     H_    0.650491 0.686043 0.379108 0.246148
H11   H     H_    0.349487 0.035492 0.620898 0.246145
H12   H     H_    0.768268 0.990829 0.456146 0.274472
H13   H     H_    0.964779 0.314175 0.879074 0.246136
H14   H     H_    0.686037 0.650498 0.620894 0.246151
H15   H     H_    0.349390 0.035261 0.879074 0.246153
H16   H     H_    0.964483 0.313979 0.620895 0.246155
H17   H     H_    0.685917 0.650563 0.879087 0.246170
H18   H     H_    0.222803 0.231539 0.043890 0.274454
H19   H     H_    0.009130 0.777418 0.456143 0.274470
H20   H     H_    0.768438 0.991215 0.043884 0.274466
H21   H     H_    0.222570 0.231730 0.456146 0.274461
H22   H     H_    0.777440 0.009168 0.543852 0.274471
H23   H     H_    0.990369 0.768070 0.956188 0.274494
H24   H     H_    0.231745 0.222556 0.543852 0.274458
O1    O     O_R   0.460870 0.120930 0.805240 -0.488393
O2    O     O_R   0.120930 0.460870 0.194760 -0.488486
O3    O     O_R   0.539130 0.660060 0.305240 -0.488436
O4    O     O_R   0.339940 0.879070 0.194760 -0.488492
O5    O     O_R   0.498910 0.350470 0.801870 -0.443738
O6    O     O_R   0.851560 0.501090 0.698130 -0.443767
O7    O     O_R   0.649530 0.148440 0.801870 -0.443738
O8    O     O_R   0.498910 0.350470 0.698130 -0.443756
O9    O     O_R   0.851560 0.501090 0.801870 -0.443755
O10   O     O_R   0.649530 0.148440 0.698130 -0.443758
O11   O     O_R   0.350470 0.498910 0.301870 -0.443744
O12   O     O_R   0.660060 0.539130 0.694760 -0.488445
O13   O     O_R   0.501090 0.851560 0.198130 -0.443783
O14   O     O_R   0.148440 0.649530 0.301870 -0.443746
O15   O     O_R   0.350470 0.498910 0.198130 -0.443767
O16   O     O_R   0.501090 0.851560 0.301870 -0.443752
O17   O     O_R   0.148440 0.649530 0.198130 -0.443776
O18   O     O_3   0.666667 0.333333 0.750000 -0.313808
O19   O     O_3   0.333333 0.666667 0.250000 -0.313839
O20   O     O_R   0.879070 0.339940 0.805240 -0.488379
O21   O     O_R   0.460870 0.120930 0.694760 -0.488442
O22   O     O_R   0.660060 0.539130 0.805240 -0.488388
O23   O     O_R   0.879070 0.339940 0.694760 -0.488435
O24   O     O_R   0.120930 0.460870 0.305240 -0.488426
O25   O     O_R   0.539130 0.660060 0.194760 -0.488510
O26   O     O_R   0.339940 0.879070 0.305240 -0.488425

loop_
_geom_bond_atom_site_label_1
_geom_bond_atom_site_label_2
_ccdc_geom_bond_type
C3    C104  A    
C80   H13   S    
C12   O16   A    
C32   O7    A    
C32   O1    A    
C35   C74   A    
C89   C102  A    
C89   H10   S    
Cr5   O3    S    
C91   C104  A    
C58   C87   S    
C15   C94   A    
C88   C101  A    
C34   H12   S    
C86   H6    S    
C83   H16   S    
C44   C64   A    
Cr2   O18   S    
C22   C101  A    
C46   C62   A    
C14   C93   A    
C18   C24   A    
C84   C97   A    
C47   C55   A    
C76   O11   A    
C28   C68   A    
C8    C99   A    
Cr3   O20   S    
C43   O12   A    
C87   O4    A    
C45   C71   A    
C15   C68   A    
C61   C80   A    
Cr1   O1    S    
C4    C103  A    
C28   H22   S    
C33   C36   A    
C30   C38   A    
C8    F12   S    
C59   C89   A    
C42   Cl4   S    
C2    O25   A    
C21   C64   S    
C6    F10   S    
C33   C72   A    
C35   H1    S    
C1    O22   A    
C49   Cl9   S    
C6    C94   A    
C40   C67   A    
C6    C107  A    
C49   C75   A    
C44   C70   A    
C51   C57   A    
C18   C97   A    
C41   Cl10  S    
Cr1   O18   S    
C52   C79   A    
C86   C100  A    
C88   H5    S    
C13   C53   S    
Cr3   O10   S    
C36   H21   S    
Cr1   O21   S    
C85   H14   S    
C21   O6    A    
C11   C108  A    
C31   C71   A    
Cr1   O8    S    
C28   C34   A    
C17   C70   A    
C19   C72   A    
C48   C53   A    
C80   C93   A    
Cr1   O5    S    
C10   F3    S    
C26   C105  A    
C30   C70   A    
C43   O8    A    
C41   C68   A    
C29   C69   A    
C16   C26   A    
C15   C20   A    
C7    C93   A    
C62   C85   A    
C9    F2    S    
Cr2   O6    S    
C65   O10   A    
Cr5   O19   S    
C25   C78   A    
C50   C58   A    
C48   C74   A    
Cr6   O17   S    
C38   H19   S    
C107  F5    S    
C7    F11   S    
C5    F9    S    
C19   C99   A    
C45   Cl2   S    
Cr4   O11   S    
C38   C78   A    
C27   C35   A    
Cr2   O12   S    
C37   C77   A    
C106  F1    S    
C45   C63   A    
C42   C69   A    
C51   Cl7   S    
C40   C61   A    
C31   C37   A    
C3    F7    S    
C39   C79   A    
C37   H20   S    
Cr3   O23   S    
C19   C23   A    
C64   C83   A    
C90   H9    S    
C85   C99   A    
C36   C75   A    
C66   C82   A    
C98   O14   A    
C60   C81   A    
C24   C77   A    
C20   C100  A    
C10   C96   A    
C14   C67   A    
C29   C39   A    
C54   O20   A    
C1    C66   S    
C7    C106  A    
C46   Cl12  S    
C76   O3    A    
C17   C96   A    
C105  C108  A    
C30   H3    S    
C47   C73   A    
Cr4   O15   S    
Cr3   O7    S    
C58   C90   A    
C82   H17   S    
C2    O15   A    
C60   C65   S    
C11   F4    S    
C22   C74   A    
Cr5   O13   S    
C50   C77   A    
C101  C106  A    
Cr6   O14   S    
C13   O2    A    
C4    F8    S    
C65   O21   A    
C11   C95   A    
C18   C71   A    
C47   Cl5   S    
C5    C102  A    
C100  C107  A    
C9    C97   A    
C82   C95   A    
C57   C91   A    
C92   H7    S    
C46   C72   A    
C54   O9    A    
C16   C69   A    
C41   C60   A    
C23   C75   A    
Cr3   O18   S    
Cr6   O4    S    
C5    C8    A    
C25   C104  A    
C21   O23   A    
C54   C61   S    
C52   Cl6   S    
C32   C63   S    
C87   O13   A    
C63   C84   A    
C26   C79   A    
C49   C59   A    
C39   H18   S    
Cr5   O25   S    
C24   C103  A    
C17   C25   A    
C14   C22   A    
C55   C86   A    
Cr6   O26   S    
C33   H24   S    
C4    C9    A    
C51   C78   A    
Cr4   O19   S    
C98   O24   A    
C3    C10   A    
C13   O17   A    
C27   H23   S    
Cr4   O24   S    
C81   C94   A    
C16   C95   A    
C83   C96   A    
C81   H11   S    
C29   H4    S    
Cr2   O22   S    
C20   C73   A    
C48   Cl1   S    
C53   C88   A    
C50   Cl8   S    
C57   C98   S    
C90   C103  A    
C108  F6    S    
C12   C55   S    
C27   C67   A    
C34   C73   A    
C23   C102  A    
C44   Cl3   S    
C92   C105  A    
C56   C92   A    
C40   Cl11  S    
Cr2   O9    S    
Cr5   O16   S    
C42   C66   A    
C1    O5    A    
Cr6   O19   S    
C2    C56   S    
C31   H2    S    
C59   C76   S    
C91   H8    S    
C52   C56   A    
C43   C62   S    
Cr4   O2    S    
C84   H15   S    
C12   O26   A    
