data_mof_unit_56116.cif
_audit_creation_date              2012-12-10T16:58:28-0500
_audit_creation_method            fapswitch 2.2
_symmetry_space_group_name_H-M    P1
_symmetry_Int_Tables_number       1
_space_group_crystal_system       triclinic
_cell_length_a                    7.741112
_cell_length_b                    8.655032
_cell_length_c                    23.284163
_cell_angle_alpha                 92.324768
_cell_angle_beta                  85.160122
_cell_angle_gamma                 93.660634
_cell_volume                      1550.32399892

loop_
_atom_site_label
_atom_site_type_symbol
_atom_type_description
_atom_site_fract_x
_atom_site_fract_y
_atom_site_fract_z
_atom_type_partial_charge
C1    C     C_R   0.545157 0.794343 0.497943 0.947969
C2    C     C_R   0.454845 0.205656 0.502054 0.947970
C3    C     C_R   0.394605 0.386852 0.763262 0.205548
C4    C     C_R   0.604919 0.613359 0.236736 0.205502
C5    C     C_R   0.412394 0.378036 0.702954 0.298325
C6    C     C_R   0.587435 0.622048 0.297047 0.298318
C7    C     C_R   0.499370 0.501199 0.672784 -0.289511
C8    C     C_R   0.500588 0.498831 0.327219 -0.289527
C9    C     C_R   0.546855 0.639448 0.702617 0.039700
C10   C     C_R   0.452999 0.360627 0.297378 0.039774
C11   C     C_R   0.527175 0.645521 0.762837 0.412408
C12   C     C_R   0.472389 0.354673 0.237156 0.412409
C13   C     C_R   0.490397 0.506154 0.792612 -0.053144
C14   C     C_R   0.508983 0.494105 0.207410 -0.053180
C15   C     C_2   0.568819 0.956305 0.502503 0.117167
C16   C     C_2   0.431192 0.043694 0.497486 0.117142
C17   C     C_R   0.500664 0.499609 0.610532 0.987317
C18   C     C_R   0.499332 0.500387 0.389469 0.987316
C19   C     C_R   0.373778 0.392129 0.119720 0.652578
C20   C     C_R   0.625172 0.608271 0.880365 0.652591
C21   C     C_R   0.492748 0.646830 0.120693 0.602760
C22   C     C_R   0.506194 0.353564 0.879390 0.602737
C23   C     C_R   0.521510 0.643737 0.060698 -0.079348
C24   C     C_R   0.477275 0.356709 0.939380 -0.079323
C25   C     C_R   0.482811 0.504275 0.030087 -0.061449
C26   C     C_R   0.515936 0.496181 0.969988 -0.061450
C27   C     C_R   0.403359 0.375557 0.059550 -0.125304
C28   C     C_R   0.595425 0.624888 0.940529 -0.125309
C29   C     C_R   0.594771 0.773428 0.031389 -0.129227
C30   C     C_R   0.403960 0.227033 0.968689 -0.129240
C31   C     C_R   0.635664 0.764431 0.971873 0.422925
C32   C     C_R   0.363063 0.236031 0.028205 0.422931
H1    H     H_    0.625205 0.881049 0.054882 0.236800
H2    H     H_    0.373526 0.119410 0.945197 0.236775
H3    H     H_    0.014047 0.381033 0.456720 0.227865
H4    H     H_    0.985953 0.618967 0.543280 0.227859
N1    N     N_R   0.460638 0.510306 0.148633 -0.335239
N2    N     N_R   0.538425 0.490057 0.851433 -0.335243
N3    N     N_2   0.950330 0.457950 0.484560 -0.131592
N4    N     N_2   0.049670 0.542050 0.515440 -0.131596
O1    O     O_R   0.389250 0.738570 0.503790 -0.590740
O2    O     O_R   0.610750 0.261430 0.496210 -0.590744
O3    O     O_R   0.678390 0.711620 0.493890 -0.577406
O4    O     O_R   0.321610 0.288380 0.506110 -0.577407
O5    O     O_R   0.355400 0.513520 0.588790 -0.593557
O6    O     O_R   0.644600 0.486480 0.411210 -0.593509
O7    O     O_R   0.644550 0.486570 0.578900 -0.613774
O8    O     O_R   0.355450 0.513430 0.421100 -0.613801
O9    O     O_2   0.251333 0.300190 0.148276 -0.422256
O10   O     O_2   0.747714 0.700183 0.851840 -0.422279
O11   O     O_2   0.490052 0.783993 0.150232 -0.437261
O12   O     O_2   0.508963 0.216367 0.849874 -0.437293
Zn1   Zn    Zn3+2 0.306930 0.518000 0.506610 1.083902
Zn2   Zn    Zn3+2 0.693070 0.482000 0.493390 1.083923
Cl1   Cl    Cl    0.724582 0.935305 0.939187 -0.443678
Cl2   Cl    Cl    0.274109 0.065164 0.060888 -0.443694
I1    I     I_    0.166183 0.271358 0.804752 -0.005901
I2    I     I_    0.833111 0.728989 0.195158 -0.005855
Cl3   Cl    Cl    0.319776 0.215721 0.665311 -0.475760
Cl4   Cl    Cl    0.680226 0.784284 0.334686 -0.475788
I3    I     I_    0.634464 0.843380 0.657712 -0.040965
I4    I     I_    0.365625 0.156610 0.342264 -0.040884
Cl5   Cl    Cl    0.488166 0.827457 0.797758 -0.382703
Cl6   Cl    Cl    0.511239 0.172801 0.202162 -0.382803
Cl7   Cl    Cl    0.779618 0.023849 0.522180 -0.446378
Cl8   Cl    Cl    0.220415 0.976149 0.477793 -0.446393

loop_
_geom_bond_atom_site_label_1
_geom_bond_atom_site_label_2
_ccdc_geom_bond_type
C7    C17   S    
H3    N3    S    
C23   C29   A    
C1    C15   S    
C29   H1    S    
C25   C27   A    
C20   N2    A    
C19   N1    A    
C19   O9    S    
O3    Zn2   S    
C11   Cl5   S    
C20   O10   S    
C3    C13   A    
C21   O11   S    
C3    C5    A    
C28   C31   A    
O6    Zn2   S    
C21   C23   A    
C27   C32   A    
O5    Zn1   S    
C29   C31   A    
O2    Zn2   S    
C14   N1    S    
C30   C32   A    
C11   C13   A    
O1    Zn1   S    
C13   N2    S    
C10   I4    S    
C10   C12   A    
C2    O2    A    
O7    Zn2   S    
C9    I3    S    
C18   O6    A    
C22   O12   S    
C19   C27   A    
C24   C26   A    
C24   C30   A    
C9    C11   A    
C4    C14   A    
O8    Zn1   S    
C12   Cl6   S    
C22   C24   A    
N3    Zn2   S    
C16   Cl8   S    
C30   H2    S    
C4    I2    S    
C15   C16   D    
C15   Cl7   S    
C6    Cl4   S    
C12   C14   A    
H4    N4    S    
C23   C25   A    
C2    C16   S    
C21   N1    A    
C4    C6    A    
N4    Zn1   S    
C2    O4    A    
N3    N4    D    
C7    C9    A    
C5    Cl3   S    
C5    C7    A    
C6    C8    A    
C20   C28   A    
C31   Cl1   S    
C25   C26   A    
C26   C28   A    
O4    Zn1   S    
C1    O3    A    
C8    C10   A    
C8    C18   S    
C1    O1    A    
C17   O7    A    
C17   O5    A    
C32   Cl2   S    
C3    I1    S    
C22   N2    A    
C18   O8    A    
