data_mof_unit_68449.cif
_audit_creation_date              2012-12-10T16:55:48-0500
_audit_creation_method            fapswitch 2.2
_symmetry_space_group_name_H-M    P1
_symmetry_Int_Tables_number       1
_space_group_crystal_system       triclinic
_cell_length_a                    7.771874
_cell_length_b                    8.56003
_cell_length_c                    10.475103
_cell_angle_alpha                 91.096918
_cell_angle_beta                  85.651615
_cell_angle_gamma                 93.692934
_cell_volume                      693.362071657

loop_
_atom_site_label
_atom_site_type_symbol
_atom_type_description
_atom_site_fract_x
_atom_site_fract_y
_atom_site_fract_z
_atom_type_partial_charge
C1    C     C_R   0.545799 0.794733 0.496693 0.962523
C2    C     C_3   0.504284 0.503810 0.877168 -0.053166
C3    C     C_3   0.333133 0.488356 0.048216 -0.194817
C4    C     C_3   0.666867 0.511643 0.951784 -0.194816
C5    C     C_2   0.569929 0.958262 0.494783 -0.394280
C6    C     C_2   0.430071 0.041737 0.505216 -0.394281
C7    C     C_3   0.329061 0.764442 0.920594 -0.407357
C8    C     C_3   0.282111 0.882727 0.027826 -0.372456
C9    C     C_3   0.133000 0.822130 0.120982 -0.810932
C10   C     C_3   0.670938 0.235557 0.079406 -0.407357
C11   C     C_3   0.717889 0.117272 0.972174 -0.372464
C12   C     C_R   0.454201 0.205267 0.503306 0.962523
C13   C     C_3   0.867003 0.177869 0.879022 -0.810939
C14   C     C_R   0.502238 0.503058 0.742378 0.870285
C15   C     C_R   0.497762 0.496941 0.257622 0.870285
C16   C     C_3   0.418946 0.623850 0.966830 0.220303
C17   C     C_3   0.581054 0.376149 0.033169 0.220303
C18   C     C_3   0.580722 0.632640 0.043354 -0.239873
C19   C     C_3   0.419278 0.367359 0.956646 -0.239872
C20   C     C_3   0.495716 0.496189 0.122831 -0.053166
H1    H     H_    0.645378 0.739557 0.084242 0.127830
H2    H     H_    0.176238 0.731770 0.183656 0.271655
H3    H     H_    0.088200 0.920250 0.183166 0.234934
H4    H     H_    0.396807 0.916888 0.081606 0.215751
H5    H     H_    0.242449 0.989937 0.982786 0.207274
H6    H     H_    0.418476 0.825774 0.847335 0.154302
H7    H     H_    0.211191 0.722213 0.873289 0.207601
H8    H     H_    0.823768 0.268231 0.816347 0.271656
H9    H     H_    0.977469 0.227120 0.931614 0.245712
H10   H     H_    0.911803 0.079749 0.816837 0.234935
H11   H     H_    0.757550 0.010062 0.017214 0.207276
H12   H     H_    0.354621 0.260443 0.915758 0.127830
H13   H     H_    0.603196 0.083114 0.918391 0.215754
H14   H     H_    0.788806 0.277785 0.126712 0.207602
H15   H     H_    0.581522 0.174224 0.152664 0.154302
H16   H     H_    0.197743 0.476162 0.090640 0.147289
H17   H     H_    0.802258 0.523838 0.909361 0.147288
H18   H     H_    0.013618 0.382470 0.403581 0.185688
H19   H     H_    0.986382 0.617529 0.596418 0.185688
H20   H     H_    0.701990 0.009396 0.484812 0.180161
H21   H     H_    0.298010 0.990604 0.515187 0.180161
H22   H     H_    0.022532 0.772876 0.068391 0.245709
N1    N     N_2   0.950320 0.457950 0.465730 -0.176969
N2    N     N_2   0.049680 0.542050 0.534270 -0.176969
O1    O     O_R   0.389250 0.738570 0.508410 -0.613560
O2    O     O_R   0.610750 0.261430 0.491590 -0.613560
O3    O     O_R   0.678390 0.711620 0.486450 -0.628871
O4    O     O_R   0.321610 0.288380 0.513550 -0.628871
O5    O     O_R   0.355460 0.513510 0.697030 -0.626300
O6    O     O_R   0.644540 0.486490 0.302970 -0.626300
O7    O     O_R   0.644600 0.486560 0.675070 -0.634183
O8    O     O_R   0.355400 0.513440 0.324930 -0.634184
Zn1   Zn    Zn3+2 0.306940 0.517990 0.514670 0.921460
Zn2   Zn    Zn3+2 0.693060 0.482010 0.485330 0.921460

loop_
_geom_bond_atom_site_label_1
_geom_bond_atom_site_label_2
_ccdc_geom_bond_type
C2    C4    S    
N1    N2    D    
C13   H8    S    
C3    C19   S    
H19   N2    S    
C18   H1    S    
C2    C16   S    
N1    Zn2   S    
C15   C20   S    
C14   O7    A    
C12   O4    A    
O7    Zn2   S    
C4    C18   S    
O2    Zn2   S    
O1    Zn1   S    
H18   N1    S    
C10   H14   S    
C3    C20   S    
C15   O8    A    
O8    Zn1   S    
C8    H5    S    
C11   C13   S    
C1    O1    A    
C9    H22   S    
O6    Zn2   S    
C7    H6    S    
C3    H16   S    
O3    Zn2   S    
C1    C5    S    
C4    C17   S    
C16   C18   S    
C7    C16   S    
C8    H4    S    
C18   C20   S    
C6    C12   S    
O4    Zn1   S    
C2    C14   S    
C10   H15   S    
O5    Zn1   S    
C9    H2    S    
C5    H20   S    
C14   O5    A    
C7    C8    S    
C10   C11   S    
C19   H12   S    
C10   C17   S    
C11   H11   S    
C13   H10   S    
C11   H13   S    
C17   C20   S    
C7    H7    S    
C4    H17   S    
C12   O2    A    
C15   O6    A    
C13   H9    S    
C5    C6    D    
C9    H3    S    
C17   C19   S    
C2    C19   S    
N2    Zn1   S    
C1    O3    A    
C3    C16   S    
C8    C9    S    
C6    H21   S    
