data_mof_unit_68571.cif
_audit_creation_date              2013-03-05T15:41:59-0500
_audit_creation_method            fapswitch 2.2
_symmetry_space_group_name_H-M    P1
_symmetry_Int_Tables_number       1
_space_group_crystal_system       triclinic
_cell_length_a                    11.689651
_cell_length_b                    11.497667
_cell_length_c                    18.673506
_cell_angle_alpha                 90.175984
_cell_angle_beta                  88.730491
_cell_angle_gamma                 119.548341
_cell_volume                      2182.74033309

loop_
_atom_site_label
_atom_site_type_symbol
_atom_site_description
_atom_site_fract_x
_atom_site_fract_y
_atom_site_fract_z
_atom_type_partial_charge
O1    O     O_R   0.910960 0.572410 0.171010 -0.437336
O2    O     O_R   0.427590 0.338550 0.171010 -0.463414
O3    O     O_R   0.661450 0.089040 0.171010 -0.459645
O4    O     O_R   0.572410 0.910960 0.828990 -0.441242
O5    O     O_R   0.338550 0.427590 0.828990 -0.457644
O6    O     O_R   0.089040 0.661450 0.828990 -0.409770
O7    O     O_R   0.639750 0.528530 0.175600 -0.496800
O8    O     O_R   0.471470 0.111220 0.175600 -0.482004
O9    O     O_R   0.888780 0.360250 0.175600 -0.500354
O10   O     O_R   0.528530 0.639750 0.824400 -0.473883
O11   O     O_R   0.111220 0.471470 0.824400 -0.489224
O12   O     O_R   0.360250 0.888780 0.824400 -0.485445
C1    C     C_R   0.524629 0.460654 0.148342 0.569208
C2    C     C_R   0.563689 0.098797 0.140002 0.572311
C3    C     C_R   0.936883 0.476686 0.146177 0.588875
C4    C     C_R   0.448609 0.525701 0.856496 0.580459
C5    C     C_R   0.059341 0.539332 0.852702 0.595488
C6    C     C_R   0.475636 0.934228 0.851712 0.584821
O13   O     O_R   0.909330 0.572400 0.331540 -0.481031
O14   O     O_R   0.427600 0.336930 0.331540 -0.500438
O15   O     O_R   0.663070 0.090670 0.331540 -0.480336
O16   O     O_R   0.572400 0.909330 0.668460 -0.502447
O17   O     O_R   0.336930 0.427600 0.668460 -0.480088
O18   O     O_R   0.090670 0.663070 0.668460 -0.478885
O19   O     O_R   0.638240 0.528520 0.324410 -0.506454
O20   O     O_R   0.471480 0.109720 0.324410 -0.466218
O21   O     O_R   0.890280 0.361760 0.324410 -0.491472
O22   O     O_R   0.528520 0.638240 0.675590 -0.468860
O23   O     O_R   0.109720 0.471480 0.675590 -0.493342
O24   O     O_R   0.361760 0.890280 0.675590 -0.506337
C7    C     C_R   0.526320 0.445267 0.356903 0.538148
C8    C     C_R   0.574428 0.119941 0.360230 0.512609
C9    C     C_R   0.888257 0.459643 0.361587 0.507545
C10   C     C_R   0.425211 0.545838 0.639839 0.509192
C11   C     C_R   0.113003 0.571920 0.638345 0.502475
C12   C     C_R   0.473457 0.918224 0.642943 0.533946
Cr1   Cr    Cr6+3 0.768550 0.541320 0.250660 1.121470
Cr2   Cr    Cr6+3 0.458680 0.227230 0.250660 1.127732
Cr3   Cr    Cr6+3 0.772770 0.231450 0.250660 1.113475
Cr4   Cr    Cr6+3 0.541320 0.768550 0.749340 1.145798
Cr5   Cr    Cr6+3 0.227230 0.458680 0.749340 1.122152
Cr6   Cr    Cr6+3 0.231450 0.772770 0.749340 1.143549
O25   O     O_3   0.666667 0.333333 0.250630 -0.381462
O26   O     O_3   0.333333 0.666667 0.749370 -0.384084
C13   C     C_R   0.494683 0.018174 0.914772 0.059056
C14   C     C_R   0.972932 0.473529 0.919992 0.048293
C15   C     C_R   0.480046 0.522563 0.934033 0.028211
C16   C     C_R   0.000603 0.481019 0.072798 0.036563
C17   C     C_R   0.531446 0.062205 0.062729 0.039572
C18   C     C_R   0.515299 0.529918 0.083127 0.031695
C19   C     C_R   0.394323 0.022874 0.956869 -0.086323
C20   C     C_R   0.965042 0.357493 0.954175 -0.083580
C21   C     C_R   0.609437 0.601147 0.960919 -0.075580
C22   C     C_R   0.975927 0.358460 0.033640 -0.087420
C23   C     C_R   0.407652 0.030122 0.033304 -0.089652
C24   C     C_R   0.624166 0.615536 0.037836 -0.094079
C25   C     C_R   0.629831 0.073808 0.014470 0.033051
C26   C     C_R   0.024498 0.587239 0.027315 0.156057
C27   C     C_R   0.394739 0.490143 0.058393 0.110958
C28   C     C_R   0.940464 0.545352 0.969227 0.088266
C29   C     C_R   0.617774 0.083432 0.939904 0.091569
C30   C     C_R   0.375601 0.476814 0.984930 0.067584
C31   C     C_R   0.285246 0.025464 0.927019 0.112424
C32   C     C_R   0.931719 0.236977 0.915172 0.100529
C33   C     C_R   0.725957 0.658032 0.916321 0.117635
C34   C     C_R   0.956885 0.237394 0.067190 0.114894
C35   C     C_R   0.295538 0.002197 0.076090 0.118287
C36   C     C_R   0.748256 0.708149 0.065659 0.171200
C37   C     C_R   0.186950 0.019101 0.972805 0.485456
C38   C     C_R   0.898204 0.120876 0.953138 0.455252
C39   C     C_R   0.847347 0.738326 0.946945 0.491486
C40   C     C_R   0.914566 0.122738 0.026052 0.455097
C41   C     C_R   0.199142 0.020553 0.046686 0.478793
C42   C     C_R   0.857459 0.757421 0.020532 0.514806
C43   C     C_R   0.489425 0.962647 0.569408 0.010061
C44   C     C_R   0.068756 0.544134 0.564162 -0.000261
C45   C     C_R   0.450280 0.537177 0.563751 -0.009031
C46   C     C_R   0.934045 0.476945 0.435296 0.001604
C47   C     C_R   0.549217 0.085255 0.436073 -0.007201
C48   C     C_R   0.510264 0.474116 0.430314 0.010430
C49   C     C_R   0.596594 0.975601 0.529006 -0.059557
C50   C     C_R   0.047355 0.637407 0.527261 -0.050329
C51   C     C_R   0.357483 0.425997 0.526469 -0.060541
C52   C     C_R   0.955069 0.591186 0.472769 -0.050559
C53   C     C_R   0.642236 0.067329 0.473208 -0.058299
C54   C     C_R   0.403348 0.379636 0.470753 -0.059019
C55   C     C_R   0.421767 0.029254 0.466302 0.055600
C56   C     C_R   0.991629 0.405510 0.462433 0.062025
C57   C     C_R   0.588353 0.600255 0.459062 0.053506
C58   C     C_R   0.010716 0.415000 0.536498 0.061524
C59   C     C_R   0.411148 0.010071 0.540609 0.053322
C60   C     C_R   0.577739 0.609018 0.533402 0.055904
C61   C     C_R   0.667380 0.912361 0.546570 -0.098826
C62   C     C_R   0.101928 0.769956 0.548348 -0.095662
C63   C     C_R   0.227620 0.347682 0.549798 -0.110313
C64   C     C_R   0.899761 0.668440 0.452349 -0.095342
C65   C     C_R   0.772391 0.119387 0.449964 -0.109666
C66   C     C_R   0.333148 0.245027 0.453445 -0.098135
C67   C     C_R   0.794268 0.964144 0.524529 0.552121
C68   C     C_R   0.048060 0.844978 0.527241 0.547006
C69   C     C_R   0.154698 0.218843 0.528204 0.539418
C70   C     C_R   0.952974 0.797189 0.474057 0.546953
C71   C     C_R   0.845764 0.064499 0.471960 0.536587
C72   C     C_R   0.206365 0.169402 0.475812 0.550550
H1    H     H_    0.628423 0.825788 0.580234 0.174976
H2    H     H_    0.185112 0.816485 0.582590 0.172218
H3    H     H_    0.183822 0.381768 0.588575 0.176405
H4    H     H_    0.816052 0.631236 0.418390 0.171785
H5    H     H_    0.816441 0.197410 0.411361 0.176658
H6    H     H_    0.372595 0.197458 0.419853 0.174645
I1    I     I_    0.600208 0.882154 0.033611 -0.229967
I2    I     I_    0.224904 0.701473 0.996368 -0.288467
I3    I     I_    0.279164 0.520973 0.136288 -0.193467
I4    I     I_    0.740106 0.425245 0.013975 -0.447297
I5    I     I_    0.666772 0.244716 0.865186 -0.270335
I6    I     I_    0.214945 0.305934 0.963953 -0.236182
I7    I     I_    0.281316 0.092750 0.820543 0.013916
I8    I     I_    0.924272 0.198372 0.800983 0.042570
I9    I     I_    0.748123 0.591316 0.811432 -0.021484
I10   I     I_    0.011714 0.203245 0.172399 0.066732
I11   I     I_    0.225951 0.869745 0.168405 0.011322
I12   I     I_    0.783669 0.806559 0.169371 0.095356
F1    F     F_    0.080060 0.016798 0.945276 -0.490486
F2    F     F_    0.854710 0.002889 0.918427 -0.531927
F3    F     F_    0.958784 0.781380 0.906192 -0.532821
F4    F     F_    0.897387 0.009653 0.056051 -0.519902
F5    F     F_    0.111241 0.029959 0.090933 -0.497352
F6    F     F_    0.974055 0.801150 0.050754 -0.559592
I13   I     I_    0.279873 0.868101 0.403793 -0.190623
I14   I     I_    0.146135 0.419839 0.393124 -0.185289
I15   I     I_    0.614401 0.759900 0.390399 -0.180678
I16   I     I_    0.851437 0.278763 0.604330 -0.191579
I17   I     I_    0.388785 0.147013 0.608629 -0.175665
I18   I     I_    0.718356 0.587025 0.594816 -0.189011
F7    F     F_    0.863072 0.918652 0.559552 -0.506293
F8    F     F_    0.085678 0.958421 0.563433 -0.507101
F9    F     F_    0.041622 0.144541 0.564657 -0.513131
F10   F     F_    0.914970 0.872496 0.438158 -0.508734
F11   F     F_    0.958942 0.102894 0.435637 -0.515000
F12   F     F_    0.137540 0.054459 0.440977 -0.509207

loop_
_geom_bond_atom_site_label_1
_geom_bond_atom_site_label_2
_geom_bond_distance
_ccdc_geom_bond_type
O14   Cr2   2.102348 S    
O19   C7    1.315024 A    
O7    C1    1.292729 A    
C67   C71   1.397531 A    
C45   C60   1.405352 A    
O20   C8    1.343555 A    
C50   C62   1.390377 A    
C64   C70   1.357152 A    
O18   Cr6   2.152044 S    
C28   I4    2.195688 S    
C56   I14   2.137414 S    
C15   C30   1.410270 A    
C47   C55   1.404167 A    
C32   I8    2.171550 S    
C7    C48   1.439330 S    
O21   C9    1.330351 A    
C16   C22   1.485153 A    
O8    Cr2   1.985447 S    
C66   H6    1.067276 S    
C18   C27   1.341814 A    
C55   C59   1.398801 A    
C10   C45   1.457393 S    
C70   F10   1.338877 S    
C31   I7    2.145324 S    
C9    C46   1.465081 S    
C2    C17   1.505045 S    
C13   C19   1.420791 A    
C36   C42   1.379348 A    
C14   C20   1.441237 A    
O9    Cr3   1.986060 S    
C17   C25   1.398597 A    
O10   Cr4   1.991251 S    
C52   C64   1.389880 A    
C48   C57   1.391407 A    
O2    C1    1.359609 A    
O5    C4    1.336344 A    
C48   C54   1.391549 A    
O13   Cr1   2.154937 S    
C61   H1    1.066506 S    
C42   F6    1.336193 S    
O4    Cr4   2.108877 S    
O21   Cr3   2.017307 S    
C59   I17   2.130666 S    
O19   Cr1   1.981365 S    
C29   I5    2.155555 S    
O12   Cr6   2.027776 S    
C37   C41   1.389294 A    
O17   Cr5   2.101432 S    
O1    C3    1.355638 A    
C32   C38   1.384101 A    
C21   C33   1.432133 A    
C61   C67   1.351816 A    
C41   F5    1.349689 S    
C43   C59   1.392672 A    
C15   C21   1.427988 A    
O4    C6    1.344575 A    
C38   F2    1.359362 S    
C64   H4    1.074985 S    
O3    Cr3   2.134439 S    
C34   I10   2.175655 S    
Cr6   O26   2.083211 S    
C3    C16   1.534108 S    
C35   I11   2.164414 S    
C4    C15   1.506557 S    
C20   C22   1.491667 A    
C33   I9    2.157799 S    
O15   C8    1.338746 A    
C34   C40   1.392870 A    
C11   C44   1.467847 S    
O18   C11   1.320014 A    
C31   C37   1.389459 A    
C19   C31   1.416487 A    
C5    C14   1.538659 S    
C20   C32   1.440923 A    
C36   I12   2.182290 S    
C69   F9    1.338038 S    
C43   C49   1.391245 A    
Cr3   O25   2.084149 S    
C33   C39   1.390512 A    
C45   C51   1.398494 A    
C18   C24   1.423275 A    
C72   F12   1.336477 S    
C40   F4    1.336644 S    
Cr1   O25   2.080378 S    
C30   I6    1.982200 S    
C12   C43   1.442289 S    
C71   F11   1.338396 S    
C49   C61   1.388479 A    
O2    Cr2   2.115874 S    
O15   Cr3   2.104141 S    
C62   C68   1.358205 A    
C27   I3    2.109229 S    
O17   C10   1.339792 A    
O16   Cr4   2.108013 S    
C68   C70   1.402457 A    
O7    Cr1   2.031499 S    
C67   F7    1.337357 S    
C51   C63   1.389231 A    
C57   C60   1.398718 A    
C25   C29   1.412787 A    
C65   C71   1.361506 A    
O3    C2    1.345366 A    
C63   H3    1.058190 S    
C35   C41   1.370583 A    
C56   C58   1.401157 A    
C60   I18   2.139252 S    
C69   C72   1.397892 A    
C50   C52   1.400539 A    
C37   F1    1.349807 S    
O13   C9    1.318944 A    
Cr5   O26   2.081240 S    
C26   I2    2.111175 S    
C44   C50   1.401540 A    
C6    C13   1.469838 S    
C47   C53   1.400372 A    
C21   C24   1.449615 A    
C46   C56   1.395517 A    
O6    C5    1.343211 A    
O5    Cr5   2.140365 S    
C62   H2    1.073760 S    
C27   C30   1.390638 A    
O8    C2    1.320565 A    
C14   C28   1.400099 A    
O24   Cr6   1.982668 S    
O20   Cr2   1.991076 S    
C17   C23   1.428139 A    
O11   C5    1.306084 A    
C39   C42   1.389295 A    
C23   C35   1.413916 A    
C16   C26   1.396543 A    
C22   C34   1.439870 A    
O1    Cr1   2.101880 S    
O16   C12   1.310198 A    
O23   C11   1.333733 A    
C63   C69   1.360044 A    
C57   I15   2.133500 S    
O24   C12   1.316017 A    
C24   C36   1.419322 A    
C55   I13   2.141992 S    
C65   H5    1.058987 S    
O9    C3    1.287883 A    
C58   I16   2.134460 S    
Cr2   O25   2.115169 S    
O10   C4    1.312720 A    
C8    C47   1.456272 S    
C25   I1    2.085699 S    
C66   C72   1.353049 A    
C13   C29   1.347789 A    
O11   Cr5   1.984052 S    
C19   C23   1.436927 A    
C54   C66   1.388963 A    
C53   C65   1.391276 A    
O22   C10   1.341161 A    
C1    C18   1.492193 S    
C46   C52   1.399622 A    
Cr4   O26   2.115244 S    
C51   C54   1.381232 A    
O6    Cr6   2.102885 S    
O12   C6    1.298523 A    
O22   Cr4   1.984719 S    
O23   Cr5   2.022284 S    
C39   F3    1.357742 S    
C38   C40   1.377749 A    
C26   C28   1.396735 A    
C49   C53   1.381923 A    
C68   F8    1.339192 S    
C44   C58   1.396026 A    
O14   C7    1.307831 A    
