data_mof_unit_38678.cif
_audit_creation_date              2013-03-05T17:01:40-0500
_audit_creation_method            fapswitch 2.2
_symmetry_space_group_name_H-M    P1
_symmetry_Int_Tables_number       1
_space_group_crystal_system       triclinic
_cell_length_a                    10.857884
_cell_length_b                    16.166238
_cell_length_c                    16.657548
_cell_angle_alpha                 86.263129
_cell_angle_beta                  93.024646
_cell_angle_gamma                 93.344772
_cell_volume                      2909.21108306

loop_
_atom_site_label
_atom_site_type_symbol
_atom_site_description
_atom_site_fract_x
_atom_site_fract_y
_atom_site_fract_z
_atom_type_partial_charge
O1    O     O_R   0.494470 0.422540 0.612660 -0.651846
O2    O     O_R   0.504400 0.561840 0.618900 -0.640392
C1    C     C_R   0.498110 0.487701 0.653232 0.927741
O3    O     O_R   0.680240 0.430340 0.496890 -0.575597
O4    O     O_R   0.690170 0.569650 0.503130 -0.615855
C2    C     C_R   0.743245 0.500071 0.502289 1.005103
Zn1   Zn    Zn3+2 0.493370 0.406980 0.495830 1.029590
Zn2   Zn    Zn3+2 0.506630 0.593020 0.504170 1.044848
O5    O     O_R   0.495600 0.438160 0.381100 -0.578635
O6    O     O_R   0.505530 0.577460 0.387340 -0.518765
O7    O     O_R   0.309830 0.430350 0.496870 -0.618886
O8    O     O_R   0.319760 0.569660 0.503110 -0.600410
C3    C     C_R   0.507657 0.512407 0.346331 0.971997
C4    C     C_R   0.260214 0.497709 0.510862 0.907321
C5    C     C_3   0.924819 0.408179 0.537988 0.087101
H1    H     H_    0.911351 0.402667 0.603203 0.163045
C6    C     C_3   0.065415 0.399485 0.525344 0.189507
H2    H     H_    0.913816 0.470317 0.386721 0.165747
H3    H     H_    0.119633 0.512012 0.383844 0.206489
C7    C     C_3   0.934838 0.523615 0.424536 0.040907
C8    C     C_3   0.939128 0.564738 0.574320 0.352353
C9    C     C_3   0.881329 0.499949 0.509414 -0.275724
C10   C     C_3   0.124593 0.493928 0.518310 -0.062313
C11   C     C_3   0.076329 0.535813 0.436224 -0.471127
C12   C     C_3   0.083776 0.547319 0.591414 0.196165
H4    H     H_    0.107330 0.602109 0.433713 0.269559
C13   C     C_R   0.488608 0.475883 0.739644 -0.106795
C14   C     C_R   0.422803 0.530667 0.779713 -0.323387
C15   C     C_R   0.407997 0.517767 0.862158 0.294328
C16   C     C_R   0.468961 0.452227 0.905351 0.226181
C17   C     C_R   0.529092 0.394106 0.864291 0.099043
C18   C     C_R   0.537579 0.406229 0.781177 -0.141598
C19   C     C_R   0.601704 0.460920 0.141874 -0.165018
C20   C     C_R   0.601849 0.462253 0.225168 0.116253
C21   C     C_R   0.550270 0.524418 0.092856 0.261756
N1    N     N_2   0.485858 0.452388 0.989548 -0.128557
N2    N     N_2   0.539386 0.518823 0.009112 -0.143465
C22   C     C_R   0.535108 0.522687 0.259848 -0.155764
H5    H     H_    0.645122 0.411625 0.114656 0.177337
H6    H     H_    0.585973 0.362683 0.749227 0.194590
C23   C     C_R   0.498560 0.593050 0.210351 0.252798
C24   C     C_R   0.508937 0.594328 0.126409 0.023470
H7    H     H_    0.380092 0.582031 0.746315 0.197754
N3    N     N_R   0.515460 0.716920 0.509720 -0.162957
C25   C     C_R   0.433823 0.764338 0.462453 0.317569
C26   C     C_R   0.448748 0.852157 0.456657 0.100433
C27   C     C_R   0.538180 0.893278 0.506181 0.073386
C28   C     C_R   0.610995 0.845102 0.560705 0.210955
C29   C     C_R   0.597474 0.756807 0.562824 0.024029
C30   C     C_R   0.520852 0.153659 0.567870 0.190742
C31   C     C_R   0.522742 0.241188 0.560068 -0.097009
C32   C     C_R   0.481403 0.108364 0.500487 0.087824
N4    N     N_2   0.558209 0.982086 0.501968 -0.020480
N5    N     N_2   0.461992 0.020025 0.506610 -0.038320
N6    N     N_R   0.484530 0.283060 0.490290 -0.173920
H8    H     H_    0.553416 0.276282 0.611070 0.205511
C33   C     C_R   0.446688 0.240031 0.423930 0.293661
C34   C     C_R   0.444629 0.152209 0.428429 0.101060
N7    N     N_R   0.850237 0.336635 0.506936 0.238405
O9    O     O_R   0.812802 0.276386 0.557041 -0.342355
O10   O     O_R   0.824029 0.330621 0.430313 -0.420422
C35   C     C_3   0.164569 0.630225 0.601461 -0.762004
H9    H     H_    0.172872 0.668676 0.545095 0.269116
H10   H     H_    0.126746 0.668468 0.646363 0.270070
H11   H     H_    0.259658 0.618533 0.625611 0.238795
N8    N     N_R   0.880103 0.594959 0.378391 0.226847
O11   O     O_R   0.767057 0.586945 0.349323 -0.396692
O12   O     O_R   0.949440 0.656465 0.348137 -0.285458
C36   C     C_3   0.686105 0.404776 0.273329 -0.635394
H12   H     H_    0.697426 0.419494 0.337045 0.257017
H13   H     H_    0.652658 0.339296 0.268657 0.280555
H14   H     H_    0.779922 0.412340 0.249342 0.225366
C37   C     C_3   0.590344 0.321490 0.907448 -0.734870
H15   H     H_    0.575074 0.316472 0.972955 0.250677
H16   H     H_    0.552517 0.263005 0.881837 0.262888
H17   H     H_    0.691354 0.327857 0.899227 0.255897
N9    N     N_R   0.457825 0.665162 0.244393 0.240493
O13   O     O_R   0.538299 0.713166 0.282435 -0.287792
O14   O     O_R   0.351583 0.693705 0.220202 -0.283730
N10   N     N_R   0.332738 0.571480 0.901921 0.209694
O15   O     O_R   0.275978 0.544206 0.966113 -0.342410
O16   O     O_R   0.309971 0.644837 0.869597 -0.352715
C38   C     C_3   0.474232 0.669675 0.073036 -0.563766
H18   H     H_    0.520096 0.726716 0.097137 0.255391
H19   H     H_    0.503740 0.667344 0.010523 0.241684
H20   H     H_    0.372591 0.674661 0.070386 0.285990
N11   N     N_R   0.556373 0.112808 0.644428 0.255148
O17   O     O_R   0.514573 0.037599 0.664276 -0.289940
O18   O     O_R   0.623981 0.153036 0.697523 -0.332253
N12   N     N_R   0.696030 0.886336 0.616038 0.241273
O19   O     O_R   0.779359 0.940840 0.589218 -0.287473
O20   O     O_R   0.681749 0.876227 0.693189 -0.295337
C39   C     C_3   0.665092 0.708836 0.630046 -0.590103
H21   H     H_    0.756835 0.739173 0.645097 0.244588
H22   H     H_    0.609712 0.704276 0.684461 0.249640
H23   H     H_    0.683612 0.646536 0.614506 0.278348
N13   N     N_R   0.411949 0.282896 0.348682 0.245310
O21   O     O_R   0.454405 0.260846 0.282156 -0.334624
O22   O     O_R   0.319146 0.330377 0.343862 -0.375971
N14   N     N_R   0.375039 0.898338 0.397622 0.281300
O23   O     O_R   0.382504 0.885324 0.321816 -0.206252
O24   O     O_R   0.281243 0.936296 0.419851 -0.264916
N15   N     N_R   0.402754 0.107219 0.359936 0.278131
O25   O     O_R   0.293322 0.117477 0.326348 -0.248437
O26   O     O_R   0.477793 0.060931 0.327244 -0.265895
N16   N     N_R   0.322154 0.727671 0.426276 0.230196
O27   O     O_R   0.218298 0.763145 0.430475 -0.343168
O28   O     O_R   0.324991 0.668382 0.378078 -0.293253
C40   C     C_3   0.122267 0.341973 0.596358 -0.798984
H24   H     H_    0.119650 0.275871 0.581297 0.262185
H25   H     H_    0.220291 0.359183 0.611921 0.238076
H26   H     H_    0.071467 0.338105 0.652256 0.235811
C41   C     C_3   0.083770 0.350184 0.448405 -0.593037
H27   H     H_    0.055738 0.381202 0.390008 0.222628
H28   H     H_    0.178920 0.331953 0.445569 0.269993
H29   H     H_    0.033932 0.288283 0.451714 0.265390
C42   C     C_3   0.924244 0.657832 0.541390 -0.737305
H30   H     H_    0.985896 0.678362 0.492979 0.267553
H31   H     H_    0.832004 0.673006 0.517197 0.263015
H32   H     H_    0.945262 0.701603 0.589362 0.250311
N17   N     N_R   0.874142 0.555210 0.651199 0.188051
O29   O     O_R   0.902331 0.606440 0.707396 -0.367607
O30   O     O_R   0.790228 0.496073 0.665699 -0.460567
C43   C     C_3   0.109064 0.501300 0.675951 -0.760042
H33   H     H_    0.200707 0.474105 0.679817 0.197280
H34   H     H_    0.112291 0.544239 0.725641 0.292537
H35   H     H_    0.036488 0.454355 0.693504 0.247787

loop_
_geom_bond_atom_site_label_1
_geom_bond_atom_site_label_2
_geom_bond_distance
_ccdc_geom_bond_type
N3    C29   1.384005 A    
N8    O12   1.302624 A    
N11   O17   1.300998 A    
C39   H21   1.108299 S    
C23   C24   1.407422 A    
Zn1   N6    2.007921 S    
N13   O21   1.300841 A    
N12   O19   1.301107 A    
C6    C41   1.579910 S    
N4    N5    1.250217 D    
C25   N16   1.438832 S    
Zn1   O7    2.051064 S    
C6    C10   1.621057 S    
C8    C12   1.618965 S    
C7    N8    1.480029 S    
C14   C15   1.391921 A    
C21   N2    1.402106 S    
C11   H4    1.103307 S    
C40   H25   1.105962 S    
C23   N9    1.431444 S    
C16   C17   1.406916 A    
O7    C4    1.282629 A    
C17   C37   1.505945 S    
N16   O27   1.301698 A    
C8    C42   1.582214 S    
C5    H1    1.100921 S    
C2    C9    1.497836 S    
C5    C6    1.567603 S    
C31   H8    1.079573 S    
C37   H15   1.109381 S    
C36   H13   1.105174 S    
C21   C24   1.399674 A    
O5    C3    1.300891 A    
C35   H10   1.110238 S    
O1    Zn1   1.977811 S    
C5    C9    1.617564 S    
C38   H18   1.110441 S    
C30   C32   1.413960 A    
C10   C11   1.564566 S    
H2    C7    1.106285 S    
C27   N4    1.437167 S    
C41   H29   1.109075 S    
C10   C12   1.631838 S    
N8    O11   1.297972 A    
N7    O9    1.301587 A    
C39   H22   1.110055 S    
C28   N12   1.436971 S    
C8    C9    1.630678 S    
C37   H16   1.110578 S    
O3    Zn1   2.041443 S    
N13   O22   1.297950 A    
C32   N5    1.429168 S    
C30   C31   1.411572 A    
N9    O14   1.301856 A    
N7    O10   1.301587 A    
C27   C28   1.400150 A    
C7    C11   1.541128 S    
C22   C23   1.423762 A    
N10   O16   1.301656 A    
C42   H32   1.107689 S    
N9    O13   1.301466 A    
O1    C1    1.285741 A    
C4    C10   1.481666 S    
C36   H14   1.111006 S    
C15   C16   1.417980 A    
N12   O20   1.301169 A    
C17   C18   1.392719 A    
Zn2   O8    2.041443 S    
C33   N13   1.435603 S    
C35   H9    1.096553 S    
N14   O24   1.301227 A    
C19   C20   1.388958 A    
C3    C22   1.483282 S    
N15   O26   1.300553 A    
C19   H5    1.084606 S    
C20   C36   1.506153 S    
N17   O29   1.302732 A    
C32   C34   1.405033 A    
C30   N11   1.441958 S    
C43   H35   1.099104 S    
O3    C2    1.289802 A    
C28   C29   1.424706 A    
C38   H19   1.109106 S    
O8    C4    1.299669 A    
C39   H23   1.088537 S    
N6    C33   1.376070 A    
C37   H17   1.110436 S    
C40   H26   1.103506 S    
C13   C14   1.393417 A    
N3    C25   1.385724 A    
C43   H34   1.112296 S    
C41   H27   1.101507 S    
Zn1   O5    1.945492 S    
C26   N14   1.433843 S    
C26   C27   1.406062 A    
N1    N2    1.245109 D    
C35   H11   1.110203 S    
C13   C18   1.399583 A    
C20   C22   1.419053 A    
C5    N7    1.478359 S    
O2    Zn2   1.945492 S    
C24   C38   1.514341 S    
Zn2   N3    2.007616 S    
C7    C9    1.572634 S    
N10   O15   1.301523 A    
O6    C3    1.292785 A    
C6    C40   1.578402 S    
O4    Zn2   2.051065 S    
C14   H7    1.082373 S    
C16   N1    1.404971 S    
C42   H31   1.094903 S    
O2    C1    1.293621 A    
C40   H24   1.111919 S    
C33   C34   1.415772 A    
O4    C2    1.294645 A    
C15   N10   1.440601 S    
N16   O28   1.292504 A    
C1    C13   1.447952 S    
N14   O23   1.301063 A    
C19   C21   1.393500 A    
H3    C11   1.112912 S    
C31   N6    1.364071 A    
C12   C35   1.571779 S    
C18   H6    1.084642 S    
C8    N17   1.489491 S    
C36   H12   1.101772 S    
C12   C43   1.567894 S    
N17   O30   1.301514 A    
C25   C26   1.417070 A    
C38   H20   1.109576 S    
Zn2   O6    1.977813 S    
N15   O25   1.301193 A    
N11   O18   1.301837 A    
C34   N15   1.432578 S    
C29   C39   1.503600 S    
C42   H30   1.097583 S    
C43   H33   1.108211 S    
C41   H28   1.094958 S    
