data_mof_unit_66793.cif
_audit_creation_date              2013-03-05T15:41:06-0500
_audit_creation_method            fapswitch 2.2
_symmetry_space_group_name_H-M    P1
_symmetry_Int_Tables_number       1
_space_group_crystal_system       triclinic
_cell_length_a                    8.416231
_cell_length_b                    14.559233
_cell_length_c                    15.267421
_cell_angle_alpha                 94.184203
_cell_angle_beta                  99.58971
_cell_angle_gamma                 91.241283
_cell_volume                      1838.62910891

loop_
_atom_site_label
_atom_site_type_symbol
_atom_site_description
_atom_site_fract_x
_atom_site_fract_y
_atom_site_fract_z
_atom_type_partial_charge
P1    P     P_3+3 0.947560 0.714050 0.560480 0.509410
O1    O     O_2   0.113690 0.728200 0.532750 -0.370331
O2    O     O_3   0.871900 0.612110 0.540440 -0.287264
O3    O     O_3   0.325660 0.668890 0.372600 -0.293431
O4    O     O_2   0.249409 0.828510 0.442488 -0.358228
O5    O     O_3   0.967731 0.741515 0.675976 -0.674089
O6    O     O_3   0.239904 0.825653 0.273217 -0.474340
H1    H     H_    0.326018 0.723461 0.193008 0.079577
C1    C     C_3   0.236649 0.837699 0.118526 -0.852123
H2    H     H_    0.117954 0.801315 0.096197 0.283117
H3    H     H_    0.217857 0.912569 0.130547 0.277181
P2    P     P_3+3 0.325150 0.423860 0.297970 0.536842
P3    P     P_3+3 0.861392 0.618225 0.213683 0.591986
O7    O     O_2   0.147570 0.451710 0.282630 -0.313284
O8    O     O_3   0.905540 0.621350 0.329600 -0.297900
O9    O     O_2   0.996627 0.562372 0.180078 -0.305528
O10   O     O_3   0.303816 0.303460 0.306333 -0.590840
O11   O     O_3   0.896766 0.729463 0.183921 -0.481166
C2    C     C_3   0.770213 0.783919 0.203707 0.408560
H4    H     H_    0.759320 0.783004 0.275240 0.075937
H5    H     H_    0.655340 0.758684 0.161079 -0.003457
C3    C     C_3   0.803921 0.882914 0.184459 -0.884342
H6    H     H_    0.916677 0.910572 0.227685 0.299529
H7    H     H_    0.817016 0.885874 0.113494 0.243987
C4    C     C_3   0.711237 0.292003 0.272933 0.612462
H8    H     H_    0.609860 0.311570 0.307405 0.053025
C5    C     C_3   0.656150 0.225446 0.190663 0.034104
H9    H     H_    0.763929 0.203540 0.161749 0.172571
H10   H     H_    0.605007 0.161604 0.212029 0.133100
Ba1   Ba    Ba6+2 0.142880 0.544780 0.454020 1.696629
C6    C     C_3   0.124445 0.737770 0.724086 1.092526
H11   H     H_    0.186120 0.676212 0.700976 0.033071
C7    C     C_3   0.222289 0.826007 0.716351 -0.910965
H12   H     H_    0.282530 0.820174 0.657089 0.230077
H13   H     H_    0.318001 0.839499 0.775470 0.244752
H14   H     H_    0.144606 0.886497 0.714072 0.218170
C8    C     C_3   0.244053 0.243339 0.229732 0.596440
H15   H     H_    0.345044 0.203162 0.212506 0.085401
C9    C     C_3   0.161601 0.285245 0.145344 -0.157280
H16   H     H_    0.255775 0.316248 0.114288 0.150322
H17   H     H_    0.071343 0.335557 0.158571 0.198719
P4    P     P_3+3 0.862730 0.285940 0.439440 0.565852
O12   O     O_2   0.696600 0.271740 0.467230 -0.374246
O13   O     O_3   0.938380 0.387880 0.459490 -0.366508
O14   O     O_3   0.484630 0.331100 0.627330 -0.402601
O15   O     O_3   0.833759 0.250589 0.325953 -0.529481
P5    P     P_3+3 0.957729 0.375235 0.786049 0.529602
O16   O     O_3   0.389110 0.548970 0.605210 -0.309464
O17   O     O_3   0.904740 0.378630 0.670330 -0.366797
O18   O     O_2   0.817516 0.419707 0.825921 -0.329800
O19   O     O_3   0.951234 0.258785 0.809190 -0.481349
Ba2   Ba    Ba6+2 0.667290 0.455210 0.545900 1.665508
P6    P     P_3+3 0.346122 0.789010 0.372202 0.528556
C10   C     C_3   0.322799 0.799855 0.203395 0.396236
H18   H     H_    0.447091 0.830117 0.217183 -0.002092
H19   H     H_    0.310368 0.828318 0.065034 0.196470
O20   O     O_3   0.421180 0.451020 0.394720 -0.302646
C11   C     C_3   0.649670 0.745290 0.750055 0.519766
H20   H     H_    0.745878 0.697171 0.743880 0.141101
H21   H     H_    0.656877 0.797138 0.701044 0.064880
C12   C     C_3   0.684961 0.797881 0.841185 -1.066484
H22   H     H_    0.713723 0.750241 0.894183 0.304578
H23   H     H_    0.792298 0.844564 0.844645 0.255380
H24   H     H_    0.580750 0.839335 0.853064 0.248736
P7    P     P_3+3 0.484951 0.583296 0.716658 0.562867
O21   O     O_2   0.662730 0.548230 0.717350 -0.360106
O22   O     O_3   0.492153 0.704928 0.732593 -0.574159
H25   H     H_    0.702752 0.926512 0.197876 0.210025
C13   C     C_3   0.046792 0.209288 0.755723 0.295542
H26   H     H_    0.014006 0.224039 0.684761 -0.015254
H27   H     H_    0.175551 0.228877 0.779349 0.029365
C14   C     C_3   0.022122 0.104628 0.758163 0.705988
H28   H     H_    0.074109 0.071055 0.702057 -0.092575
P8    P     P_3+3 0.453739 0.210422 0.614457 0.399357
C15   C     C_3   0.559553 0.200953 0.786145 0.386095
H29   H     H_    0.546002 0.268952 0.821712 0.036645
O23   O     O_2   0.612304 0.163867 0.599573 -0.425130
O24   O     O_3   0.424152 0.180930 0.719990 -0.639891
H30   H     H_    0.672669 0.204077 0.759115 0.213547
H31   H     H_    0.474697 0.140822 0.895500 0.100452
C16   C     C_3   0.564577 0.125443 0.851110 0.107076
H32   H     H_    0.528530 0.058533 0.811629 0.127346
C17   C     C_R   0.020865 0.938261 0.525023 -0.154236
C18   C     C_R   0.819462 0.804257 0.499852 0.155639
C19   C     C_R   0.654830 0.781879 0.474904 0.049903
C20   C     C_R   0.558128 0.829196 0.411223 0.145676
C21   C     C_R   0.618073 0.910583 0.385195 -0.396723
C22   C     C_R   0.760364 0.954068 0.434266 -0.053386
C23   C     C_R   0.870024 0.897729 0.486502 -0.089663
C24   C     C_R   0.943934 0.092839 0.478226 -0.127152
C25   C     C_R   0.061316 0.032126 0.518097 0.013328
C26   C     C_R   0.990902 0.190469 0.483138 0.316258
C27   C     C_R   0.154610 0.215928 0.505142 -0.473611
C28   C     C_R   0.266582 0.158012 0.545917 0.253837
C29   C     C_R   0.219376 0.066368 0.553742 -0.238146
C30   C     C_R   0.791657 0.052008 0.433372 0.609898
H33   H     H_    0.545943 0.942078 0.331564 0.175752
H34   H     H_    0.305765 0.021979 0.588894 0.146940
H35   H     H_    0.196137 0.283239 0.491929 0.144307
H36   H     H_    0.108506 0.897389 0.561880 0.176078
C31   C     C_R   0.236665 0.478303 0.769148 0.142087
C32   C     C_R   0.156037 0.435058 0.829371 0.116504
C33   C     C_R   0.227146 0.437702 0.919978 -0.391938
C34   C     C_R   0.365847 0.495204 0.953819 -0.067491
C35   C     C_R   0.427232 0.550223 0.892097 0.507536
C36   C     C_R   0.378984 0.530495 0.799640 0.005948
C37   C     C_R   0.603639 0.533898 0.082456 0.252765
C38   C     C_R   0.654216 0.565114 0.172593 0.037086
C39   C     C_R   0.417777 0.485158 0.210390 0.189134
C40   C     C_R   0.348321 0.480503 0.119083 -0.372499
C41   C     C_R   0.439993 0.503097 0.052553 0.034228
C42   C     C_R   0.556478 0.542354 0.235487 0.003885
H37   H     H_    0.170309 0.397056 0.963281 0.221452
H38   H     H_    0.222590 0.460479 0.100584 0.189060
O25   O     O_3   0.535216 0.264819 0.130358 -0.664180
C43   C     C_3   0.586069 0.279551 0.049136 -0.089520
H39   H     H_    0.659485 0.223214 0.025623 0.182686
H40   H     H_    0.657509 0.345348 0.055965 0.199129
H41   H     H_    0.477078 0.284837 0.997305 0.155815
O26   O     O_3   0.113231 0.735688 0.815402 -0.669406
C44   C     C_3   0.037969 0.653372 0.833882 -0.219694
H42   H     H_    0.991658 0.605445 0.774449 0.154579
H43   H     H_    0.936616 0.670571 0.868952 0.200456
H44   H     H_    0.123486 0.617808 0.881597 0.138991
Br1   Br    Br    0.108644 0.148775 0.266535 -0.537183
Br2   Br    Br    0.058369 0.195021 0.053513 -0.456586
O27   O     O_3   0.856558 0.082335 0.752925 -0.569246
C45   C     C_3   0.813688 0.996464 0.705268 -0.168151
H45   H     H_    0.894435 0.941408 0.730417 0.149265
H46   H     H_    0.811528 0.002702 0.633303 0.128140
H47   H     H_    0.689747 0.976153 0.713616 0.152424
Br3   Br    Br    0.141084 0.061272 0.866243 -0.531319
O28   O     O_3   0.720197 0.120714 0.901702 -0.536277
C46   C     C_3   0.721318 0.046413 0.956397 0.016109
H48   H     H_    0.844710 0.039834 0.993918 0.213728
H49   H     H_    0.689320 0.980290 0.915976 0.098830
H50   H     H_    0.638305 0.057666 0.005590 0.089368
Br4   Br    Br    0.553297 0.699052 0.540244 -0.389323
O29   O     O_3   0.685106 0.105644 0.380379 -0.626256
C47   C     C_3   0.524973 0.101854 0.398966 -0.107865
H51   H     H_    0.481230 0.171860 0.410588 0.192394
H52   H     H_    0.509569 0.062706 0.457058 0.128711
H53   H     H_    0.441353 0.073343 0.338838 0.136103
Br5   Br    Br    0.767832 0.515386 0.008196 -0.471991
O30   O     O_3   0.529929 0.625617 0.920778 -0.582999
C48   C     C_3   0.446603 0.696457 0.960021 -0.259432
H54   H     H_    0.360454 0.671981 0.001871 0.130579
H55   H     H_    0.383016 0.737424 0.907682 0.213993
H56   H     H_    0.536144 0.743377 0.004030 0.162932
Br6   Br    Br    0.614707 0.585033 0.356687 -0.399482
O31   O     O_3   0.164451 0.479926 0.681308 -0.623950
C49   C     C_3   0.197741 0.397793 0.634315 0.215869
H57   H     H_    0.239047 0.341007 0.676683 -0.000591
H58   H     H_    0.268721 0.411593 0.582709 0.154173
H59   H     H_    0.091600 0.369842 0.591168 0.102026
Br7   Br    Br    0.815246 0.392699 0.234939 -0.490619

loop_
_geom_bond_atom_site_label_1
_geom_bond_atom_site_label_2
_geom_bond_distance
_ccdc_geom_bond_type
C21   C22   1.412531 A    
C22   C30   1.445895 A    
C27   C28   1.379203 A    
O3    P6    1.754153 S    
C5    H10   1.108739 S    
P8    C28   1.854889 S    
C2    H4    1.112097 S    
C47   H53   1.107608 S    
C45   H45   1.110571 S    
C33   H37   1.079951 S    
C30   O29   1.396193 S    
C16   H32   1.115763 S    
C29   H34   1.084109 S    
P5    O17   1.753239 S    
C19   C20   1.393052 A    
P1    Ba1   3.449462 S    
P1    C18   1.910560 S    
C31   C32   1.405742 A    
P3    O11   1.746305 S    
Ba1   O16   2.829597 S    
C2    H5    1.110548 S    
C47   H52   1.112285 S    
O11   C2    1.401113 S    
C13   H26   1.110376 S    
H31   C16   1.112508 S    
O12   Ba2   2.880585 S    
C11   H21   1.108593 S    
O25   C43   1.406612 S    
Ba1   O20   2.972186 S    
C7    H14   1.107301 S    
C43   H39   1.111898 S    
C13   H27   1.107763 S    
P1    O1    1.540806 D    
P4    O15   1.746450 S    
C12   H23   1.110445 S    
C40   C41   1.426199 A    
P2    C39   1.919211 S    
C44   H44   1.101489 S    
Ba1   Ba2   4.647724 S    
P4    O12   1.541305 D    
P7    O22   1.768172 S    
P8    O23   1.552339 D    
P2    O10   1.774255 S    
O31   C49   1.406932 S    
C6    C7    1.533334 S    
C14   Br3   1.937170 S    
P6    C20   1.852207 S    
O16   P7    1.787937 S    
C1    H2    1.109959 S    
C27   H35   1.077383 S    
C8    Br1   1.941204 S    
O13   Ba2   2.969501 S    
C11   C12   1.518980 S    
O5    C6    1.402949 S    
C9    Br2   1.929257 S    
C4    Br7   1.868083 S    
Ba1   O13   2.844791 S    
C12   H22   1.103767 S    
P4    O13   1.590488 S    
O7    Ba1   2.864265 S    
P3    C38   1.880988 S    
C34   C35   1.432125 A    
O30   C48   1.412679 S    
P5    O18   1.548327 D    
C48   H55   1.105254 S    
C17   C23   1.404956 A    
O29   C47   1.423516 S    
C14   O27   1.411692 S    
P1    O5    1.758541 S    
C42   Br6   1.888700 S    
C2    C3    1.521846 S    
C47   H51   1.103402 S    
C9    H17   1.099094 S    
C39   C42   1.401875 A    
H1    C10   1.113525 S    
C9    H16   1.094399 S    
C20   C21   1.387839 A    
C15   C16   1.530138 S    
P5    O19   1.758428 S    
O14   Ba2   2.831648 S    
C4    H8    1.106518 S    
C31   O31   1.379180 S    
C38   C42   1.416431 A    
O14   P8    1.762389 S    
P1    O2    1.590510 S    
O2    Ba1   2.968797 S    
C15   H29   1.111340 S    
C8    H15   1.098787 S    
C48   H56   1.108164 S    
C24   C26   1.460320 A    
C6    H11   1.110034 S    
C49   H59   1.070794 S    
C37   C38   1.409507 A    
O17   Ba2   2.826040 S    
C35   O30   1.380709 S    
C7    H12   1.107420 S    
C28   C29   1.403016 A    
C1    H19   1.107606 S    
O10   C8    1.422123 S    
C18   C19   1.399128 A    
C46   H50   1.113951 S    
C24   C30   1.442220 A    
C1    H3    1.111239 S    
C3    H25   1.110144 S    
C44   H42   1.113625 S    
P2    O20   1.579435 S    
P2    O7    1.541573 D    
C17   H36   1.069775 S    
P3    O8    1.743728 S    
O28   C46   1.413241 S    
C3    H7    1.110973 S    
C18   C23   1.455652 A    
O6    P6    1.748088 S    
O27   C45   1.408129 S    
C45   H47   1.108254 S    
P7    C36   1.865572 S    
C5    H9    1.115712 S    
C13   C14   1.537375 S    
Ba2   O21   2.864581 S    
O26   C44   1.411790 S    
O8    Ba1   2.825325 S    
C48   H54   1.112346 S    
O4    P6    1.538179 D    
C31   C36   1.397138 A    
C40   H38   1.076825 S    
C10   H18   1.107171 S    
P2    Ba1   3.442599 S    
C37   C41   1.428389 A    
C49   H58   1.092115 S    
C14   H28   1.112263 S    
C45   H46   1.106239 S    
C34   C41   1.527457 S    
C46   H49   1.107632 S    
O2    Ba2   2.845312 S    
C16   O28   1.411162 S    
C46   H48   1.109018 S    
C1    C10   1.522067 S    
C4    C5    1.529876 S    
C17   C25   1.416894 A    
C35   C36   1.408805 A    
C43   H41   1.115188 S    
O1    Ba1   2.880088 S    
C11   H20   1.093481 S    
C8    C9    1.532616 S    
C39   C40   1.415136 A    
C12   H24   1.107397 S    
C24   C25   1.429638 A    
C19   Br4   1.895914 S    
C26   C27   1.397882 A    
C7    H13   1.107783 S    
C43   H40   1.108885 S    
P4    C26   1.871176 S    
C32   C33   1.410204 A    
C15   O24   1.401028 S    
C6    O26   1.415424 S    
C44   H43   1.104027 S    
Ba2   O20   2.828890 S    
C25   C29   1.415903 A    
C11   O22   1.414036 S    
O16   Ba2   2.971389 S    
C22   C23   1.429556 A    
P7    O21   1.589986 D    
P8    O24   1.752813 S    
P3    O9    1.547156 D    
C33   C34   1.422709 A    
P5    C32   1.861937 S    
C3    H6    1.110960 S    
C49   H57   1.112825 S    
O19   C13   1.410846 S    
O6    C10   1.401743 S    
C37   Br5   1.939388 S    
C15   H30   1.100207 S    
C4    O15   1.379205 S    
O3    Ba1   2.832170 S    
P4    Ba2   3.450039 S    
C21   H33   1.072606 S    
C5    O25   1.415036 S    
