data_mof_unit_48046.cif
_audit_creation_date              2012-12-10T18:18:18-0500
_audit_creation_method            fapswitch 2.2
_symmetry_space_group_name_H-M    P1
_symmetry_Int_Tables_number       1
_space_group_crystal_system       triclinic
_cell_length_a                    14.031099
_cell_length_b                    14.894161
_cell_length_c                    15.444355
_cell_angle_alpha                 89.618342
_cell_angle_beta                  66.829664
_cell_angle_gamma                 89.717003
_cell_volume                      2967.16883288

loop_
_atom_site_label
_atom_site_type_symbol
_atom_type_description
_atom_site_fract_x
_atom_site_fract_y
_atom_site_fract_z
_atom_type_partial_charge
C1    C     C_R   0.499887 0.673083 0.499860 0.891146
C2    C     C_R   0.500109 0.326930 0.500433 0.890333
C3    C     C_R   0.371583 0.501173 0.111395 -0.228692
C4    C     C_R   0.594584 0.594444 0.909390 -0.256098
C5    C     C_R   0.297317 0.488338 0.073322 0.157683
C6    C     C_R   0.669193 0.606507 0.947128 0.170344
C7    C     C_R   0.523619 0.185913 0.568261 -0.249299
C8    C     C_R   0.476876 0.814251 0.432491 -0.253865
C9    C     C_R   0.500778 0.231691 0.500190 -0.060536
C10   C     C_R   0.499355 0.768335 0.500604 -0.059973
C11   C     C_R   0.477977 0.187428 0.431878 -0.263236
C12   C     C_R   0.522215 0.812524 0.569072 -0.265599
C13   C     C_R   0.476564 0.094104 0.430821 0.074226
C14   C     C_R   0.519016 0.905872 0.572851 0.069870
C15   C     C_R   0.498559 0.046752 0.501012 0.039834
C16   C     C_R   0.498352 0.953293 0.502001 0.042889
C17   C     C_R   0.521574 0.093109 0.569920 0.116757
C18   C     C_R   0.478426 0.906992 0.431369 0.120273
C19   C     C_R   0.456618 0.046919 0.360504 -0.004617
C20   C     C_R   0.537969 0.953043 0.643791 -0.006740
C21   C     C_R   0.460419 0.953490 0.360507 -0.293198
C22   C     C_R   0.540931 0.046634 0.640198 -0.272462
C23   C     C_R   0.434947 0.500775 0.676646 0.865939
C24   C     C_R   0.564999 0.499994 0.323377 0.867948
C25   C     C_R   0.176167 0.444131 0.559751 -0.054413
C26   C     C_R   0.823794 0.555765 0.440223 -0.048184
C27   C     C_R   0.227040 0.557448 0.441652 -0.060673
C28   C     C_R   0.771681 0.445109 0.560894 -0.057313
C29   C     C_R   0.126464 0.560222 0.440643 -0.044409
C30   C     C_R   0.871132 0.444611 0.564436 -0.038585
C31   C     C_R   0.050118 0.501259 0.500942 0.068317
C32   C     C_R   0.948728 0.500852 0.501436 0.067977
C33   C     C_R   0.074707 0.443655 0.561922 0.008762
C34   C     C_R   0.924536 0.557514 0.439517 0.009623
C35   C     C_R   0.099718 0.619960 0.381776 0.004254
C36   C     C_R   0.895413 0.389656 0.628379 0.009531
C37   C     C_R   0.000176 0.616321 0.380102 -0.255174
C38   C     C_R   0.997300 0.388309 0.625001 -0.260132
C39   C     C_R   0.392727 0.505483 0.779187 -0.058591
C40   C     C_R   0.605482 0.511432 0.221539 -0.060586
C41   C     C_R   0.256761 0.480617 0.932395 -0.202421
C42   C     C_R   0.723222 0.582505 0.079111 -0.200441
C43   C     C_R   0.289888 0.483803 0.834696 -0.212057
C44   C     C_R   0.699812 0.553992 0.171403 -0.210826
C45   C     C_R   0.459745 0.529748 0.821489 -0.256375
C46   C     C_R   0.537957 0.493621 0.178025 -0.238652
C47   C     C_R   0.428149 0.529561 0.919153 0.052299
C48   C     C_R   0.553229 0.531194 0.090647 0.063247
C49   C     C_R   0.326158 0.499963 0.975719 0.152742
C50   C     C_R   0.649742 0.573319 0.038081 0.154930
C51   C     C_R   0.499371 0.550599 0.960265 -0.000794
C52   C     C_R   0.474675 0.526738 0.054803 0.014924
H1    H     H_    0.196439 0.400368 0.606185 0.127626
H2    H     H_    0.803727 0.599085 0.393326 0.126854
H3    H     H_    0.287862 0.600706 0.395695 0.152391
H4    H     H_    0.710842 0.401510 0.606098 0.152624
H5    H     H_    0.980573 0.662051 0.334635 0.147495
H6    H     H_    0.015422 0.345553 0.673611 0.146392
H7    H     H_    0.471298 0.452363 0.215823 0.152496
H8    H     H_    0.539268 0.543150 0.776289 0.159732
H9    H     H_    0.753286 0.568211 0.204477 0.151310
H10   H     H_    0.236531 0.465807 0.802621 0.153645
H11   H     H_    0.177701 0.460169 0.972943 0.154131
H12   H     H_    0.797050 0.615044 0.042175 0.152340
H13   H     H_    0.345827 0.493488 0.186679 0.155640
H14   H     H_    0.610918 0.623599 0.840916 0.162630
H15   H     H_    0.540908 0.222838 0.620706 0.143182
H16   H     H_    0.460430 0.777485 0.379472 0.146396
H17   H     H_    0.464074 0.226884 0.378852 0.157683
H18   H     H_    0.541551 0.773132 0.619132 0.158598
H19   H     H_    0.448233 0.916829 0.305353 0.150851
H20   H     H_    0.556145 0.083492 0.693792 0.153348
N1    N     N_R   0.249980 0.499930 0.499960 -0.100760
N2    N     N_R   0.750020 0.500070 0.500040 -0.101944
O1    O     O_R   0.419720 0.632140 0.499980 -0.615469
O2    O     O_R   0.580280 0.367860 0.500020 -0.613095
O3    O     O_R   0.580270 0.632160 0.499970 -0.617839
O4    O     O_R   0.419730 0.367840 0.500030 -0.619970
O5    O     O_R   0.373870 0.499980 0.632250 -0.614450
O6    O     O_R   0.626130 0.500020 0.367750 -0.613722
O7    O     O_R   0.534420 0.500000 0.632240 -0.623656
O8    O     O_R   0.465580 0.500000 0.367760 -0.619383
Zn1   Zn    Zn3+2 0.392800 0.499980 0.500010 0.938200
Zn2   Zn    Zn3+2 0.607200 0.500020 0.499990 0.940446
C53   C     C_3   0.189811 0.458098 0.137556 -0.964619
H21   H     H_    0.180394 0.453980 0.212355 0.249937
H22   H     H_    0.131099 0.506306 0.133472 0.238291
H23   H     H_    0.174391 0.390428 0.116318 0.246179
C54   C     C_3   0.768746 0.654285 0.888653 -0.956294
H24   H     H_    0.770633 0.675880 0.819010 0.250270
H25   H     H_    0.777096 0.715246 0.926042 0.236780
H26   H     H_    0.835772 0.608733 0.875814 0.247283
C55   C     C_R   0.170267 0.692269 0.327717 0.105276
C56   C     C_R   0.191258 0.764271 0.375642 -0.154066
C57   C     C_R   0.253153 0.835482 0.325289 -0.148765
C58   C     C_R   0.296446 0.834414 0.226835 -0.118505
C59   C     C_R   0.276032 0.762790 0.178649 -0.123417
C60   C     C_R   0.211905 0.692512 0.228907 -0.163843
H27   H     H_    0.158066 0.765964 0.451906 0.135527
H28   H     H_    0.266514 0.891802 0.362843 0.143273
H29   H     H_    0.344902 0.889441 0.187969 0.133663
H30   H     H_    0.308824 0.762244 0.102414 0.127294
H31   H     H_    0.194443 0.638738 0.191014 0.151485
C61   C     C_R   0.815000 0.335716 0.701712 0.106697
C62   C     C_R   0.731584 0.378540 0.773037 -0.164772
C63   C     C_R   0.653920 0.327707 0.840711 -0.122591
C64   C     C_R   0.659246 0.233969 0.837880 -0.118115
C65   C     C_R   0.742629 0.190948 0.767837 -0.144930
C66   C     C_R   0.820615 0.241581 0.700080 -0.155388
H32   H     H_    0.726434 0.451135 0.775591 0.143133
H33   H     H_    0.589476 0.360948 0.895112 0.144767
H34   H     H_    0.598773 0.194674 0.889913 0.118472
H35   H     H_    0.746615 0.118355 0.765864 0.125107
H36   H     H_    0.884422 0.207571 0.645689 0.129170
C67   C     C_R   0.431971 0.092454 0.286057 0.118670
C68   C     C_R   0.342081 0.145361 0.309770 -0.173476
C69   C     C_R   0.319582 0.188427 0.239253 -0.132346
C70   C     C_R   0.385697 0.177945 0.144678 -0.107187
C71   C     C_R   0.474143 0.124025 0.120461 -0.140866
C72   C     C_R   0.497220 0.081241 0.190770 -0.160674
H37   H     H_    0.289988 0.153616 0.382785 0.135147
H38   H     H_    0.250845 0.229857 0.257912 0.135564
H39   H     H_    0.368226 0.211350 0.090172 0.127907
H40   H     H_    0.524944 0.115418 0.047223 0.124998
H41   H     H_    0.566245 0.039967 0.171080 0.130982
C73   C     C_R   0.551661 0.907589 0.724073 0.128996
C74   C     C_R   0.472582 0.853130 0.786730 -0.168955
C75   C     C_R   0.484348 0.812748 0.863966 -0.141246
C76   C     C_R   0.574320 0.827386 0.880006 -0.113627
C77   C     C_R   0.653042 0.881806 0.818453 -0.149275
C78   C     C_R   0.641792 0.922037 0.740902 -0.161514
H42   H     H_    0.401789 0.842319 0.775904 0.133752
H43   H     H_    0.423494 0.770501 0.911678 0.133668
H44   H     H_    0.582935 0.796713 0.940245 0.143780
H45   H     H_    0.722680 0.893046 0.831006 0.129791
H46   H     H_    0.703233 0.964331 0.693952 0.124982

loop_
_geom_bond_atom_site_label_1
_geom_bond_atom_site_label_2
_ccdc_geom_bond_type
C30   C32   A    
C62   H32   S    
C45   H8    S    
C73   C74   A    
C46   H7    S    
C27   C29   A    
C34   C37   A    
C1    O3    A    
C64   H34   S    
C57   C58   A    
O6    Zn2   S    
C28   N2    A    
C75   C76   A    
O2    Zn2   S    
C59   C60   A    
C28   H4    S    
C47   C49   A    
C71   H40   S    
C68   C69   A    
C40   C46   A    
C55   C56   A    
C21   H19   S    
C56   H27   S    
C35   C37   A    
C25   H1    S    
C20   C22   A    
C61   C66   A    
C27   H3    S    
C63   C64   A    
C60   H31   S    
C18   C21   A    
C65   C66   A    
C15   C17   A    
C45   C47   A    
C41   C49   A    
C24   O8    A    
C70   C71   A    
C26   N2    A    
C38   H6    S    
O4    Zn1   S    
C26   C34   A    
C77   H45   S    
C7    C17   A    
C64   C65   A    
C31   C33   A    
C54   H25   S    
C40   C44   A    
C67   C72   A    
C59   H30   S    
C39   C45   A    
C5    C53   S    
C48   C50   A    
C58   H29   S    
C41   C43   A    
C5    C49   A    
C3    H13   S    
C42   C44   A    
C26   H2    S    
C22   H20   S    
C61   C62   A    
C24   O6    A    
C63   H33   S    
C35   C55   S    
C46   C48   A    
C68   H37   S    
C13   C19   A    
C53   H22   S    
C51   C52   A    
C1    O1    A    
C14   C20   A    
C4    C6    A    
C78   H46   S    
C57   H28   S    
C39   C43   A    
C4    C51   A    
O3    Zn2   S    
C53   H21   S    
C8    C18   A    
C32   C34   A    
C65   H35   S    
C69   H38   S    
C20   C73   S    
C2    O4    A    
C75   H43   S    
C31   C32   A    
C19   C67   S    
C3    C52   A    
C58   C59   A    
C6    C50   A    
C54   H26   S    
C9    C11   A    
C10   C12   A    
C66   H36   S    
C42   C50   A    
C16   C18   A    
C12   C14   A    
C8    H16   S    
C13   C15   A    
C14   C16   A    
C41   H11   S    
C74   C75   A    
C42   H12   S    
O7    Zn2   S    
C2    O2    A    
C76   C77   A    
C53   H23   S    
C7    C9    A    
C12   H18   S    
C23   O7    A    
C19   C21   A    
C72   H41   S    
C1    C10   S    
C33   C38   A    
N2    Zn2   S    
C3    C5    A    
C47   C51   A    
C71   C72   A    
C11   H17   S    
C44   H9    S    
C6    C54   S    
C62   C63   A    
C29   C35   A    
C17   C22   A    
C30   C36   A    
C36   C61   S    
C28   C30   A    
C77   C78   A    
C29   C31   A    
C69   C70   A    
O5    Zn1   S    
C11   C13   A    
O1    Zn1   S    
C73   C78   A    
C23   C39   S    
C15   C16   A    
C36   C38   A    
C24   C40   S    
C25   N1    A    
C70   H39   S    
C56   C57   A    
C7    H15   S    
C76   H44   S    
C48   C52   A    
C4    H14   S    
C8    C10   A    
O8    Zn1   S    
C23   O5    A    
C54   H24   S    
C27   N1    A    
C2    C9    S    
C55   C60   A    
N1    Zn1   S    
C37   H5    S    
C67   C68   A    
C43   H10   S    
C25   C33   A    
C74   H42   S    
