data_mof_unit_42319.cif
_audit_creation_date              2012-10-26T20:23:18-0400
_audit_creation_method            fapswitch 2.2
_symmetry_space_group_name_H-M    P1
_symmetry_Int_Tables_number       1
_space_group_crystal_system       triclinic
_cell_length_a                    10.64046
_cell_length_b                    12.736717
_cell_length_c                    13.901951
_cell_angle_alpha                 97.919912
_cell_angle_beta                  90.912933
_cell_angle_gamma                 93.043338
_cell_volume                      1862.93787744

loop_
_atom_site_label
_atom_site_type_symbol
_atom_type_description
_atom_site_fract_x
_atom_site_fract_y
_atom_site_fract_z
_atom_type_partial_charge
C1    C     C_R   0.498880 0.483523 0.315945 0.539635
C2    C     C_3   0.969210 0.593195 0.550552 0.003773
C3    C     C_3   0.949798 0.488996 0.409144 -0.000103
C4    C     C_3   0.050196 0.511003 0.590828 -0.000093
C5    C     C_3   0.877882 0.500012 0.505373 0.001947
C6    C     C_3   0.122116 0.499985 0.494601 0.001929
C7    C     C_3   0.958803 0.417910 0.545715 0.020005
C8    C     C_3   0.041195 0.582087 0.454256 0.019948
C9    C     C_1   0.502603 0.526107 0.787093 -0.056453
C10   C     C_1   0.497537 0.473889 0.212909 -0.056446
C11   C     C_2   0.506953 0.544644 0.978552 0.005439
C12   C     C_R   0.501133 0.516477 0.684056 0.539640
C13   C     C_2   0.493525 0.455331 0.021452 0.005432
C14   C     C_1   0.495846 0.464885 0.125982 -0.064217
C15   C     C_1   0.504440 0.535103 0.874021 -0.064216
C16   C     C_3   0.874522 0.476460 0.312351 -0.239684
C17   C     C_3   0.957498 0.470279 0.222853 -0.311551
C18   C     C_3   0.877193 0.448267 0.129505 -0.456107
C19   C     C_3   0.125427 0.523589 0.687640 -0.239677
C20   C     C_3   0.042395 0.529667 0.777106 -0.311527
C21   C     C_3   0.122609 0.551983 0.870485 -0.456171
C22   C     C_3   0.079877 0.304991 0.393386 -0.234194
C23   C     C_2   0.462528 0.028276 0.474505 -0.169734
C24   C     C_3   0.974826 0.224703 0.349514 -0.307167
C25   C     C_3   0.028377 0.119539 0.308105 -0.463194
C26   C     C_3   0.920126 0.695023 0.606556 -0.234161
C27   C     C_3   0.025188 0.775246 0.650525 -0.307162
C28   C     C_3   0.971767 0.880634 0.691435 -0.463185
C29   C     C_3   0.897995 0.329647 0.597784 -0.260234
C30   C     C_3   0.992122 0.254334 0.629968 -0.451215
C31   C     C_3   0.102037 0.670340 0.402187 -0.260207
C32   C     C_3   0.007952 0.745681 0.369993 -0.451184
C33   C     C_3   0.476129 0.345624 0.961337 -0.241102
C34   C     C_2   0.537472 0.971723 0.525495 -0.169735
C35   C     C_3   0.460818 0.253557 0.021875 -0.296679
C36   C     C_3   0.443380 0.146858 0.956779 -0.461481
C37   C     C_3   0.524299 0.654354 0.038665 -0.241097
C38   C     C_3   0.540245 0.746374 0.978130 -0.296691
C39   C     C_3   0.557769 0.853065 0.043226 -0.461500
C40   C     C_1   0.526358 0.854631 0.518839 0.120329
C41   C     C_1   0.473643 0.145369 0.481161 0.120325
C42   C     C_R   0.259064 0.499818 0.493898 0.531393
C43   C     C_R   0.740936 0.500181 0.506093 0.531382
C44   C     C_3   0.030785 0.406801 0.449418 0.003813
Cu1   Cu    Cu3+1 0.491940 0.395330 0.493960 0.938580
Cu2   Cu    Cu3+1 0.508060 0.604670 0.506040 0.938561
H1    H     H_    0.610092 0.013780 0.574027 0.116853
H2    H     H_    0.188943 0.488048 0.874091 0.155436
H3    H     H_    0.177057 0.629340 0.873831 0.151444
H4    H     H_    0.060758 0.555284 0.934293 0.138679
H5    H     H_    0.975570 0.593403 0.776504 0.159635
H6    H     H_    0.987386 0.453448 0.777572 0.161902
H7    H     H_    0.187004 0.455866 0.687220 0.147365
H8    H     H_    0.188891 0.596226 0.692208 0.147056
H9    H     H_    0.097101 0.132033 0.250867 0.151209
H10   H     H_    0.075712 0.083782 0.366554 0.147093
H11   H     H_    0.950877 0.063375 0.275514 0.141715
H12   H     H_    0.389909 0.986220 0.425973 0.116849
H13   H     H_    0.905685 0.209292 0.405295 0.168204
H14   H     H_    0.924786 0.255802 0.289901 0.162320
H15   H     H_    0.141391 0.326793 0.334630 0.136679
H16   H     H_    0.139330 0.267286 0.443643 0.171243
H17   H     H_    0.925024 0.916313 0.632671 0.147045
H18   H     H_    0.902564 0.868477 0.748431 0.151244
H19   H     H_    0.049247 0.936707 0.724204 0.141725
H20   H     H_    0.074761 0.744267 0.710429 0.162225
H21   H     H_    0.094716 0.790308 0.594912 0.168317
H22   H     H_    0.860770 0.732751 0.556254 0.171260
H23   H     H_    0.822454 0.371039 0.126121 0.151502
H24   H     H_    0.858506 0.673252 0.665264 0.136645
H25   H     H_    0.030646 0.205372 0.566359 0.148913
H26   H     H_    0.070341 0.298120 0.674316 0.154609
H27   H     H_    0.943344 0.199661 0.674727 0.128948
H28   H     H_    0.847703 0.366707 0.661948 0.135018
H29   H     H_    0.826285 0.282158 0.549111 0.163264
H30   H     H_    0.929727 0.701918 0.325638 0.154592
H31   H     H_    0.969450 0.794663 0.433601 0.148940
H32   H     H_    0.056766 0.800337 0.325236 0.128943
H33   H     H_    0.173756 0.717818 0.450858 0.163271
H34   H     H_    0.811118 0.512409 0.125992 0.155397
H35   H     H_    0.152327 0.633268 0.338027 0.134998
H36   H     H_    0.358385 0.145195 0.909022 0.151449
H37   H     H_    0.527198 0.132452 0.911191 0.149992
H38   H     H_    0.431278 0.082258 0.002488 0.139044
H39   H     H_    0.545765 0.252451 0.069299 0.165557
H40   H     H_    0.377180 0.264335 0.068433 0.165705
H41   H     H_    0.391145 0.344106 0.913393 0.142336
H42   H     H_    0.559270 0.332689 0.914538 0.145714
H43   H     H_    0.473805 0.867663 0.088609 0.150001
H44   H     H_    0.642548 0.854563 0.091182 0.151442
H45   H     H_    0.939008 0.444858 0.065672 0.138677
H46   H     H_    0.570302 0.917629 0.997520 0.139032
H47   H     H_    0.624055 0.735385 0.931787 0.165649
H48   H     H_    0.455537 0.747658 0.930493 0.165650
H49   H     H_    0.440926 0.667424 0.085190 0.145648
H50   H     H_    0.609010 0.655779 0.086880 0.142381
H51   H     H_    0.012767 0.546383 0.222437 0.161922
H52   H     H_    0.024076 0.406347 0.223354 0.159655
H53   H     H_    0.810954 0.403887 0.307806 0.147006
H54   H     H_    0.813039 0.544246 0.312790 0.147393
N1    N     N_1   0.479830 0.238040 0.484880 -0.196695
N2    N     N_1   0.520170 0.761960 0.515120 -0.196699
O1    O     O_R   0.492210 0.399110 0.356330 -0.491979
O2    O     O_R   0.507790 0.600890 0.643670 -0.491973
O3    O     O_R   0.505820 0.575890 0.366540 -0.491866
O4    O     O_R   0.494180 0.424110 0.633460 -0.491862
O5    O     O_R   0.310050 0.411620 0.494870 -0.507453
O6    O     O_R   0.689950 0.588380 0.505130 -0.507462
O7    O     O_R   0.323660 0.588400 0.505080 -0.507394
O8    O     O_R   0.676340 0.411600 0.494920 -0.507374

loop_
_geom_bond_atom_site_label_1
_geom_bond_atom_site_label_2
_ccdc_geom_bond_type
C23   H12   S    
C7    C29   S    
C11   C13   D    
C35   C36   S    
C25   H10   S    
C21   H3    S    
C30   H25   S    
Cu1   Cu2   S    
Cu2   N2    S    
C26   C27   S    
C29   C30   S    
C34   C40   S    
C18   H45   S    
C33   H42   S    
C12   O2    A    
C20   H5    S    
C38   C39   S    
C35   H40   S    
C36   H37   S    
Cu2   O3    S    
C37   H49   S    
C11   C37   S    
Cu1   O1    S    
C32   H31   S    
C4    C19   S    
C11   C15   S    
C22   C44   S    
C19   C20   S    
C36   H36   S    
C16   C17   S    
Cu2   O6    S    
C43   O8    A    
C17   H52   S    
C1    O1    A    
C39   H44   S    
C21   H2    S    
C19   H7    S    
C18   H23   S    
C5    C43   S    
C6    C44   S    
C13   C14   S    
C25   H11   S    
C4    C7    S    
C21   H4    S    
C3    C44   S    
C24   C25   S    
C4    C6    S    
C3    C8    S    
C10   C14   T    
C5    C7    S    
C30   H27   S    
Cu1   O8    S    
C16   H54   S    
C6    C8    S    
C29   H28   S    
C40   N2    T    
Cu2   O2    S    
C37   H50   S    
C2    C4    S    
C13   C33   S    
C37   C38   S    
C22   H16   S    
C31   C32   S    
C24   H14   S    
C23   C34   D    
C38   H48   S    
C17   C18   S    
C2    C26   S    
C7    C44   S    
Cu1   N1    S    
C28   H18   S    
C19   H8    S    
C26   H24   S    
C22   C24   S    
C2    C5    S    
C39   H46   S    
Cu1   O4    S    
C42   O5    A    
C8    C31   S    
C42   O7    A    
C2    C8    S    
C1    C10   S    
C25   H9    S    
C3    C5    S    
C23   C41   S    
C32   H30   S    
C30   H26   S    
C16   H53   S    
C31   H33   S    
C29   H29   S    
C31   H35   S    
C26   H22   S    
C28   H19   S    
C33   H41   S    
C20   H6    S    
C27   H20   S    
C22   H15   S    
C12   O4    A    
C35   H39   S    
C36   H38   S    
C24   H13   S    
C38   H47   S    
C33   C35   S    
C41   N1    T    
C43   O6    A    
C9    C15   T    
C9    C12   S    
C27   H21   S    
C32   H32   S    
C28   H17   S    
C20   C21   S    
C18   H34   S    
C6    C42   S    
Cu2   O7    S    
C27   C28   S    
C34   H1    S    
C17   H51   S    
C39   H43   S    
C3    C16   S    
Cu1   O5    S    
C1    O3    A    
