data_mof_unit_49388.cif
_audit_creation_date              2013-03-05T16:07:29-0500
_audit_creation_method            fapswitch 2.2
_symmetry_space_group_name_H-M    P1
_symmetry_Int_Tables_number       1
_space_group_crystal_system       triclinic
_cell_length_a                    8.421857
_cell_length_b                    15.2748
_cell_length_c                    18.906997
_cell_angle_alpha                 102.637226
_cell_angle_beta                  91.985495
_cell_angle_gamma                 99.512913
_cell_volume                      2334.3353297

loop_
_atom_site_label
_atom_site_type_symbol
_atom_site_description
_atom_site_fract_x
_atom_site_fract_y
_atom_site_fract_z
_atom_type_partial_charge
P1    P     P_3+3 0.039440 0.410950 0.333260 0.538494
O1    O     O_2   0.871970 0.437290 0.322980 -0.356588
O2    O     O_3   0.121420 0.444460 0.412460 -0.255772
O3    O     O_3   0.661430 0.607560 0.372520 -0.280614
O4    O     O_2   0.765173 0.526603 0.248506 -0.396551
O5    O     O_3   0.975941 0.292813 0.323022 -0.604129
O6    O     O_3   0.726063 0.690227 0.255250 -0.585680
C1    C     C_3   0.654255 0.808234 0.202152 -0.528264
H1    H     H_    0.700848 0.768107 0.153391 0.184918
P2    P     P_3+3 0.676740 0.714970 0.563520 0.530156
P3    P     P_3+3 0.127977 0.775801 0.421129 0.559107
O7    O     O_2   0.852280 0.726960 0.542370 -0.326642
O8    O     O_3   0.083990 0.657360 0.410240 -0.308528
O9    O     O_2   0.001988 0.817793 0.468526 -0.345459
O10   O     O_3   0.697814 0.744294 0.658805 -0.583826
O11   O     O_3   0.090447 0.804577 0.338124 -0.521950
C2    C     C_3   0.132534 0.739311 0.280626 0.420361
H2    H     H_    0.041466 0.675557 0.271149 0.135123
H3    H     H_    0.253413 0.723851 0.292196 0.090357
C3    C     C_3   0.135992 0.778287 0.212507 -0.359179
H4    H     H_    0.019467 0.798641 0.202149 0.232015
H5    H     H_    0.232810 0.839329 0.220705 0.272958
C4    C     C_3   0.257909 0.745675 0.637486 0.271051
H6    H     H_    0.360295 0.713161 0.616792 0.065486
H7    H     H_    0.163150 0.737022 0.592891 0.116999
C5    C     C_3   0.321430 0.847426 0.667798 -0.120657
H8    H     H_    0.439097 0.855837 0.699216 0.123089
H9    H     H_    0.340899 0.882510 0.622576 0.026779
Ba1   Ba    Ba6+2 0.853510 0.540900 0.466480 1.727714
C6    C     C_3   0.074173 0.237014 0.283431 0.769666
H10   H     H_    0.199639 0.273445 0.291788 0.058289
C7    C     C_3   0.017137 0.212473 0.200969 -0.612447
H11   H     H_    0.086053 0.262586 0.174298 0.233456
H12   H     H_    0.889274 0.217610 0.193434 0.197514
C8    C     C_3   0.728115 0.671078 0.687108 0.413678
H13   H     H_    0.849457 0.657118 0.673370 0.079774
H14   H     H_    0.635223 0.609320 0.665765 0.091559
C9    C     C_3   0.719922 0.696259 0.769737 -0.525727
H15   H     H_    0.723851 0.635611 0.792447 0.177998
H16   H     H_    0.603228 0.718845 0.782679 0.221912
P4    P     P_3+3 0.150270 0.589130 0.666750 0.505662
O12   O     O_2   0.317740 0.562750 0.677070 -0.374832
O13   O     O_3   0.068290 0.555610 0.587550 -0.325183
O14   O     O_3   0.528280 0.392520 0.627490 -0.344133
O15   O     O_3   0.193198 0.708112 0.693433 -0.574690
P5    P     P_3+3 0.058184 0.223749 0.580529 0.540352
O16   O     O_3   0.609300 0.386850 0.459730 -0.323378
O17   O     O_3   0.105720 0.342720 0.589770 -0.276301
O18   O     O_2   0.170860 0.182352 0.525867 -0.363488
O19   O     O_3   0.127156 0.195866 0.659969 -0.515540
Ba2   Ba    Ba6+2 0.336320 0.459170 0.533530 1.704903
P6    P     P_3+3 0.642435 0.587437 0.277585 0.507498
C10   C     C_3   0.609939 0.746860 0.255721 0.914302
H17   H     H_    0.488411 0.706784 0.236933 -0.193500
H18   H     H_    0.543427 0.829355 0.183109 0.239923
O20   O     O_3   0.580410 0.613230 0.540280 -0.363563
C11   C     C_3   0.528352 0.212517 0.281029 0.688195
C12   C     C_3   0.609388 0.128217 0.281523 -0.103689
H19   H     H_    0.710763 0.128183 0.245740 0.111622
H20   H     H_    0.662065 0.130887 0.336589 0.114008
P7    P     P_3+3 0.508028 0.267726 0.428602 0.472825
O21   O     O_2   0.337420 0.273080 0.457680 -0.287012
O22   O     O_3   0.422654 0.225003 0.337033 -0.580693
C13   C     C_3   0.007009 0.195525 0.709829 0.662437
H21   H     H_    0.883566 0.172462 0.682672 0.006961
C14   C     C_3   0.032304 0.127531 0.755785 -0.862135
H22   H     H_    0.151307 0.148570 0.787464 0.267035
H23   H     H_    0.935974 0.122482 0.794043 0.216597
H24   H     H_    0.028038 0.059171 0.719792 0.271938
P8    P     P_3+3 0.552021 0.407959 0.720930 0.454152
C15   C     C_3   0.546618 0.235735 0.694277 0.454097
H25   H     H_    0.680265 0.254880 0.699398 -0.014593
O23   O     O_2   0.432436 0.469305 0.753800 -0.390557
O24   O     O_3   0.476139 0.302340 0.739612 -0.515054
H26   H     H_    0.502335 0.227139 0.636635 0.074007
H27   H     H_    0.557154 0.092659 0.678884 0.152135
C16   C     C_3   0.499168 0.143972 0.714664 -0.416631
H28   H     H_    0.366671 0.120863 0.705067 0.249558
C17   C     C_R   0.998026 0.447514 0.042807 0.043971
C18   C     C_R   0.912621 0.395470 0.086953 -0.182494
C19   C     C_R   0.765133 0.425520 0.947742 0.253171
C20   C     C_R   0.932560 0.454555 0.973132 -0.000780
C21   C     C_R   0.715086 0.425689 0.876754 -0.201917
C22   C     C_R   0.818929 0.459970 0.829662 -0.064335
C23   C     C_R   0.980084 0.499191 0.855094 0.030758
C24   C     C_R   0.037570 0.496823 0.927165 -0.005383
C25   C     C_R   0.762832 0.458237 0.758130 0.145086
C26   C     C_R   0.867371 0.496177 0.712583 -0.465569
C27   C     C_R   0.027191 0.537330 0.735061 0.208786
C28   C     C_R   0.082812 0.541439 0.808633 -0.018206
C29   C     C_R   0.158323 0.490292 0.068853 0.034546
C30   C     C_R   0.217664 0.489183 0.141183 0.057835
C31   C     C_R   0.113897 0.450394 0.188699 -0.023327
C32   C     C_R   0.961914 0.404242 0.159350 -0.112846
H29   H     H_    0.819514 0.499487 0.660105 0.194186
H30   H     H_    0.589108 0.401066 0.859602 0.195686
H31   H     H_    0.883870 0.368275 0.190472 0.147730
C33   C     C_R   0.235606 0.588210 0.838152 -0.059346
C34   C     C_R   0.292930 0.586010 0.907759 -0.191403
C35   C     C_R   0.199083 0.538223 0.952894 0.054602
C36   C     C_R   0.260117 0.533700 0.023467 0.067285
C37   C     C_R   0.422080 0.569478 0.049981 -0.208983
C38   C     C_R   0.379768 0.527558 0.165891 -0.006300
C39   C     C_R   0.480479 0.564798 0.118513 -0.214181
C40   C     C_R   0.436853 0.527763 0.237234 0.163164
C41   C     C_R   0.333506 0.486178 0.282049 -0.269729
C42   C     C_R   0.169636 0.452402 0.261699 0.077597
H32   H     H_    0.313671 0.627529 0.807898 0.154691
H33   H     H_    0.607151 0.590679 0.133421 0.164293
H34   H     H_    0.380645 0.482885 0.335223 0.174940
H35   H     H_    0.809504 0.343669 0.066609 0.165697
H36   H     H_    0.412131 0.624491 0.924968 0.123410
H37   H     H_    0.510246 0.599057 0.018105 0.140835
C43   C     C_R   0.332796 0.825735 0.465977 0.076398
H38   H     H_    0.184931 0.955062 0.428430 0.190819
C44   C     C_R   0.574790 0.798902 0.526874 0.155370
C45   C     C_R   0.758491 0.227148 0.511289 0.086183
C46   C     C_R   0.849817 0.173683 0.540539 0.099332
C47   C     C_R   0.788250 0.082138 0.534477 -0.330394
C48   C     C_R   0.623993 0.046291 0.512455 0.098373
C49   C     C_R   0.532520 0.101967 0.481367 -0.075094
C50   C     C_R   0.551808 0.954520 0.514335 0.081775
C51   C     C_R   0.394469 0.919690 0.479346 -0.048300
C52   C     C_R   0.306362 0.977752 0.453068 -0.047768
C53   C     C_R   0.375378 0.065845 0.452592 0.013635
C54   C     C_R   0.627923 0.894993 0.548617 0.066615
C55   C     C_R   0.430885 0.766397 0.483143 -0.003334
C56   C     C_R   0.602752 0.191915 0.478035 -0.013279
H39   H     H_    0.872572 0.040376 0.545902 0.192373
H40   H     H_    0.305341 0.103628 0.425647 0.223790
N1    N     N_R   0.602967 0.802238 0.328535 0.215568
O25   O     O_R   0.502686 0.859061 0.338496 -0.437825
O26   O     O_R   0.712496 0.806477 0.379945 -0.347853
N2    N     N_R   0.208017 0.889521 0.714794 0.286152
O27   O     O_R   0.060750 0.885647 0.689871 -0.420758
O28   O     O_R   0.252623 0.929614 0.782251 -0.390372
N3    N     N_R   0.063814 0.154911 0.312933 0.239703
O29   O     O_R   0.155560 0.095264 0.291372 -0.377943
O30   O     O_R   0.971036 0.143810 0.365073 -0.401885
C57   C     C_3   0.031967 0.117656 0.157367 -0.616670
H41   H     H_    0.994425 0.111386 0.099322 0.233687
H42   H     H_    0.157519 0.105548 0.160514 0.309836
H43   H     H_    0.950742 0.064712 0.177034 0.238104
C58   C     C_3   0.780195 0.893755 0.234914 -0.616718
H44   H     H_    0.872777 0.879361 0.271661 0.269189
H45   H     H_    0.839335 0.920541 0.190632 0.221924
H46   H     H_    0.722772 0.947320 0.268067 0.286867
C59   C     C_3   0.858814 0.771640 0.806701 -0.658043
H47   H     H_    0.849450 0.786334 0.866421 0.221162
H48   H     H_    0.976489 0.749951 0.794970 0.260360
H49   H     H_    0.853498 0.834995 0.787715 0.294028
N4    N     N_R   0.440669 0.202997 0.209701 0.236992
O31   O     O_R   0.470528 0.144370 0.152795 -0.373528
O32   O     O_R   0.377973 0.271163 0.197561 -0.479890
C60   C     C_3   0.647505 0.297652 0.291008 -0.767406
H50   H     H_    0.717614 0.294064 0.243373 0.191766
H51   H     H_    0.585661 0.357612 0.296883 0.242890
H52   H     H_    0.721695 0.305251 0.341286 0.263622
N5    N     N_R   0.494979 0.042839 0.256013 0.283680
O33   O     O_R   0.501682 0.992766 0.191362 -0.369423
O34   O     O_R   0.405024 0.008946 0.301206 -0.337015
C61   C     C_3   0.161663 0.709519 0.144842 -1.022192
H53   H     H_    0.064388 0.648773 0.135990 0.277502
H54   H     H_    0.158230 0.740185 0.096830 0.291677
H55   H     H_    0.280938 0.690121 0.150612 0.280496
C62   C     C_3   0.020477 0.290708 0.758678 -0.867460
H56   H     H_    0.996523 0.338969 0.725342 0.226340
H57   H     H_    0.930793 0.290349 0.800310 0.201810
H58   H     H_    0.143520 0.314618 0.786366 0.279693
C63   C     C_3   0.550553 0.148788 0.793858 -0.769044
H59   H     H_    0.482586 0.193640 0.830847 0.271254
H60   H     H_    0.524972 0.079486 0.804734 0.272445
H61   H     H_    0.681632 0.175754 0.805374 0.225915
C64   C     C_3   0.627888 0.401632 0.993623 -0.975101
H62   H     H_    0.604347 0.327201 0.990663 0.258589
H63   H     H_    0.650693 0.442499 0.050130 0.267407
H64   H     H_    0.513204 0.417347 0.973111 0.253912
N6    N     N_R   0.386474 0.671938 0.452192 0.249774
O35   O     O_R   0.377884 0.646954 0.382032 -0.470359
O36   O     O_R   0.301363 0.620383 0.488365 -0.358089
C65   C     C_3   0.744244 0.931499 0.615162 -0.863250
H65   H     H_    0.704064 0.899405 0.659874 0.267459
H66   H     H_    0.866443 0.918718 0.601557 0.300814
H67   H     H_    0.747424 0.004566 0.639028 0.202472
N7    N     N_R   0.834049 0.315422 0.507362 0.244256
O37   O     O_R   0.945016 0.323367 0.462515 -0.291655
O38   O     O_R   0.822705 0.384233 0.559609 -0.404507

loop_
_geom_bond_atom_site_label_1
_geom_bond_atom_site_label_2
_geom_bond_distance
_ccdc_geom_bond_type
P4    C27   1.907204 S    
C25   C26   1.398158 A    
C31   C32   1.387302 A    
C4    O15   1.395454 S    
O7    Ba1   2.891799 S    
C60   H51   1.113363 S    
O19   C13   1.406800 S    
P4    O12   1.546893 D    
C14   H23   1.109828 S    
C8    H13   1.106099 S    
C22   C25   1.410293 A    
N6    O35   1.293541 A    
C11   C12   1.555386 S    
C51   C52   1.403138 A    
N4    O32   1.301363 A    
C16   H28   1.109255 S    
C11   C60   1.477120 S    
P5    O18   1.532573 D    
C5    H8    1.111358 S    
C36   C37   1.413112 A    
N3    O29   1.298197 A    
Ba1   O16   2.834439 S    
O1    Ba1   2.849880 S    
O8    Ba1   2.809314 S    
C8    H14   1.110125 S    
C59   H48   1.110279 S    
O6    P6    1.756360 S    
Ba2   O20   2.833952 S    
C12   N5    1.462535 S    
C23   C24   1.440188 A    
C6    H10   1.098528 S    
P3    O9    1.542617 D    
N7    O38   1.294268 A    
C14   H24   1.108918 S    
C41   C42   1.399959 A    
C34   H36   1.076016 S    
C12   H20   1.107202 S    
C11   N4    1.481499 S    
C65   H65   1.102643 S    
C2    C3    1.531802 S    
C33   H32   1.079825 S    
P5    C46   1.856726 S    
O2    Ba1   2.983970 S    
P1    O1    1.546512 D    
C4    C5    1.531150 S    
P7    O22   1.790102 S    
P3    C43   1.859308 S    
C46   C47   1.386878 A    
C35   C36   1.433161 A    
C13   C62   1.526564 S    
C38   C39   1.400542 A    
C30   C38   1.413193 A    
C2    H3    1.107538 S    
C64   H62   1.109902 S    
C53   H40   1.077441 S    
O17   Ba2   2.809831 S    
O16   Ba2   2.973206 S    
C21   C22   1.392263 A    
C1    H1    1.112167 S    
C44   C55   1.396787 A    
P8    O24   1.749318 S    
C4    H6    1.105983 S    
N5    O34   1.296485 A    
O4    P6    1.538697 D    
O14   P8    1.730411 S    
C10   N1    1.458337 S    
C6    C7    1.560430 S    
P2    O20   1.589376 S    
C17   C29   1.418992 A    
O3    Ba1   2.818931 S    
O12   Ba2   2.850527 S    
C14   H22   1.110943 S    
C26   H29   1.072575 S    
C6    N3    1.471323 S    
C44   C54   1.424687 A    
Ba1   O13   2.813528 S    
C60   H52   1.092763 S    
C62   H57   1.109874 S    
P4    O13   1.567544 S    
Ba2   O21   2.891788 S    
C29   C36   1.422317 A    
C58   H46   1.106179 S    
P8    C25   1.860924 S    
C1    H18   1.109952 S    
O10   C8    1.396041 S    
C19   C21   1.393460 A    
C48   C50   1.441338 A    
C11   O22   1.408218 S    
C61   H54   1.110395 S    
H27   C16   1.108090 S    
C65   H66   1.107338 S    
P5    O17   1.763222 S    
C15   H26   1.112251 S    
P1    O5    1.760903 S    
C8    C9    1.531900 S    
C22   C23   1.411439 A    
C49   C56   1.418941 A    
C38   C40   1.415404 A    
C29   C30   1.444226 A    
O2    Ba2   2.814140 S    
O11   C2    1.403784 S    
N2    O28   1.300704 A    
C32   H31   1.062533 S    
C12   H19   1.107535 S    
C10   H17   1.104996 S    
C19   C20   1.438268 A    
P1    O2    1.567534 S    
C7    H12   1.099195 S    
C50   C54   1.442068 A    
C49   C53   1.388987 A    
C5    N2    1.458454 S    
C17   C20   1.442982 A    
C61   H55   1.101664 S    
N3    O30   1.301480 A    
P3    O11   1.751986 S    
N5    O33   1.300890 A    
C47   C48   1.413077 A    
C3    C61   1.514292 S    
C3    H4    1.101023 S    
P8    O23   1.542435 D    
P1    Ba1   3.442293 S    
C2    H2    1.111723 S    
C1    C58   1.535433 S    
C57   H41   1.110635 S    
C57   H43   1.107502 S    
C37   C39   1.390659 A    
C64   H64   1.110093 S    
C9    C59   1.525954 S    
P2    O7    1.537058 D    
C24   C35   1.421977 A    
P1    C42   1.918855 S    
C43   C51   1.406805 A    
O14   Ba2   2.818222 S    
C58   H45   1.108103 S    
O5    C6    1.402861 S    
O3    P6    1.750515 S    
P6    C40   1.868987 S    
C62   H56   1.106808 S    
O6    C10   1.407730 S    
C18   C32   1.387780 A    
N1    O25   1.297640 A    
C15   C16   1.528021 S    
P2    C44   1.890033 S    
C48   C49   1.437393 A    
C61   H53   1.109688 S    
C41   H34   1.082567 S    
C65   H67   1.104030 S    
H38   C52   1.078042 S    
C55   N6    1.414611 S    
C3    H5    1.111294 S    
C58   H44   1.106781 S    
N1    O26   1.300190 A    
C18   H35   1.069942 S    
C1    C10   1.539480 S    
O16   P7    1.835318 S    
C15   O24   1.405489 S    
N6    O36   1.297972 A    
C23   C28   1.432750 A    
C7    C57   1.528832 S    
N2    O27   1.298783 A    
C57   H42   1.104942 S    
Ba1   O20   2.974127 S    
C40   C41   1.408128 A    
P5    O19   1.753847 S    
C5    H9    1.107393 S    
C34   C35   1.419266 A    
P2    O10   1.753914 S    
C19   C64   1.513355 S    
C50   C51   1.424352 A    
C15   H25   1.110412 S    
C59   H49   1.110224 S    
C37   H37   1.076086 S    
C20   C24   1.436785 A    
C45   C46   1.392867 A    
C7    H11   1.104268 S    
C9    H16   1.112002 S    
C43   C55   1.402464 A    
P3    O8    1.750110 S    
P2    Ba1   3.466318 S    
O13   Ba2   2.984828 S    
N7    O37   1.292102 A    
C9    H15   1.107626 S    
C63   H60   1.110062 S    
C21   H30   1.078505 S    
C13   H21   1.109674 S    
C30   C31   1.427591 A    
C47   H39   1.075788 S    
P4    Ba2   3.442950 S    
P7    C56   1.891608 S    
C59   H47   1.110241 S    
C4    H7    1.111305 S    
P7    O21   1.564403 D    
C45   C56   1.402405 A    
C64   H63   1.105585 S    
Ba1   Ba2   4.659662 S    
C17   C18   1.410285 A    
C26   C27   1.396864 A    
C62   H58   1.111267 S    
C33   C34   1.395308 A    
C63   H59   1.110786 S    
C60   H50   1.090285 S    
P4    O15   1.748505 S    
C39   H33   1.079272 S    
C54   C65   1.510180 S    
C45   N7    1.411390 S    
N4    O31   1.301690 A    
C27   C28   1.437098 A    
C16   C63   1.526774 S    
C28   C33   1.396309 A    
C31   C42   1.434596 A    
C13   C14   1.527810 S    
C52   C53   1.376845 A    
C63   H61   1.108844 S    
