data_mof_unit_12195.cif
_audit_creation_date              2013-03-05T16:45:22-0500
_audit_creation_method            fapswitch 2.2
_symmetry_space_group_name_H-M    P1
_symmetry_Int_Tables_number       1
_space_group_crystal_system       triclinic
_cell_length_a                    8.901067
_cell_length_b                    10.664581
_cell_length_c                    9.907289
_cell_angle_alpha                 89.92072
_cell_angle_beta                  90.354088
_cell_angle_gamma                 90.202765
_cell_volume                      940.436081494

loop_
_atom_site_label
_atom_site_type_symbol
_atom_site_description
_atom_site_fract_x
_atom_site_fract_y
_atom_site_fract_z
_atom_type_partial_charge
O1    O     O_R   0.500020 0.316790 0.614690 -0.618812
O2    O     O_R   0.500000 0.316760 0.385350 -0.628879
C1    C     C_R   0.503900 0.260253 0.500355 0.868933
O3    O     O_R   0.285350 0.500020 0.614650 -0.629193
O4    O     O_R   0.285340 0.499980 0.385310 -0.588461
C2    C     C_R   0.218857 0.500010 0.499752 0.926480
Zn1   Zn    Zn3+2 0.500010 0.500020 0.653130 1.004277
Zn2   Zn    Zn3+2 0.499990 0.499980 0.346870 0.988202
O5    O     O_R   0.500000 0.683240 0.614650 -0.578689
O6    O     O_R   0.499980 0.683210 0.385310 -0.597715
O7    O     O_R   0.714660 0.500020 0.614690 -0.575814
O8    O     O_R   0.714650 0.499980 0.385350 -0.630293
C3    C     C_R   0.507998 0.739778 0.499682 0.898584
C4    C     C_R   0.781162 0.500200 0.500290 0.924020
C5    C     C_1   0.065449 0.500081 0.499760 -0.144659
C6    C     C_1   0.934569 0.500179 0.500479 -0.130173
C7    C     C_R   0.492831 0.063047 0.619786 0.130246
C8    C     C_R   0.526674 0.129109 0.503171 -0.142664
C9    C     C_R   0.593246 0.068219 0.393821 -0.213048
H1    H     H_    0.633990 0.121603 0.308231 0.173726
C10   C     C_R   0.598576 0.937662 0.391709 0.143995
C11   C     C_R   0.532636 0.871689 0.501097 -0.115188
C12   C     C_R   0.495132 0.935664 0.618461 0.138358
C13   C     C_3   0.358764 0.925485 0.705378 -0.422855
C14   C     C_3   0.356276 0.067686 0.706646 -0.478444
H2    H     H_    0.261018 0.883004 0.651675 0.203693
H3    H     H_    0.384872 0.883835 0.805731 0.243119
H4    H     H_    0.257195 0.108222 0.653580 0.200913
H5    H     H_    0.380907 0.108303 0.807714 0.217070
C15   C     C_R   0.384678 0.445777 0.070148 0.074267
N1    N     N_R   0.499010 0.499140 0.142800 -0.109828
C16   C     C_R   0.619240 0.544325 0.073429 -0.146180
H6    H     H_    0.713021 0.584147 0.128823 0.192261
C17   C     C_R   0.619101 0.546597 0.929988 0.351743
N2    N     N_R   0.499010 0.499180 0.857150 -0.145356
C18   C     C_R   0.385926 0.443733 0.927878 0.047270
C19   C     C_3   0.223760 0.476867 0.917628 -0.428330
C20   C     C_3   0.222061 0.482470 0.070947 0.140701
H7    H     H_    0.204956 0.568519 0.866607 0.257731
H8    H     H_    0.155616 0.398141 0.876186 0.183538
H9    H     H_    0.148024 0.410647 0.118050 0.107500
N3    N     N_R   0.196148 0.609755 0.121228 0.268848
O9    O     O_R   0.078991 0.632081 0.195105 -0.380428
O10   O     O_R   0.281267 0.702981 0.083888 -0.397064
C21   C     C_3   0.668855 0.873782 0.271871 -0.764438
H10   H     H_    0.748803 0.800684 0.306765 0.245982
H11   H     H_    0.580510 0.831079 0.206919 0.272543
H12   H     H_    0.732798 0.941250 0.208652 0.229683
N4    N     N_R   0.742885 0.604964 0.863462 0.221378
O11   O     O_R   0.879217 0.573192 0.896479 -0.413279
O12   O     O_R   0.721742 0.708624 0.796964 -0.375273

loop_
_geom_bond_atom_site_label_1
_geom_bond_atom_site_label_2
_geom_bond_distance
_ccdc_geom_bond_type
O4    Zn2   1.950505 S    
C12   C13   1.496120 S    
C19   C20   1.520407 S    
N1    C16   1.361748 A    
C13   H3    1.111951 S    
C15   C18   1.409815 A    
C15   N1    1.365878 A    
Zn2   O8    1.946053 S    
C7    C14   1.494608 S    
C16   H6    1.082054 S    
C7    C8    1.386520 A    
C19   H7    1.112493 S    
O1    Zn1   1.991354 S    
C10   C11   1.420159 A    
C14   H4    1.112397 S    
Zn1   O7    1.950507 S    
C7    C12   1.358796 A    
N3    O10   1.302479 A    
C20   H9    1.112662 S    
O3    Zn1   1.946053 S    
Zn2   O6    1.991354 S    
C18   C19   1.490103 S    
C9    C10   1.393501 A    
C13   H2    1.112409 S    
C3    C11   1.423074 S    
C20   N3    1.466120 S    
C19   H8    1.111592 S    
C10   C21   1.509790 S    
C21   H11   1.109903 S    
C14   H5    1.111813 S    
O4    C2    1.282193 A    
O7    C4    1.281893 A    
C4    C6    1.365482 S    
N3    O9    1.300598 A    
C5    C6    1.165036 T    
Zn1   O5    1.990289 S    
C13   C14   1.516825 S    
C15   C20   1.500829 S    
C1    C8    1.414133 S    
O3    C2    1.279751 A    
C17   N2    1.380855 A    
C21   H12   1.110951 S    
N4    O11   1.300801 A    
O5    C3    1.290265 A    
C11   C12   1.391958 A    
C8    C9    1.399675 A    
C17   N4    1.427879 S    
O2    C1    1.288539 A    
N4    O12   1.299803 A    
C2    C5    1.365496 S    
C21   H10   1.110748 S    
Zn2   N1    2.021777 S    
Zn1   N2    2.021367 S    
O6    C3    1.285912 A    
O2    Zn2   1.990291 S    
C9    H1    1.084290 S    
O8    C4    1.280198 A    
O1    C1    1.284668 A    
N2    C18   1.362797 A    
C16   C17   1.421269 A    
