data_mof_unit_59862.cif
_audit_creation_date              2012-12-11T16:33:21-0500
_audit_creation_method            fapswitch 2.2
_symmetry_space_group_name_H-M    P1
_symmetry_Int_Tables_number       1
_space_group_crystal_system       triclinic
_cell_length_a                    6.943191
_cell_length_b                    18.260409
_cell_length_c                    20.157189
_cell_angle_alpha                 68.419907
_cell_angle_beta                  90.769859
_cell_angle_gamma                 90.725934
_cell_volume                      2376.20358676

loop_
_atom_site_label
_atom_site_type_symbol
_atom_type_description
_atom_site_fract_x
_atom_site_fract_y
_atom_site_fract_z
_atom_type_partial_charge
O1    O     O_R   0.488960 0.443750 0.941980 -0.518373
O2    O     O_R   0.823890 0.406510 0.087590 -0.544561
O3    O     O_R   0.999680 0.556250 0.058020 -0.534231
C1    C     C_R   0.655655 0.384277 0.115679 0.804840
O4    O     O_R   0.818360 0.434410 0.944340 -0.562523
O5    O     O_R   0.994110 0.584350 0.913750 -0.538457
C2    C     C_R   0.648512 0.420273 0.923952 0.725760
O6    O     O_R   0.494530 0.415650 0.086250 -0.528770
O7    O     O_3   0.662590 0.549160 0.990130 -0.376489
V1    V     V_3+5 0.935320 0.490880 0.001830 1.445187
O8    O     O_R   0.324180 0.593490 0.912410 -0.528666
C3    C     C_R   0.154915 0.616896 0.885041 0.876908
O9    O     O_R   0.329720 0.565590 0.055660 -0.532324
C4    C     C_R   0.162424 0.579621 0.076152 0.799740
V2    V     V_3+5 0.435990 0.509120 0.998170 1.496589
O10   O     O_3   0.158850 0.450840 0.009870 -0.381458
C5    C     C_3   0.013491 0.719329 0.299956 0.332514
C6    C     C_3   0.194927 0.680029 0.284459 -0.321355
H1    H     H_    0.243513 0.619339 0.316049 0.182368
H2    H     H_    0.458192 0.761452 0.294243 0.179848
C7    C     C_1   0.156718 0.626932 0.120089 -0.167420
C8    C     C_1   0.110952 0.876326 0.376995 -0.181635
C9    C     C_3   0.957621 0.750319 0.220740 0.461711
C10   C     C_3   0.138738 0.712476 0.203872 -0.006431
C11   C     C_3   0.069267 0.828034 0.209264 -0.295346
C12   C     C_3   0.126548 0.795304 0.289471 -0.008368
C13   C     C_3   0.250819 0.788694 0.194057 0.389067
C14   C     C_3   0.310852 0.757481 0.273655 -0.208873
C15   C     C_1   0.150170 0.666094 0.157288 0.008192
C16   C     C_1   0.117944 0.839632 0.337717 -0.008560
H3    H     H_    0.019180 0.888524 0.177669 0.130679
C17   C     C_R   0.086634 0.779830 0.876358 0.362491
C18   C     C_R   0.101990 0.857667 0.873363 -0.289093
C19   C     C_R   0.118002 0.920736 0.808052 0.477747
C20   C     C_R   0.123608 0.904752 0.745829 -0.225318
C21   C     C_R   0.119557 0.826729 0.746922 -0.066311
C22   C     C_R   0.115174 0.762381 0.813593 -0.023404
C23   C     C_R   0.119268 0.813094 0.682222 -0.091461
C24   C     C_R   0.139113 0.735110 0.683461 -0.069856
C25   C     C_R   0.170055 0.671225 0.749914 -0.153407
C26   C     C_R   0.144531 0.684177 0.815352 -0.128952
C27   C     C_R   0.133334 0.718872 0.619554 0.397624
C28   C     C_R   0.203898 0.648034 0.619161 -0.364742
C29   C     C_R   0.257122 0.587934 0.682453 0.286088
C30   C     C_R   0.224246 0.596254 0.748027 0.401239
H4    H     H_    0.098395 0.868131 0.922775 0.147134
H5    H     H_    0.134106 0.955070 0.696320 0.134178
H6    H     H_    0.213768 0.639628 0.568831 0.150537
H7    H     H_    0.500150 0.351369 0.431236 0.142087
C31   C     C_R   0.623592 0.094958 0.245211 0.386308
C32   C     C_R   0.652206 0.087236 0.178767 -0.305495
C33   C     C_R   0.697088 0.152306 0.117645 0.474645
C34   C     C_R   0.693340 0.226994 0.120665 -0.223676
C35   C     C_R   0.659861 0.238722 0.185096 -0.077853
C36   C     C_R   0.634528 0.171727 0.249264 -0.010366
C37   C     C_R   0.645892 0.316440 0.185080 -0.106829
C38   C     C_R   0.611734 0.328316 0.250254 -0.010532
C39   C     C_R   0.598736 0.261128 0.314989 0.001048
C40   C     C_R   0.615149 0.183602 0.315001 -0.124756
C41   C     C_R   0.590507 0.405297 0.253160 0.248722
C42   C     C_R   0.552205 0.413572 0.318979 0.433595
C43   C     C_R   0.537035 0.346518 0.381039 -0.227912
C44   C     C_R   0.564546 0.272311 0.379490 -0.229775
H8    H     H_    0.632913 0.030918 0.173370 0.129178
H9    H     H_    0.716494 0.275928 0.070976 0.121679
H10   H     H_    0.552721 0.223466 0.429929 0.123760
O11   O     O_R   0.770540 0.084530 0.414050 -0.541898
O12   O     O_R   0.445710 0.065660 0.555720 -0.542343
O13   O     O_R   0.270420 0.915650 0.586190 -0.543208
C45   C     C_R   0.615186 0.079782 0.576365 0.705562
O14   O     O_R   0.441140 0.093540 0.412470 -0.533207
O15   O     O_R   0.265820 0.943740 0.441930 -0.521632
C46   C     C_R   0.609004 0.115556 0.384332 0.800790
O16   O     O_R   0.775150 0.056440 0.558310 -0.539245
O17   O     O_3   0.602370 0.950960 0.510050 -0.373139
V3    V     V_3+5 0.329450 0.009140 0.498150 1.476701
O18   O     O_R   0.935790 0.934280 0.444060 -0.546302
C47   C     C_R   0.103557 0.921163 0.423008 0.806334
O19   O     O_R   0.940370 0.906390 0.587310 -0.535376
C48   C     C_R   0.109652 0.881863 0.613613 0.787297
V4    V     V_3+5 0.828810 0.990710 0.501460 1.449100
O20   O     O_3   0.105780 0.049100 0.489960 -0.376727
C49   C     C_3   0.678190 0.326124 0.712569 -0.092554
C50   C     C_3   0.500608 0.282062 0.696460 -0.220751
H11   H     H_    0.395946 0.307958 0.652074 0.171124
H12   H     H_    0.721588 0.388020 0.681934 0.134710
H13   H     H_    0.304095 0.246226 0.799864 0.137339
C51   C     C_1   0.624735 0.125530 0.621801 -0.158776
C52   C     C_1   0.637372 0.374678 0.878530 -0.158175
C53   C     C_3   0.801279 0.252864 0.723797 0.329153
C54   C     C_3   0.627983 0.209585 0.707247 0.023587
C55   C     C_3   0.757839 0.218852 0.804266 -0.308642
C56   C     C_3   0.628700 0.291227 0.792806 0.055969
C57   C     C_3   0.579818 0.176868 0.787067 0.474270
C58   C     C_3   0.449840 0.248250 0.777224 -0.158812
C59   C     C_1   0.627968 0.163485 0.660201 0.036554
C60   C     C_1   0.631594 0.336964 0.840004 0.018389
H14   H     H_    0.864070 0.193967 0.848276 0.118642
O21   O     O_3   0.139528 0.998639 0.802257 -0.531442
C61   C     C_3   0.010753 0.017699 0.846935 -0.203399
H15   H     H_    0.068176 0.998353 0.902351 0.121146
H16   H     H_    0.863414 0.993272 0.845731 0.154766
H17   H     H_    0.998392 0.082580 0.827366 0.157975
O22   O     O_3   0.059582 0.771832 0.556437 -0.566720
C62   C     C_3   0.868472 0.748594 0.548460 -0.212324
H18   H     H_    0.776236 0.749524 0.592924 0.135844
H19   H     H_    0.862882 0.689391 0.544493 0.129386
H20   H     H_    0.806646 0.790696 0.498131 0.161656
O23   O     O_3   0.264579 0.532605 0.809778 -0.550411
C63   C     C_3   0.118630 0.474853 0.820588 -0.150085
H21   H     H_    0.131981 0.443245 0.783234 0.169967
H22   H     H_    0.972009 0.500447 0.815949 0.097924
H23   H     H_    0.135445 0.430231 0.875186 0.161719
O24   O     O_3   0.557780 0.031342 0.303962 -0.560770
C64   C     C_3   0.637675 0.958647 0.309162 -0.208430
H24   H     H_    0.792589 0.964206 0.294444 0.118995
H25   H     H_    0.552780 0.932234 0.276362 0.133623
H26   H     H_    0.627277 0.917267 0.365340 0.169073
O25   O     O_3   0.722319 0.146122 0.051729 -0.552866
C65   C     C_3   0.866847 0.090800 0.055935 -0.278688
H27   H     H_    0.807815 0.029841 0.077669 0.141749
H28   H     H_    0.994496 0.096707 0.087801 0.142041
H29   H     H_    0.917729 0.101535 0.001176 0.152440
O26   O     O_3   0.884339 0.683204 0.355277 -0.657875
H30   H     H_    0.962666 0.667725 0.399710 0.284327
O27   O     O_3   0.608999 0.471617 0.191681 -0.657979
H31   H     H_    0.595790 0.520158 0.202074 0.304042
O28   O     O_3   0.509788 0.487187 0.320152 -0.573469
C66   C     C_3   0.637382 0.506068 0.366718 -0.296950
H32   H     H_    0.790545 0.496949 0.356081 0.151151
H33   H     H_    0.601617 0.472506 0.423423 0.148110
H34   H     H_    0.620205 0.569274 0.357829 0.204161
O29   O     O_3   0.528096 0.097061 0.822472 -0.539705
C67   C     C_3   0.491343 0.082962 0.894678 -0.197114
H35   H     H_    0.367303 0.118098 0.900327 0.127723
H36   H     H_    0.621204 0.094792 0.922134 0.141083
H37   H     H_    0.452918 0.019864 0.921821 0.169666
O30   O     O_3   0.984397 0.256669 0.694641 -0.644450
H38   H     H_    0.029920 0.201541 0.711463 0.298137
O31   O     O_3   0.376136 0.825328 0.137543 -0.618890
H39   H     H_    0.431014 0.871167 0.146658 0.294102
O32   O     O_3   0.767348 0.751017 0.194956 -0.542397
C68   C     C_3   0.714546 0.675801 0.196072 -0.145991
H40   H     H_    0.781104 0.626710 0.240943 0.127049
H41   H     H_    0.751600 0.670913 0.144486 0.128521
H42   H     H_    0.556413 0.668716 0.202132 0.186230
O33   O     O_3   0.337954 0.519260 0.682202 -0.634305
H43   H     H_    0.352174 0.522782 0.632218 0.285598
O34   O     O_3   0.043415 0.721784 0.941301 -0.572865
C69   C     C_3   0.847157 0.728668 0.955968 -0.177015
H44   H     H_    0.751650 0.720450 0.914374 0.132868
H45   H     H_    0.816765 0.785865 0.961374 0.124177
H46   H     H_    0.810033 0.682272 0.007738 0.166276

loop_
_geom_bond_atom_site_label_1
_geom_bond_atom_site_label_2
_ccdc_geom_bond_type
C11   H3    S    
C68   H42   S    
C51   C59   T    
O27   H31   S    
C36   C40   A    
O33   H43   S    
C10   C13   S    
C1    O6    A    
C45   C51   S    
O28   C66   S    
C57   O29   S    
C67   H37   S    
V4    O20   S    
C53   C54   S    
C55   H14   S    
O18   C47   A    
C65   H27   S    
C62   H19   S    
C3    C26   S    
C6    C10   S    
C5    C12   S    
C4    C7    S    
C21   C22   A    
C6    H1    S    
O5    C3    A    
C23   C24   A    
C30   O23   S    
V2    O10   S    
C49   C56   S    
C29   O33   S    
C37   C38   A    
O13   V3    S    
C19   C20   A    
C63   H21   S    
C55   C56   S    
O15   C47   A    
C54   C59   S    
C10   C15   S    
O8    V2    S    
C17   O34   S    
C20   C21   A    
C64   H25   S    
C69   H46   S    
H13   C58   S    
C45   O16   A    
C9    C10   S    
C9    O32   S    
O11   C46   A    
C50   C54   S    
C34   H9    S    
C28   H6    S    
C40   C46   S    
C65   H29   S    
O15   V3    S    
C66   H34   S    
C44   H10   S    
C20   H5    S    
C56   C58   S    
O9    C4    A    
C1    C37   S    
C22   C26   A    
C18   H4    S    
C42   C43   A    
C61   H16   S    
O22   C62   S    
C53   O30   S    
C65   H28   S    
O24   C64   S    
C24   C27   A    
C25   C30   A    
C62   H20   S    
C35   C37   A    
C32   C33   A    
C6    C14   S    
C50   H11   S    
C8    C47   S    
V3    O20   S    
C24   C25   A    
O19   V4    S    
O17   V4    S    
C38   C41   A    
C67   H36   S    
H2    C14   S    
C31   C32   A    
C11   C12   S    
C34   C35   A    
C7    C15   T    
C61   H17   S    
C52   C60   T    
C41   C42   A    
C31   O24   S    
C50   C58   S    
O2    C1    A    
O17   V3    S    
C43   C44   A    
C5    O26   S    
C53   C55   S    
C49   C50   S    
O18   V4    S    
O25   C65   S    
C64   H26   S    
C55   C57   S    
C5    C6    S    
C5    C9    S    
C17   C22   A    
O31   H39   S    
C63   H23   S    
O3    C4    A    
O1    V2    S    
C25   C26   A    
C12   C16   S    
O6    V2    S    
O9    V2    S    
C28   C29   A    
O29   C67   S    
C69   H45   S    
O12   V3    S    
C27   C28   A    
O16   V4    S    
O2    V1    S    
C56   C60   S    
C29   C30   A    
O4    C2    A    
C66   H32   S    
O7    V1    S    
C39   C44   A    
C68   H41   S    
C49   C53   S    
C35   C36   A    
H7    C43   S    
C8    C16   T    
O1    C2    A    
C32   H8    S    
C31   C36   A    
C27   O22   S    
O5    V1    S    
O8    C3    A    
O11   V4    S    
C67   H35   S    
C11   C13   S    
C19   O21   S    
C62   H18   S    
C12   C14   S    
C13   O31   S    
O21   C61   S    
C17   C18   A    
C21   C23   A    
C68   H40   S    
C39   C40   A    
O4    V1    S    
O3    V1    S    
V1    O10   S    
O34   C69   S    
C54   C57   S    
C38   C39   A    
O14   V3    S    
C23   C48   S    
C41   O27   S    
C61   H15   S    
C18   C19   A    
C42   O28   S    
C9    C11   S    
O7    V2    S    
C57   C58   S    
C63   H22   S    
O30   H38   S    
O19   C48   A    
C33   O25   S    
C49   H12   S    
O12   C45   A    
O14   C46   A    
C13   C14   S    
O32   C68   S    
C69   H44   S    
O13   C48   A    
O23   C63   S    
C64   H24   S    
C33   C34   A    
O26   H30   S    
C66   H33   S    
C2    C52   S    
