data_mof_unit_17788.cif
_audit_creation_date              2012-10-26T18:28:25-0400
_audit_creation_method            fapswitch 2.2
_symmetry_space_group_name_H-M    P1
_symmetry_Int_Tables_number       1
_space_group_crystal_system       triclinic
_cell_length_a                    27.705502
_cell_length_b                    10.911584
_cell_length_c                    9.80341
_cell_angle_alpha                 111.213449
_cell_angle_beta                  97.760217
_cell_angle_gamma                 90.615489
_cell_volume                      2731.84839323

loop_
_atom_site_label
_atom_site_type_symbol
_atom_type_description
_atom_site_fract_x
_atom_site_fract_y
_atom_site_fract_z
_atom_type_partial_charge
C1    C     C_R   0.496075 0.253169 0.440459 0.552357
C2    C     C_R   0.876937 0.522621 0.624455 0.023974
C3    C     C_R   0.355336 0.500866 0.505518 0.011140
C4    C     C_R   0.644527 0.505000 0.495026 0.005296
C5    C     C_R   0.978778 0.504414 0.623162 0.019322
C6    C     C_R   0.021021 0.530899 0.386069 0.019312
C7    C     C_R   0.970194 0.546262 0.390927 0.002470
C8    C     C_R   0.029582 0.488899 0.618239 0.002442
C9    C     C_R   0.949072 0.529436 0.506981 0.027624
C10   C     C_R   0.050674 0.504835 0.501676 0.027522
C11   C     C_R   0.956583 0.498302 0.742528 -0.148328
C12   C     C_R   0.502823 0.747250 0.559897 0.548708
C13   C     C_R   0.043225 0.537460 0.266924 -0.148339
C14   C     C_R   0.906730 0.505496 0.741846 -0.125373
C15   C     C_R   0.092950 0.527700 0.266213 -0.125675
C16   C     C_R   0.407792 0.501080 0.502028 0.539853
C17   C     C_R   0.592154 0.499151 0.497917 0.539291
C18   C     C_R   0.059622 0.452257 0.723490 -0.133948
C19   C     C_R   0.940067 0.582877 0.285752 -0.133692
C20   C     C_2   0.492818 0.111556 0.407198 -0.011213
C21   C     C_2   0.502278 0.889803 0.594661 -0.028060
C22   C     C_2   0.477897 0.068873 0.508063 -0.154385
C23   C     C_R   0.101823 0.493943 0.499847 -0.040223
C24   C     C_2   0.478325 0.930592 0.491582 -0.164844
C25   C     C_2   0.504781 0.508931 0.080570 -0.031908
C26   C     C_2   0.496051 0.488412 0.918582 -0.029870
C27   C     C_R   0.183403 0.472801 0.613669 0.371712
C28   C     C_R   0.816061 0.553784 0.390612 0.371688
C29   C     C_R   0.172972 0.500678 0.381542 0.383623
C30   C     C_R   0.826421 0.525034 0.622290 0.384118
C31   C     C_R   0.279800 0.609771 0.538803 -0.053779
C32   C     C_R   0.721074 0.404161 0.452797 -0.046913
C33   C     C_R   0.330509 0.618359 0.543217 -0.032184
C34   C     C_R   0.897804 0.537911 0.507466 -0.040350
C35   C     C_R   0.670382 0.389657 0.450062 -0.031591
C36   C     C_R   0.329461 0.378880 0.463900 -0.147698
C37   C     C_R   0.668694 0.629656 0.541751 -0.144326
C38   C     C_R   0.278796 0.370750 0.459651 0.045409
C39   C     C_R   0.719118 0.643528 0.546157 0.046127
C40   C     C_R   0.253987 0.487947 0.498846 0.245328
C41   C     C_R   0.745325 0.529196 0.500583 0.244226
C42   C     C_3   0.528657 0.983572 0.743312 -0.252880
C43   C     C_3   0.583866 0.967576 0.757094 -0.295257
C44   C     C_3   0.610204 0.061686 0.906104 -0.450105
C45   C     C_R   0.132198 0.469480 0.614935 0.023583
C46   C     C_3   0.509087 0.019706 0.266131 -0.254980
C47   C     C_3   0.465685 0.965044 0.141688 -0.308199
C48   C     C_3   0.477550 0.837204 0.025082 -0.438798
C49   C     C_3   0.252192 0.236401 0.407655 -0.236164
C50   C     C_3   0.247395 0.170120 0.238966 -0.308083
C51   C     C_3   0.218879 0.036634 0.183335 -0.454167
C52   C     C_3   0.743752 0.780666 0.602200 -0.235382
C53   C     C_3   0.744896 0.847167 0.769834 -0.308075
C54   C     C_3   0.770146 0.985068 0.828672 -0.456191
C55   C     C_3   0.137034 0.394688 0.840281 -0.205400
C56   C     C_R   0.867354 0.561109 0.391688 0.023680
C57   C     C_3   0.151805 0.252687 0.769885 -0.273933
C58   C     C_3   0.180894 0.208056 0.885302 -0.435853
C59   C     C_3   0.862303 0.638744 0.168522 -0.206049
C60   C     C_3   0.846137 0.779111 0.240341 -0.273212
C61   C     C_3   0.815684 0.822678 0.126243 -0.437092
C62   C     C_3   0.643061 0.255103 0.402169 -0.250256
C63   C     C_3   0.675116 0.136557 0.370542 -0.310770
C64   C     C_3   0.644599 0.008002 0.332203 -0.460796
C65   C     C_3   0.356262 0.752791 0.582980 -0.253548
C66   C     C_3   0.352862 0.841949 0.743077 -0.296926
C67   C     C_R   0.110000 0.442229 0.724517 -0.005070
C68   C     C_3   0.382027 0.973334 0.786440 -0.461869
C69   C     C_R   0.889567 0.590879 0.283673 -0.004455
C70   C     C_R   0.122635 0.507753 0.382023 0.024409
Cu1   Cu    Cu3+1 0.508480 0.521810 0.644910 0.904666
Cu2   Cu    Cu3+1 0.491520 0.478190 0.355090 0.911229
H1    H     H_    0.348870 0.289315 0.433109 0.098316
H2    H     H_    0.108113 0.536476 0.173747 0.147361
H3    H     H_    0.976589 0.489776 0.840377 0.097043
H4    H     H_    0.023294 0.547894 0.170039 0.097056
H5    H     H_    0.044300 0.425502 0.804655 0.099213
H6    H     H_    0.955362 0.610796 0.205324 0.098979
H7    H     H_    0.460901 0.859213 0.386237 0.151120
H8    H     H_    0.466778 0.138334 0.608232 0.125833
H9    H     H_    0.604753 0.165516 0.917763 0.166690
H10   H     H_    0.596184 0.042643 0.997992 0.144902
H11   H     H_    0.649926 0.046896 0.913881 0.143414
H12   H     H_    0.648053 0.716812 0.575839 0.092233
H13   H     H_    0.591467 0.865096 0.746902 0.171304
H14   H     H_    0.598607 0.988050 0.666933 0.156823
H15   H     H_    0.522551 0.088217 0.762023 0.147320
H16   H     H_    0.513838 0.962843 0.832769 0.143117
H17   H     H_    0.513555 0.848557 0.991760 0.155412
H18   H     H_    0.478518 0.758306 0.071413 0.158230
H19   H     H_    0.449218 0.807909 0.925958 0.165963
H20   H     H_    0.432721 0.945046 0.185590 0.163168
H21   H     H_    0.457010 0.038860 0.089614 0.165820
H22   H     H_    0.535816 0.073455 0.229478 0.133683
H23   H     H_    0.467485 0.416535 0.846182 0.147228
H24   H     H_    0.528900 0.938854 0.287575 0.145694
H25   H     H_    0.237726 0.969869 0.232804 0.162975
H26   H     H_    0.181380 0.048725 0.212472 0.155300
H27   H     H_    0.216221 0.991177 0.061070 0.148606
H28   H     H_    0.228082 0.234436 0.186805 0.192803
H29   H     H_    0.284213 0.155727 0.204663 0.159147
H30   H     H_    0.272569 0.174373 0.461152 0.132636
H31   H     H_    0.215249 0.243216 0.440508 0.160827
H32   H     H_    0.808506 0.980197 0.806615 0.156838
H33   H     H_    0.750428 0.048053 0.775397 0.162042
H34   H     H_    0.533560 0.580231 0.152738 0.148860
H35   H     H_    0.770282 0.030399 0.950049 0.146790
H36   H     H_    0.707112 0.854835 0.797110 0.156737
H37   H     H_    0.764835 0.786600 0.825974 0.192430
H38   H     H_    0.781673 0.778672 0.577136 0.160113
H39   H     H_    0.723508 0.839943 0.544673 0.132614
H40   H     H_    0.215008 0.271931 0.935878 0.186352
H41   H     H_    0.158815 0.212407 0.973320 0.159799
H42   H     H_    0.190734 0.104952 0.831905 0.133089
H43   H     H_    0.118364 0.185863 0.718982 0.150359
H44   H     H_    0.174097 0.243284 0.681116 0.190127
H45   H     H_    0.548535 0.620977 0.933500 0.200165
H46   H     H_    0.168457 0.463752 0.906753 0.220018
H47   H     H_    0.113382 0.395090 0.923398 0.115375
H48   H     H_    0.837070 0.820408 0.037390 0.159467
H49   H     H_    0.781998 0.756820 0.076647 0.184517
H50   H     H_    0.805037 0.924836 0.180582 0.132441
H51   H     H_    0.824346 0.785884 0.329554 0.189924
H52   H     H_    0.879001 0.848206 0.291008 0.150268
H53   H     H_    0.886126 0.641587 0.086982 0.114378
H54   H     H_    0.831514 0.568144 0.100206 0.220029
H55   H     H_    0.623874 0.013283 0.423396 0.148284
H56   H     H_    0.451607 0.378566 0.066394 0.200945
H57   H     H_    0.618741 0.987686 0.228569 0.140881
H58   H     H_    0.668995 0.925331 0.315379 0.148848
H59   H     H_    0.694520 0.128236 0.275727 0.158706
H60   H     H_    0.702360 0.149952 0.469934 0.168164
H61   H     H_    0.622053 0.255808 0.491442 0.156083
H62   H     H_    0.616462 0.240964 0.301208 0.149686
H63   H     H_    0.421239 0.957253 0.779601 0.151777
H64   H     H_    0.368160 0.025576 0.712067 0.153609
H65   H     H_    0.378373 0.036202 0.901913 0.139026
H66   H     H_    0.314186 0.862015 0.756159 0.158442
H67   H     H_    0.742762 0.319518 0.419213 0.113466
H68   H     H_    0.366970 0.791829 0.819393 0.172409
H69   H     H_    0.395289 0.745038 0.568662 0.156492
H70   H     H_    0.339090 0.799441 0.506280 0.140912
H71   H     H_    0.259850 0.698252 0.565327 0.116234
H72   H     H_    0.891552 0.496668 0.834292 0.147847
N1    N     N_R   0.202103 0.485368 0.497004 -0.398345
N2    N     N_R   0.797263 0.537816 0.505408 -0.400013
N3    N     N_2   0.478780 0.445430 0.137360 -0.350766
N4    N     N_2   0.521220 0.554570 0.862640 -0.354247
O1    O     O_R   0.504520 0.332330 0.577400 -0.498862
O2    O     O_2   0.784750 0.559710 0.275847 -0.526679
O3    O     O_2   0.806331 0.512830 0.735185 -0.527400
O4    O     O_2   0.192908 0.510505 0.267296 -0.530679
O5    O     O_R   0.495480 0.667670 0.422600 -0.501163
O6    O     O_R   0.490210 0.295500 0.332650 -0.491974
O7    O     O_R   0.509790 0.704500 0.667350 -0.497590
O8    O     O_R   0.437420 0.518430 0.622370 -0.494838
O9    O     O_R   0.562580 0.481570 0.377630 -0.494376
O10   O     O_R   0.423110 0.481600 0.377610 -0.486492
O11   O     O_R   0.576890 0.518400 0.622390 -0.484937
O12   O     O_2   0.214775 0.466054 0.727891 -0.527303

loop_
_geom_bond_atom_site_label_1
_geom_bond_atom_site_label_2
_ccdc_geom_bond_type
C51   H25   S    
C66   C68   S    
C34   C56   A    
C23   C45   A    
C60   H51   S    
C47   H20   S    
C12   O5    A    
C44   H11   S    
C28   C56   A    
C33   C65   S    
C39   C41   A    
C38   C49   S    
C55   H47   S    
C53   C54   S    
C59   H54   S    
C28   O2    S    
C54   H35   S    
H45   N4    S    
C58   H40   S    
C62   H61   S    
C54   H32   S    
C5    C11   A    
C44   H10   S    
C29   N1    A    
C11   C14   A    
C3    C33   A    
Cu2   O10   S    
C31   C40   A    
C27   O12   S    
C61   H49   S    
C60   H52   S    
C41   N2    S    
C48   H19   S    
C46   H22   S    
C16   O8    A    
C58   H41   S    
C32   C41   A    
C31   C33   A    
C37   H12   S    
C1    O1    A    
C63   H59   S    
C17   O9    A    
C2    C34   A    
C51   H26   S    
C39   C52   S    
C4    C35   A    
C59   C60   S    
C48   H18   S    
C61   H48   S    
C23   C70   A    
C68   H65   S    
C2    C14   A    
C25   H34   S    
C30   N2    A    
C57   H44   S    
C51   H27   S    
C14   H72   S    
Cu2   O6    S    
C16   O10   A    
C43   H13   S    
C32   C35   A    
C68   H64   S    
C32   H67   S    
C57   H43   S    
C44   H9    S    
C36   H1    S    
C30   O3    S    
C49   H30   S    
C52   H39   S    
C25   C26   S    
C12   C21   S    
C8    C18   A    
Cu2   O9    S    
C21   C42   S    
C61   H50   S    
C19   H6    S    
C43   C44   S    
C5    C9    A    
C62   C63   S    
C65   H69   S    
C24   H7    S    
C47   C48   S    
C66   H66   S    
C13   H4    S    
C52   H38   S    
C27   N1    A    
C64   H55   S    
Cu1   O7    S    
C50   C51   S    
C47   H21   S    
C46   H24   S    
C25   N3    D    
C63   H60   S    
C4    C37   A    
C26   N4    D    
C6    C7    A    
C59   C69   S    
C4    C17   S    
C40   N1    S    
C64   H58   S    
C65   C66   S    
C7    C19   A    
C48   H17   S    
C55   C57   S    
C9    C34   A    
C49   C50   S    
C22   C24   S    
C19   C69   A    
C42   H16   S    
C42   C43   S    
C12   O7    A    
C52   C53   S    
C29   C70   A    
C53   H37   S    
C26   H23   S    
C7    C9    A    
C15   C70   A    
C46   C47   S    
C1    C20   S    
Cu2   O5    S    
C54   H33   S    
C43   H14   S    
C50   H28   S    
C68   H63   S    
C20   C22   D    
C49   H31   S    
C5    C8    A    
C55   C67   S    
H56   N3    S    
C45   C67   A    
C10   C23   A    
C59   H53   S    
Cu2   N3    S    
Cu1   O11   S    
C28   N2    A    
C2    C30   A    
C62   H62   S    
C13   C15   A    
C18   C67   A    
C22   H8    S    
Cu1   Cu2   S    
C37   C39   A    
C11   H3    S    
C6    C13   A    
C38   C40   A    
C65   H70   S    
C53   H36   S    
C27   C45   A    
C57   C58   S    
Cu1   O1    S    
C3    C36   A    
C18   H5    S    
Cu1   O8    S    
C36   C38   A    
Cu1   N4    S    
C35   C62   S    
C31   H71   S    
C1    O6    A    
C17   O11   A    
C6    C10   A    
C63   C64   S    
C15   H2    S    
C66   H68   S    
C64   H57   S    
C50   H29   S    
C8    C10   A    
C56   C69   A    
C21   C24   D    
C58   H42   S    
C60   C61   S    
C42   H15   S    
C20   C46   S    
C3    C16   S    
C29   O4    S    
C55   H46   S    
