data_mof_unit_7019.cif
_audit_creation_date              2012-12-10T17:18:54-0500
_audit_creation_method            fapswitch 2.2
_symmetry_space_group_name_H-M    P1
_symmetry_Int_Tables_number       1
_space_group_crystal_system       triclinic
_cell_length_a                    10.191519
_cell_length_b                    10.833114
_cell_length_c                    13.718495
_cell_angle_alpha                 92.147439
_cell_angle_beta                  100.207732
_cell_angle_gamma                 96.020559
_cell_volume                      1479.97364617

loop_
_atom_site_label
_atom_site_type_symbol
_atom_type_description
_atom_site_fract_x
_atom_site_fract_y
_atom_site_fract_z
_atom_type_partial_charge
C1    C     C_R   0.052106 0.732109 0.490992 0.945101
C2    C     C_2   0.998386 0.063380 0.469934 -0.144903
C3    C     C_2   0.430757 0.511182 0.508362 -0.138230
C4    C     C_2   0.569250 0.488677 0.491791 -0.150967
C5    C     C_R   0.095326 0.518340 0.685187 0.875951
C6    C     C_R   0.906495 0.486857 0.314605 0.868172
C7    C     C_R   0.153137 0.544587 0.789947 -0.077003
C8    C     C_R   0.859937 0.486214 0.208077 -0.056097
C9    C     C_R   0.144714 0.607218 0.959145 -0.197150
C10   C     C_R   0.885309 0.444033 0.039094 -0.211567
C11   C     C_R   0.078260 0.574184 0.862037 -0.212777
C12   C     C_R   0.945555 0.267415 0.503866 0.952586
C13   C     C_R   0.938237 0.450468 0.140060 -0.201439
C14   C     C_R   0.291642 0.546729 0.816241 -0.205454
C15   C     C_R   0.733767 0.522754 0.174535 -0.274830
C16   C     C_R   0.355496 0.556600 0.914463 0.093279
C17   C     C_R   0.685017 0.530375 0.073868 0.090981
C18   C     C_R   0.283321 0.599348 0.985530 0.118029
C19   C     C_R   0.757459 0.480142 0.005927 0.158713
C20   C     C_R   0.490825 0.532204 0.942463 0.031026
C21   C     C_R   0.557587 0.570531 0.040495 -0.019826
C22   C     C_R   0.490898 0.641708 0.102926 0.086955
C23   C     C_R   0.560034 0.465623 0.878600 0.082723
C24   C     C_R   0.352695 0.644302 0.078521 -0.229755
C25   C     C_R   0.695643 0.452736 0.908160 -0.297253
C26   C     C_2   0.078063 0.863221 0.477613 -0.382324
C27   C     C_2   0.910764 0.134494 0.497819 -0.384653
C28   C     C_2   0.975510 0.931280 0.472563 -0.147121
H1    H     H_    0.301488 0.691244 0.129404 0.156480
H2    H     H_    0.874467 0.890720 0.476699 0.189271
H3    H     H_    0.578685 0.415277 0.438291 0.167752
H4    H     H_    0.421334 0.584464 0.561974 0.160191
H5    H     H_    0.548625 0.689560 0.250764 0.182993
H6    H     H_    0.662826 0.745000 0.179751 0.198755
H7    H     H_    0.502604 0.303501 0.796254 0.198183
H8    H     H_    0.538903 0.427744 0.730638 0.183611
H9    H     H_    0.816809 0.094909 0.517050 0.149637
H10   H     H_    0.178863 0.904216 0.473533 0.150018
H11   H     H_    0.664834 0.622564 0.589424 0.159783
H12   H     H_    0.747559 0.406149 0.857509 0.149570
H13   H     H_    0.335164 0.377420 0.410591 0.159303
H14   H     H_    0.670468 0.538466 0.227701 0.167461
H15   H     H_    0.350818 0.548377 0.758575 0.180305
H16   H     H_    0.036692 0.421586 0.164850 0.161304
H17   H     H_    0.971049 0.577674 0.842579 0.160644
H18   H     H_    0.088531 0.639438 0.013243 0.152775
H19   H     H_    0.941718 0.406047 0.987457 0.152080
H20   H     H_    0.092638 0.102535 0.450755 0.187918
N1    N     N_2   0.322180 0.446120 0.460900 -0.190441
N2    N     N_2   0.677820 0.553880 0.539100 -0.196052
N3    N     N_3   0.561148 0.726128 0.183147 -0.462473
N4    N     N_3   0.491976 0.397851 0.788884 -0.466170
O1    O     O_R   0.935190 0.693030 0.507870 -0.609966
O2    O     O_R   0.064810 0.306970 0.492130 -0.606617
O3    O     O_R   0.142080 0.658430 0.482770 -0.611454
O4    O     O_R   0.857920 0.341570 0.517230 -0.609057
O5    O     O_R   0.969700 0.527180 0.651960 -0.611722
O6    O     O_R   0.030300 0.472820 0.348040 -0.615403
O7    O     O_R   0.176600 0.492580 0.626860 -0.609835
O8    O     O_R   0.823400 0.507420 0.373140 -0.618061
Zn1   Zn    Zn3+2 0.861850 0.523100 0.516760 0.930157
Zn2   Zn    Zn3+2 0.138150 0.476900 0.483240 0.936894

loop_
_geom_bond_atom_site_label_1
_geom_bond_atom_site_label_2
_ccdc_geom_bond_type
C7    C14   A    
O6    Zn2   S    
C3    H4    S    
C6    C8    S    
O5    Zn1   S    
C2    C27   D    
H5    N3    S    
C5    C7    S    
C6    O6    A    
C26   C28   D    
H8    N4    S    
C20   C23   A    
C5    O5    A    
C10   C19   A    
C16   C20   A    
C28   H2    S    
C1    O3    A    
C9    H18   S    
C12   O4    A    
C21   C22   A    
C7    C11   A    
C9    C11   A    
H6    N3    S    
C22   N3    S    
C23   N4    S    
C8    C13   A    
C27   H9    S    
C18   C24   A    
H13   N1    S    
C17   C19   A    
C8    C15   A    
C22   C24   A    
C23   C25   A    
C25   H12   S    
C3    N1    D    
C1    C26   S    
C19   C25   A    
C14   C16   A    
C11   H17   S    
C4    H3    S    
C5    O7    A    
C12   C27   S    
C3    C4    S    
O3    Zn2   S    
C6    O8    A    
C9    C18   A    
C10   H19   S    
H11   N2    S    
C20   C21   A    
C16   C18   A    
H7    N4    S    
C15   C17   A    
N2    Zn1   S    
C1    O1    A    
O4    Zn1   S    
C26   H10   S    
O7    Zn2   S    
C2    C28   S    
N1    Zn2   S    
O2    Zn2   S    
O8    Zn1   S    
C2    H20   S    
C24   H1    S    
O1    Zn1   S    
C13   H16   S    
C12   O2    A    
C15   H14   S    
C4    N2    D    
C14   H15   S    
C10   C13   A    
C17   C21   A    
