data_mof_unit_45326.cif
_audit_creation_date              2013-03-05T16:33:41-0500
_audit_creation_method            fapswitch 2.2
_symmetry_space_group_name_H-M    P1
_symmetry_Int_Tables_number       1
_space_group_crystal_system       triclinic
_cell_length_a                    9.076662
_cell_length_b                    10.796456
_cell_length_c                    9.554016
_cell_angle_alpha                 90.077664
_cell_angle_beta                  90.034383
_cell_angle_gamma                 90.077673
_cell_volume                      936.251378253

loop_
_atom_site_label
_atom_site_type_symbol
_atom_site_description
_atom_site_fract_x
_atom_site_fract_y
_atom_site_fract_z
_atom_type_partial_charge
O1    O     O_R   0.500000 0.319640 0.618810 -0.572674
O2    O     O_R   0.500020 0.319680 0.381230 -0.583529
C1    C     C_R   0.494508 0.262667 0.500000 0.781106
O3    O     O_R   0.288380 0.499980 0.618770 -0.582871
O4    O     O_R   0.288400 0.500020 0.381190 -0.597109
C2    C     C_R   0.220692 0.500149 0.499943 0.810057
Cu1   Cu    Cu3+1 0.499990 0.499980 0.640670 0.949853
Cu2   Cu    Cu3+1 0.500010 0.500020 0.359330 0.960201
O5    O     O_R   0.499980 0.680320 0.618770 -0.587486
O6    O     O_R   0.500000 0.680360 0.381190 -0.583716
O7    O     O_R   0.711600 0.499980 0.618810 -0.581464
O8    O     O_R   0.711620 0.500020 0.381230 -0.560507
C3    C     C_R   0.493331 0.737245 0.499892 0.825730
C4    C     C_R   0.779295 0.500286 0.500047 0.875338
C5    C     C_1   0.065550 0.500378 0.499919 -0.178262
C6    C     C_1   0.934439 0.500435 0.500030 -0.176945
C7    C     C_R   0.557254 0.063673 0.600554 0.114498
C8    C     C_R   0.477259 0.129628 0.502056 -0.184456
C9    C     C_R   0.376775 0.065908 0.413395 -0.044665
C10   C     C_R   0.372602 0.933735 0.417004 -0.063504
C11   C     C_R   0.478363 0.870409 0.500430 -0.150315
C12   C     C_R   0.561606 0.937462 0.596404 0.118707
C13   C     C_3   0.720587 0.933396 0.640397 -0.239016
C14   C     C_3   0.714821 0.074570 0.644649 -0.494239
H1    H     H_    0.735355 0.891952 0.745568 0.135538
H2    H     H_    0.725418 0.112778 0.752296 0.202798
H3    H     H_    0.783708 0.122179 0.564665 0.195854
C15   C     C_R   0.611338 0.555984 0.073836 0.248191
N1    N     N_R   0.500920 0.500930 0.147930 -0.198410
C16   C     C_R   0.398323 0.434322 0.074244 -0.050110
H4    H     H_    0.314358 0.383029 0.129797 0.155814
C17   C     C_R   0.398335 0.434292 0.925397 -0.053082
N2    N     N_R   0.500930 0.500890 0.852020 -0.191527
C18   C     C_R   0.611462 0.555804 0.926629 0.266585
C19   C     C_3   0.654867 0.688838 0.921245 -0.529373
C20   C     C_3   0.654491 0.689104 0.080118 -0.429010
H5    H     H_    0.567663 0.748724 0.875741 0.224228
H6    H     H_    0.765866 0.702204 0.126307 0.230170
H7    H     H_    0.567030 0.749081 0.125171 0.226845
C21   C     C_2   0.281792 0.137886 0.316222 0.482638
H8    H     H_    0.235492 0.225761 0.349404 0.029452
O9    O     O_2   0.259697 0.102432 0.196613 -0.518191
C22   C     C_2   0.254877 0.862683 0.342631 0.387878
H9    H     H_    0.273365 0.769117 0.306122 0.092758
O10   O     O_2   0.132006 0.906292 0.326484 -0.509171
C23   C     C_2   0.829690 0.885508 0.534103 0.427171
H10   H     H_    0.945887 0.885477 0.560643 0.093544
O11   O     O_2   0.790999 0.847638 0.419341 -0.520441
H11   H     H_    0.314432 0.382894 0.869596 0.150278
H12   H     H_    0.766650 0.701196 0.875920 0.194842

loop_
_geom_bond_atom_site_label_1
_geom_bond_atom_site_label_2
_geom_bond_distance
_ccdc_geom_bond_type
O4    Cu2   1.932158 S    
C16   C17   1.422085 A    
C22   H9    1.081603 S    
C21   H8    1.085194 S    
N1    C16   1.369669 A    
C7    C12   1.363788 A    
C22   O10   1.220938 D    
C9    C10   1.427914 A    
C14   H3    1.113497 S    
Cu2   O8    1.931951 S    
C17   N2    1.369661 A    
C19   H12   1.111345 S    
C21   O9    1.221046 D    
C7    C8    1.386444 A    
C15   C18   1.406422 A    
Cu1   Cu2   2.687927 S    
C13   C23   1.510123 S    
O1    Cu1   1.957921 S    
C11   C12   1.389822 A    
Cu1   O7    1.932159 S    
Cu1   N2    2.019266 S    
C16   H4    1.081358 S    
O3    Cu1   1.931950 S    
Cu2   N1    2.019779 S    
C20   H6    1.111575 S    
C15   N1    1.363543 A    
C19   H5    1.111431 S    
O8    C4    1.290390 A    
O2    C1    1.292628 A    
C4    C6    1.408186 S    
C13   H1    1.108618 S    
O4    C2    1.290646 A    
O7    C4    1.290686 A    
C23   O11   1.220906 D    
C17   H11   1.081517 S    
C7    C14   1.495135 S    
C9    C21   1.487234 S    
C13   C14   1.525641 S    
C3    C11   1.444293 S    
C5    C6    1.190054 T    
C10   C22   1.493504 S    
N2    C18   1.364744 A    
C10   C11   1.423585 A    
C15   C20   1.490253 S    
C1    C8    1.444806 S    
Cu2   O6    1.957921 S    
C18   C19   1.489799 S    
Cu1   O5    1.958526 S    
O5    C3    1.293531 A    
C23   H10   1.084580 S    
C8    C9    1.420722 A    
C2    C5    1.408179 S    
C12   C13   1.503457 S    
O3    C2    1.290534 A    
C20   H7    1.111676 S    
O2    Cu2   1.958524 S    
C19   C20   1.517881 S    
C14   H2    1.111650 S    
O1    C1    1.291233 A    
O6    C3    1.290464 A    
