data_mof_unit_21617.cif
_audit_creation_date              2012-10-26T21:19:42-0400
_audit_creation_method            fapswitch 2.2
_symmetry_space_group_name_H-M    P1
_symmetry_Int_Tables_number       1
_space_group_crystal_system       triclinic
_cell_length_a                    10.833746
_cell_length_b                    15.131038
_cell_length_c                    13.91327
_cell_angle_alpha                 87.970077
_cell_angle_beta                  90.148428
_cell_angle_gamma                 91.543441
_cell_volume                      2278.48296548

loop_
_atom_site_label
_atom_site_type_symbol
_atom_type_description
_atom_site_fract_x
_atom_site_fract_y
_atom_site_fract_z
_atom_type_partial_charge
C1    C     C_R   0.495708 0.330369 0.501439 0.586380
C2    C     C_R   0.489738 0.822055 0.408777 0.042129
C3    C     C_R   0.487590 0.234284 0.504681 0.009188
C4    C     C_R   0.496493 0.768912 0.495487 -0.020684
C5    C     C_R   0.593777 0.189730 0.482015 -0.133778
C6    C     C_R   0.502065 0.810629 0.584147 -0.115918
C7    C     C_R   0.594474 0.098426 0.488331 -0.113977
C8    C     C_R   0.501507 0.901787 0.588413 -0.126091
C9    C     C_R   0.486946 0.050052 0.513115 -0.051543
C10   C     C_R   0.489506 0.953885 0.504680 -0.038039
C11   C     C_R   0.533155 0.579949 0.105883 0.023094
C12   C     C_R   0.499560 0.670815 0.498189 0.525763
C13   C     C_R   0.390625 0.466392 0.891497 0.010082
C14   C     C_R   0.559117 0.567443 0.205644 0.117397
C15   C     C_R   0.410698 0.451408 0.792411 0.176038
C16   C     C_R   0.262604 0.503299 0.499597 0.589064
C17   C     C_R   0.737703 0.497711 0.500548 0.539911
C18   C     C_R   0.443383 0.432909 0.211018 0.056864
C19   C     C_R   0.585401 0.548273 0.790370 0.043832
C20   C     C_R   0.444879 0.432148 0.109794 -0.163020
C21   C     C_R   0.585627 0.546731 0.891710 -0.092806
C22   C     C_R   0.485407 0.507579 0.054489 -0.008666
C23   C     C_R   0.871781 0.497628 0.501726 -0.017037
C24   C     C_R   0.486119 0.507315 0.944879 -0.004197
C25   C     C_R   0.198786 0.737042 0.271606 -0.081282
C26   C     C_R   0.793715 0.266261 0.725869 -0.059965
C27   C     C_R   0.153839 0.687730 0.352115 0.027732
C28   C     C_R   0.850403 0.314342 0.649023 0.033281
C29   C     C_R   0.122497 0.596761 0.342741 -0.016336
C30   C     C_R   0.879537 0.405542 0.658820 -0.013372
C31   C     C_R   0.139886 0.556355 0.253454 0.060055
C32   C     C_R   0.862445 0.444777 0.748805 0.059157
C33   C     C_R   0.187943 0.607454 0.175257 -0.059414
C34   C     C_R   0.128948 0.504658 0.499300 0.007921
C35   C     C_R   0.807301 0.394236 0.824614 -0.054280
C36   C     C_R   0.216450 0.697008 0.184307 -0.136844
C37   C     C_R   0.771167 0.306333 0.812431 -0.126652
C38   C     C_R   0.934349 0.541315 0.425490 -0.148117
C39   C     C_R   0.066561 0.461879 0.576075 -0.115563
C40   C     C_2   0.543617 0.670824 0.060868 0.230517
C41   C     C_2   0.265706 0.449398 0.934837 0.280592
C42   C     C_2   0.663758 0.618993 0.247314 0.244587
C43   C     C_2   0.345863 0.374523 0.749658 0.295616
C44   C     C_2   0.139180 0.732059 0.444966 0.232217
C45   C     C_R   0.938695 0.457379 0.578072 -0.076992
C46   C     C_2   0.884548 0.267735 0.561118 0.224470
C47   C     C_2   0.108433 0.461088 0.241494 0.251598
C48   C     C_2   0.903923 0.537584 0.764879 0.238472
C49   C     C_2   0.261307 0.039030 0.552892 0.252574
C50   C     C_2   0.453414 0.972349 0.327141 0.306406
C51   C     C_2   0.263668 0.234968 0.553474 0.269931
C52   C     C_2   0.501798 0.783435 0.312901 0.259712
C53   C     C_R   0.062431 0.545738 0.423630 -0.081448
C54   C     C_R   0.376401 0.093233 0.533864 -0.010320
C55   C     C_R   0.479488 0.915029 0.414198 0.057900
C56   C     C_R   0.377197 0.187074 0.530694 0.027184
Cu1   Cu    Cu3+1 0.500000 0.499990 0.596430 0.957533
Cu2   Cu    Cu3+1 0.500000 0.500010 0.403570 0.954663
H1    H     H_    0.252804 0.735648 0.123292 0.177753
H2    H     H_    0.117346 0.429529 0.633926 0.156896
H3    H     H_    0.676374 0.226163 0.458973 0.147145
H4    H     H_    0.509010 0.772786 0.651395 0.160281
H5    H     H_    0.601151 0.721679 0.092529 0.207412
H6    H     H_    0.249589 0.459761 0.009945 0.149249
H7    H     H_    0.669953 0.632474 0.322278 0.169225
H8    H     H_    0.318662 0.374063 0.675771 0.158986
H9    H     H_    0.401426 0.377518 0.251149 0.164566
H10   H     H_    0.656782 0.585312 0.751139 0.147124
H11   H     H_    0.221723 0.806811 0.276350 0.209276
H12   H     H_    0.728012 0.268419 0.871251 0.141443
H13   H     H_    0.768182 0.197014 0.719477 0.170555
H14   H     H_    0.102892 0.695781 0.507767 0.116766
H15   H     H_    0.916200 0.304452 0.497097 0.135561
H16   H     H_    0.079086 0.419181 0.302505 0.143765
H17   H     H_    0.938680 0.579764 0.705819 0.119706
H18   H     H_    0.266742 0.972378 0.583604 0.149964
H19   H     H_    0.482814 0.041422 0.323938 0.118761
H20   H     H_    0.203907 0.211002 0.611745 0.171002
H21   H     H_    0.445480 0.727023 0.292780 0.115694
H22   H     H_    0.677917 0.064909 0.469955 0.178391
H23   H     H_    0.508204 0.932059 0.657745 0.143086
H24   H     H_    0.410617 0.373468 0.075068 0.133734
H25   H     H_    0.661955 0.578839 0.928130 0.173651
H26   H     H_    0.202756 0.578443 0.106498 0.161408
H27   H     H_    0.792083 0.422712 0.893759 0.166528
H28   H     H_    0.883462 0.573776 0.367768 0.166082
N1    N     N_R   0.500000 0.500020 0.258690 -0.264917
N2    N     N_R   0.500000 0.499980 0.741310 -0.274610
O1    O     O_R   0.500010 0.371450 0.581430 -0.519693
O2    O     O_2   0.176408 0.429188 0.885723 -0.445687
O3    O     O_2   0.750672 0.644501 0.196905 -0.511951
O4    O     O_2   0.323978 0.307337 0.798599 -0.497601
O5    O     O_2   0.168206 0.810049 0.452761 -0.491014
O6    O     O_2   0.879869 0.187054 0.559623 -0.478758
O7    O     O_2   0.114731 0.427898 0.163032 -0.506898
O8    O     O_2   0.900338 0.568221 0.844827 -0.491125
O9    O     O_2   0.159662 0.066336 0.530981 -0.438308
O10   O     O_2   0.394072 0.944168 0.259535 -0.461697
O11   O     O_2   0.233930 0.300044 0.505510 -0.531582
O12   O     O_R   0.499990 0.628550 0.418570 -0.560201
O13   O     O_2   0.576076 0.815373 0.254723 -0.472041
O14   O     O_R   0.500010 0.371460 0.418560 -0.488883
O15   O     O_R   0.499990 0.628540 0.581440 -0.493939
O16   O     O_R   0.319640 0.500000 0.581430 -0.531210
O17   O     O_R   0.680360 0.500000 0.418570 -0.523332
O18   O     O_R   0.319640 0.500010 0.418560 -0.485144
O19   O     O_R   0.680360 0.499990 0.581440 -0.507435
O20   O     O_2   0.481267 0.691904 0.990934 -0.503509

loop_
_geom_bond_atom_site_label_1
_geom_bond_atom_site_label_2
_ccdc_geom_bond_type
C23   C45   A    
C20   H24   S    
C27   C29   A    
C30   C45   S    
C36   H1    S    
Cu2   N1    S    
C13   C41   S    
C28   C46   S    
C17   C23   S    
C40   H5    S    
Cu1   O1    S    
C38   H28   S    
C19   C21   A    
C14   N1    A    
C51   C56   S    
C2    C55   A    
C17   O19   A    
C11   C14   A    
C49   C54   S    
C33   C36   A    
C42   O3    D    
C44   O5    D    
C16   C34   S    
C27   C44   S    
C16   O16   A    
C21   H25   S    
C42   H7    S    
C31   C33   A    
Cu2   O14   S    
C4    C12   S    
C52   H21   S    
C9    C10   S    
C16   O18   A    
C14   C42   S    
C41   O2    D    
C31   C47   S    
C37   H12   S    
C26   H13   S    
C32   C48   S    
C48   H17   S    
C51   O11   D    
Cu1   O15   S    
C54   C56   A    
C52   O13   D    
C50   O10   D    
C34   C39   A    
C32   C35   A    
Cu2   O12   S    
C12   O15   A    
C4    C6    A    
C19   N2    A    
C5    C7    A    
C6    C8    A    
C18   H9    S    
C8    H23   S    
C13   C24   A    
C1    C3    S    
C2    C4    A    
C17   O17   A    
C3    C56   A    
C46   O6    D    
C50   C55   S    
C49   H18   S    
C5    H3    S    
C19   H10   S    
C10   C55   A    
C2    C52   S    
Cu1   O19   S    
C20   C22   A    
C13   C15   A    
C22   C24   S    
C25   H11   S    
C50   H19   S    
C7    C9    A    
Cu1   O16   S    
C1    O1    A    
C48   O8    D    
C35   C37   A    
C43   O4    D    
C47   H16   S    
C3    C5    A    
C26   C37   A    
C25   C27   A    
C23   C38   A    
C11   C22   A    
C26   C28   A    
C18   N1    A    
Cu1   N2    S    
C39   C45   A    
Cu2   O17   S    
C6    H4    S    
C28   C30   A    
C51   H20   S    
C15   C43   S    
C29   C31   A    
C30   C32   A    
C35   H27   S    
Cu1   Cu2   S    
C38   C53   A    
C29   C53   S    
C43   H8    S    
C39   H2    S    
C44   H14   S    
C18   C20   A    
C11   C40   S    
C33   H26   S    
C12   O12   A    
C25   C36   A    
C49   O9    D    
C40   O20   D    
C34   C53   A    
C8    C10   A    
C21   C24   A    
C47   O7    D    
C15   N2    A    
C9    C54   A    
C41   H6    S    
Cu2   O18   S    
C1    O14   A    
C46   H15   S    
C7    H22   S    
