data_mof_unit_22113.cif
_audit_creation_date              2012-10-26T19:07:26-0400
_audit_creation_method            fapswitch 2.2
_symmetry_space_group_name_H-M    P1
_symmetry_Int_Tables_number       1
_space_group_crystal_system       triclinic
_cell_length_a                    15.023122
_cell_length_b                    13.716215
_cell_length_c                    10.6312
_cell_angle_alpha                 90.293303
_cell_angle_beta                  89.539133
_cell_angle_gamma                 89.102395
_cell_volume                      2190.29920074

loop_
_atom_site_label
_atom_site_type_symbol
_atom_type_description
_atom_site_fract_x
_atom_site_fract_y
_atom_site_fract_z
_atom_type_partial_charge
C1    C     C_R   0.328847 0.500790 0.502097 0.585493
C2    C     C_R   0.958545 0.447716 0.279417 -0.128305
C3    C     C_R   0.455381 0.794638 0.592574 0.026097
C4    C     C_R   0.544619 0.205362 0.407426 0.026098
C5    C     C_R   0.545138 0.792310 0.407778 0.038671
C6    C     C_R   0.454861 0.207690 0.592221 0.038671
C7    C     C_R   0.546023 0.895292 0.405404 -0.016176
C8    C     C_R   0.453976 0.104708 0.594596 -0.016176
C9    C     C_R   0.454240 0.897631 0.594766 -0.016254
C10   C     C_R   0.545759 0.102369 0.405234 -0.016254
C11   C     C_R   0.500036 0.948220 0.500014 0.054690
C12   C     C_R   0.671153 0.499210 0.497903 0.585494
C13   C     C_R   0.499964 0.051780 0.499986 0.054690
C14   C     C_R   0.591588 0.946418 0.311048 -0.144107
C15   C     C_R   0.408412 0.053582 0.688952 -0.144107
C16   C     C_R   0.408622 0.951043 0.689101 -0.147236
C17   C     C_R   0.591378 0.048956 0.310899 -0.147235
C18   C     C_R   0.500022 0.499691 0.259106 0.562471
C19   C     C_R   0.499977 0.500309 0.740894 0.562473
C20   C     C_3   0.430404 0.553230 0.043412 -0.128480
C21   C     C_3   0.569595 0.446771 0.956588 -0.128485
C22   C     C_3   0.506697 0.592495 0.960404 -0.125720
C23   C     C_R   0.953226 0.498897 0.499205 0.022091
C24   C     C_3   0.493301 0.407505 0.039595 -0.125724
C25   C     C_3   0.423762 0.461836 0.958424 -0.117644
C26   C     C_3   0.576237 0.538164 0.041576 -0.117648
C27   C     C_3   0.500026 0.500979 0.877714 0.047554
C28   C     C_3   0.499972 0.499022 0.122285 0.047550
C29   C     C_R   0.815102 0.465665 0.389416 0.236920
C30   C     C_R   0.184898 0.534336 0.610584 0.236920
C31   C     C_R   0.767578 0.497183 0.497048 0.006863
C32   C     C_R   0.232422 0.502817 0.502953 0.006863
C33   C     C_R   0.811723 0.526273 0.605578 -0.183170
C34   C     C_R   0.046774 0.501103 0.500796 0.022091
C35   C     C_R   0.188277 0.473727 0.394423 -0.183170
C36   C     C_R   0.904364 0.525531 0.608341 0.003305
C37   C     C_R   0.095636 0.474469 0.391660 0.003305
C38   C     C_3   0.767308 0.334742 0.278147 -0.012961
C39   C     C_3   0.721034 0.303423 0.158346 -0.383655
C40   C     C_3   0.232692 0.665261 0.721851 -0.012959
C41   C     C_3   0.278961 0.696580 0.841657 -0.383654
C42   C     C_R   0.908671 0.470452 0.388445 0.021701
C43   C     C_R   0.091329 0.529549 0.611556 0.021700
C44   C     C_R   0.948818 0.551256 0.718500 -0.141332
C45   C     C_R   0.051183 0.448745 0.281502 -0.141333
C46   C     C_R   0.041455 0.552285 0.720584 -0.128305
Cu1   Cu    Cu3+1 0.500000 0.597420 0.500000 0.941870
Cu2   Cu    Cu3+1 0.500000 0.402580 0.500000 0.941869
H1    H     H_    0.361354 0.430947 0.921099 0.132902
H2    H     H_    0.088125 0.429478 0.196743 0.111601
H3    H     H_    0.073690 0.571379 0.807838 0.146356
H4    H     H_    0.926310 0.428623 0.192163 0.146356
H5    H     H_    0.420906 0.754964 0.665100 0.114016
H6    H     H_    0.579094 0.245035 0.334900 0.114019
H7    H     H_    0.580686 0.750786 0.335990 0.127010
H8    H     H_    0.419313 0.249214 0.664010 0.127010
H9    H     H_    0.627326 0.907131 0.237274 0.104996
H10   H     H_    0.372673 0.092869 0.762725 0.104996
H11   H     H_    0.373107 0.913585 0.763028 0.099136
H12   H     H_    0.638645 0.569054 0.078900 0.132903
H13   H     H_    0.626892 0.086415 0.236972 0.099136
H14   H     H_    0.730150 0.305361 0.360132 0.149208
H15   H     H_    0.835456 0.301692 0.277182 0.120787
H16   H     H_    0.756759 0.332300 0.074954 0.153513
H17   H     H_    0.720268 0.222650 0.152109 0.083365
H18   H     H_    0.651545 0.331773 0.158806 0.162163
H19   H     H_    0.164544 0.698311 0.722807 0.120786
H20   H     H_    0.269855 0.694640 0.639869 0.149209
H21   H     H_    0.348455 0.668249 0.841191 0.162143
H22   H     H_    0.279710 0.777353 0.847906 0.083370
H23   H     H_    0.373489 0.596645 0.082295 0.108566
H24   H     H_    0.243244 0.667687 0.925045 0.153525
H25   H     H_    0.626510 0.403355 0.917704 0.108568
H26   H     H_    0.512269 0.668296 0.925393 0.112704
H27   H     H_    0.487730 0.331704 0.074607 0.112705
H28   H     H_    0.773559 0.548424 0.688297 0.110589
H29   H     H_    0.226441 0.451575 0.311705 0.110589
H30   H     H_    0.911875 0.570523 0.803259 0.111601
N1    N     N_R   0.500000 0.743810 0.500000 -0.240905
N2    N     N_R   0.500000 0.256190 0.500000 -0.240905
O1    O     O_R   0.370260 0.582280 0.500030 -0.503046
O2    O     O_3   0.230570 0.562313 0.717121 -0.572680
O3    O     O_R   0.629740 0.417720 0.499970 -0.503045
O4    O     O_R   0.629740 0.582280 0.499970 -0.498515
O5    O     O_R   0.370260 0.417720 0.500030 -0.498515
O6    O     O_R   0.499980 0.582260 0.316850 -0.511036
O7    O     O_R   0.500020 0.417740 0.683150 -0.511037
O8    O     O_R   0.500020 0.582260 0.683150 -0.513411
O9    O     O_R   0.499980 0.417740 0.316850 -0.513412
O10   O     O_3   0.769430 0.437690 0.282879 -0.572680

loop_
_geom_bond_atom_site_label_1
_geom_bond_atom_site_label_2
_ccdc_geom_bond_type
C21   C26   S    
C8    C13   A    
C29   C42   A    
C34   C37   A    
C3    H5    S    
Cu1   N1    S    
C3    N1    A    
C7    C11   A    
C39   H16   S    
C18   O6    A    
C23   C42   A    
C35   C37   A    
C9    C16   A    
C4    N2    A    
C19   O7    A    
C38   C39   S    
C20   C25   S    
C10   C17   A    
C1    O1    A    
C15   C16   A    
C21   H25   S    
C33   C36   A    
C12   O4    A    
C17   H13   S    
C7    C14   A    
C40   H19   S    
C31   C33   A    
C20   H23   S    
C5    N1    A    
C19   C27   S    
C21   C27   S    
C39   H17   S    
C14   C17   A    
C29   O10   S    
C44   C46   A    
C2    C45   A    
C1    O5    A    
Cu1   O6    S    
C40   O2    S    
C18   C28   S    
C24   C25   S    
C19   O8    A    
C5    C7    A    
C6    C8    A    
C20   C28   S    
C46   H3    S    
C35   H29   S    
C1    C32   S    
C12   O3    A    
C16   H11   S    
C30   O2    S    
C32   C35   A    
C3    C9    A    
C33   H28   S    
C6    N2    A    
Cu1   Cu2   S    
C23   C34   A    
Cu2   O7    S    
Cu1   O4    S    
C9    C11   A    
C2    H4    S    
C41   H24   S    
C40   C41   S    
C20   C22   S    
C8    C15   A    
Cu2   O9    S    
C12   C31   S    
C40   H20   S    
C15   H10   S    
C30   C43   A    
C36   C44   A    
C22   H26   S    
C4    C10   A    
C41   H21   S    
C38   H15   S    
C14   H9    S    
C4    H6    S    
C18   O9    A    
C5    H7    S    
C34   C43   A    
C24   C28   S    
C6    H8    S    
C10   C13   A    
C24   H27   S    
C25   C27   S    
C38   O10   S    
C26   C28   S    
Cu2   O3    S    
C22   C27   S    
Cu1   O8    S    
Cu2   N2    S    
C44   H30   S    
C29   C31   A    
C30   C32   A    
C11   C13   A    
C26   H12   S    
C45   H2    S    
C2    C42   A    
C39   H18   S    
Cu1   O1    S    
C43   C46   A    
C25   H1    S    
C23   C36   A    
C22   C26   S    
C21   C24   S    
Cu2   O5    S    
C37   C45   A    
C41   H22   S    
C38   H14   S    
