data_mof_unit_59432.cif
_audit_creation_date              2012-12-10T18:01:20-0500
_audit_creation_method            fapswitch 2.2
_symmetry_space_group_name_H-M    P1
_symmetry_Int_Tables_number       1
_space_group_crystal_system       triclinic
_cell_length_a                    18.504187
_cell_length_b                    18.418459
_cell_length_c                    25.969902
_cell_angle_alpha                 90.169029
_cell_angle_beta                  89.768696
_cell_angle_gamma                 89.932914
_cell_volume                      8850.9090592

loop_
_atom_site_label
_atom_site_type_symbol
_atom_type_description
_atom_site_fract_x
_atom_site_fract_y
_atom_site_fract_z
_atom_type_partial_charge
C1    C     C_R   0.860084 0.139907 0.749643 0.886015
C2    C     C_R   0.194312 0.197500 0.253182 -0.140232
C3    C     C_R   0.249980 0.697661 0.208652 0.127790
C4    C     C_3   0.725367 0.134805 0.366214 -0.431672
C5    C     C_3   0.319813 0.083533 0.301574 -0.614203
C6    C     C_3   0.268190 0.133409 0.633611 -0.441198
C7    C     C_3   0.674564 0.084080 0.717108 -0.660210
C8    C     C_3   0.248998 0.692188 0.885473 -0.397834
C9    C     C_3   0.819576 0.588899 0.803994 -0.608165
C10   C     C_3   0.749136 0.663553 0.118929 -0.410707
C11   C     C_3   0.183801 0.585045 0.194299 -0.634519
C12   C     C_3   0.289255 0.926151 0.684229 -0.593622
C13   C     C_R   0.198535 0.194249 0.750548 -0.119754
C14   C     C_3   0.738515 0.926451 0.664311 -0.599077
C15   C     C_3   0.732710 0.896904 0.345703 -0.516849
C16   C     C_3   0.252512 0.915282 0.345849 -0.573464
C17   C     C_3   0.792343 0.435371 0.202506 -0.616303
C18   C     C_3   0.244382 0.414894 0.155631 -0.594367
C19   C     C_3   0.218686 0.421858 0.828027 -0.571218
C20   C     C_3   0.761287 0.422742 0.837581 -0.568302
C21   C     C_R   0.805612 0.197251 0.746875 -0.136620
C22   C     C_R   0.306322 0.698574 0.753644 -0.126019
C23   C     C_R   0.692324 0.699547 0.755112 -0.139995
C24   C     C_R   0.694329 0.697688 0.245382 -0.115388
C25   C     C_R   0.304982 0.697758 0.246872 -0.144471
C26   C     C_R   0.811328 0.256159 0.220699 -0.266460
C27   C     C_R   0.190689 0.253812 0.217203 -0.272847
C28   C     C_R   0.193576 0.252802 0.784631 -0.271563
C29   C     C_R   0.140115 0.140152 0.749761 0.866958
C30   C     C_R   0.812245 0.256008 0.780362 -0.273654
C31   C     C_R   0.308025 0.752896 0.716254 -0.271010
C32   C     C_R   0.686824 0.756662 0.720363 -0.268581
C33   C     C_R   0.685535 0.760349 0.274703 -0.249141
C34   C     C_R   0.311388 0.756714 0.280458 -0.260767
C35   C     C_R   0.254281 0.805335 0.714188 0.150546
C36   C     C_R   0.740620 0.809015 0.715766 0.191189
C37   C     C_R   0.736179 0.815508 0.272283 0.145375
C38   C     C_R   0.264134 0.815767 0.278730 0.187084
C39   C     C_R   0.757992 0.308738 0.218238 0.158271
C40   C     C_R   0.139640 0.140206 0.250552 0.877875
C41   C     C_R   0.246308 0.304166 0.212617 0.177395
C42   C     C_R   0.248907 0.303438 0.788404 0.148975
C43   C     C_R   0.757429 0.307371 0.785313 0.185547
C44   C     C_R   0.193857 0.800562 0.748111 -0.209889
C45   C     C_R   0.797632 0.809775 0.754010 -0.230918
C46   C     C_R   0.803360 0.803225 0.246882 -0.212392
C47   C     C_R   0.204372 0.812258 0.243316 -0.218850
C48   C     C_R   0.692531 0.299216 0.246399 -0.218347
C49   C     C_R   0.300375 0.306719 0.252158 -0.226492
C50   C     C_R   0.309951 0.297225 0.755351 -0.208099
C51   C     C_R   0.860109 0.140068 0.250570 0.869596
C52   C     C_R   0.700880 0.307840 0.747008 -0.227202
C53   C     C_R   0.001204 0.939097 0.973470 -0.191227
C54   C     C_R   0.003917 0.939307 0.026234 -0.186437
C55   C     C_R   0.496989 0.439445 0.473597 -0.188683
C56   C     C_R   0.499810 0.439120 0.526347 -0.188303
C57   C     C_R   0.005657 0.004962 0.053179 -0.203500
C58   C     C_R   0.993266 0.004239 0.946706 -0.200867
C59   C     C_R   0.508294 0.504099 0.553403 -0.199678
C60   C     C_R   0.495759 0.505152 0.446915 -0.202532
C61   C     C_R   0.004937 0.072912 0.026177 0.342243
C62   C     C_R   0.359722 0.639972 0.249775 0.875649
C63   C     C_R   0.986909 0.071690 0.973753 0.344657
C64   C     C_R   0.515376 0.571594 0.526671 0.343741
C65   C     C_R   0.497307 0.572985 0.474255 0.341214
C66   C     C_R   0.138829 0.858548 0.748787 0.833867
C67   C     C_R   0.858730 0.861066 0.750695 0.901080
C68   C     C_R   0.859922 0.859663 0.249517 0.849435
C69   C     C_R   0.142655 0.862831 0.247663 0.887957
C70   C     C_R   0.638726 0.358451 0.248591 0.850497
C71   C     C_R   0.359420 0.360348 0.250339 0.906231
C72   C     C_R   0.362028 0.357810 0.751927 0.846110
C73   C     C_R   0.639223 0.640735 0.248778 0.863783
C74   C     C_R   0.640956 0.360653 0.749437 0.899775
C75   C     C_R   0.996813 0.000834 0.890875 0.865661
C76   C     C_R   0.002843 0.000926 0.109081 0.860099
C77   C     C_R   0.497532 0.501055 0.390973 0.860168
C78   C     C_R   0.503647 0.500724 0.609180 0.863696
C79   C     C_R   0.000438 0.999463 0.609097 1.140106
C80   C     C_R   0.999410 0.996641 0.391026 1.155055
C81   C     C_R   0.500491 0.501050 0.108955 1.135164
C82   C     C_R   0.499865 0.497412 0.890966 1.155666
C83   C     C_3   0.935412 0.951042 0.532794 0.127322
C84   C     C_R   0.639340 0.640691 0.751065 0.879296
C85   C     C_3   0.072982 0.962972 0.528685 0.228485
C86   C     C_3   0.069804 0.958489 0.468481 0.117437
C87   C     C_3   0.933529 0.950367 0.472503 0.202991
C88   C     C_3   0.439759 0.449395 0.031685 0.138991
C89   C     C_3   0.577331 0.472090 0.029263 0.209520
C90   C     C_3   0.573636 0.464697 0.968890 0.121439
C91   C     C_3   0.437448 0.449109 0.971452 0.184768
C92   C     C_3   0.994660 0.084468 0.532323 0.372319
C93   C     C_3   0.991951 0.082443 0.467559 0.396337
C94   C     C_3   0.490421 0.587195 0.031009 0.375053
C95   C     C_R   0.361349 0.641255 0.751574 0.874476
C96   C     C_3   0.489908 0.583884 0.966255 0.399870
C97   C     C_3   0.001059 0.999315 0.551770 -0.520769
C98   C     C_3   0.998446 0.996749 0.448797 -0.526860
C99   C     C_3   0.502024 0.502243 0.051308 -0.513136
C100  C     C_3   0.500051 0.498510 0.948442 -0.523728
C101  C     C_R   0.188123 0.740280 0.782396 0.319236
C102  C     C_R   0.795973 0.757944 0.795168 0.316489
C103  C     C_R   0.813445 0.738089 0.216818 0.328376
C104  C     C_R   0.203332 0.757017 0.204491 0.315571
C105  C     C_R   0.679801 0.232231 0.272568 0.340743
C106  C     C_R   0.802568 0.194581 0.250868 -0.128281
C107  C     C_R   0.298019 0.254788 0.293445 0.323991
C108  C     C_R   0.320280 0.232162 0.726063 0.327835
C109  C     C_R   0.701428 0.253763 0.707167 0.310238
C110  C     C_R   0.737566 0.183392 0.278714 0.072142
C111  C     C_R   0.251307 0.195646 0.289115 0.117073
C112  C     C_R   0.262141 0.183760 0.720977 0.067796
C113  C     C_R   0.746619 0.193898 0.712472 0.136289
C114  C     C_R   0.249475 0.696818 0.790554 0.068763
C115  C     C_R   0.748614 0.699016 0.791940 0.115118
C116  C     C_R   0.754424 0.690775 0.211561 0.060687
H1    H     H_    0.886367 0.980189 0.545889 0.141457
H2    H     H_    0.147956 0.254182 0.188763 0.206306
H3    H     H_    0.234063 0.442806 0.192761 0.224231
H4    H     H_    0.234843 0.324151 0.866204 0.272269
H5    H     H_    0.167836 0.425575 0.850692 0.217871
H6    H     H_    0.207792 0.436717 0.787328 0.216177
H7    H     H_    0.257349 0.461798 0.844565 0.274796
H8    H     H_    0.785799 0.320443 0.862775 0.228000
H9    H     H_    0.806715 0.438026 0.863269 0.201490
H10   H     H_    0.711519 0.445350 0.856229 0.301569
H11   H     H_    0.769439 0.447075 0.799044 0.216597
H12   H     H_    0.064045 0.265968 0.033243 0.380905
H13   H     H_    0.147400 0.258179 0.810141 0.205120
H14   H     H_    0.893377 0.249726 0.968044 0.380374
H15   H     H_    0.598703 0.754694 0.534489 0.383534
H16   H     H_    0.429342 0.762931 0.469376 0.382043
H17   H     H_    0.856620 0.257584 0.807566 0.203123
H18   H     H_    0.351501 0.754879 0.688080 0.204879
H19   H     H_    0.643279 0.756586 0.692396 0.201784
H20   H     H_    0.637132 0.768425 0.297727 0.200058
H21   H     H_    0.356127 0.758597 0.307385 0.203418
H22   H     H_    0.003914 0.887306 0.953587 0.234381
H23   H     H_    0.006081 0.887547 0.045898 0.237327
H24   H     H_    0.493664 0.387754 0.453669 0.233976
H25   H     H_    0.114460 0.004289 0.532187 0.179298
H26   H     H_    0.496023 0.387402 0.545946 0.232268
H27   H     H_    0.964453 0.755076 0.567076 0.388285
H28   H     H_    0.102810 0.828177 0.636273 0.368783
H29   H     H_    0.194486 0.810854 0.434086 0.384533
H30   H     H_    0.908177 0.816113 0.364367 0.366022
H31   H     H_    0.478179 0.255606 0.067386 0.386627
H32   H     H_    0.607030 0.326928 0.130357 0.371100
H33   H     H_    0.706274 0.323365 0.935654 0.385957
H34   H     H_    0.413380 0.322561 0.858486 0.370785
H35   H     H_    0.808194 0.079580 0.569251 0.357419
H36   H     H_    0.115061 0.991666 0.453474 0.183742
H37   H     H_    0.034852 0.239327 0.607144 0.388529
H38   H     H_    0.181356 0.144982 0.437456 0.387590
H39   H     H_    0.933005 0.213476 0.379331 0.379186
H40   H     H_    0.307247 0.564407 0.069374 0.350601
H41   H     H_    0.523388 0.763760 0.072740 0.391736
H42   H     H_    0.678085 0.652974 0.932951 0.391649
H43   H     H_    0.432293 0.712196 0.879900 0.376857
H44   H     H_    0.063277 0.599273 0.817086 0.387819
H45   H     H_    0.798877 0.736807 0.923761 0.375324
H46   H     H_    0.949249 0.608477 0.171759 0.392345
H47   H     H_    0.885643 0.981953 0.466556 0.182297
H48   H     H_    0.209658 0.737565 0.078414 0.391221
H49   H     H_    0.537316 0.100547 0.286991 0.386330
H50   H     H_    0.297507 0.232829 0.421719 0.376653
H51   H     H_    0.451641 0.097895 0.711405 0.376724
H52   H     H_    0.710118 0.223100 0.584947 0.389053
H53   H     H_    0.705175 0.076666 0.296240 0.267797
H54   H     H_    0.722415 0.082028 0.386621 0.236935
H55   H     H_    0.676540 0.166287 0.376419 0.258157
H56   H     H_    0.773264 0.165753 0.379112 0.267178
H57   H     H_    0.225886 0.114339 0.345041 0.274132
H58   H     H_    0.389073 0.475220 0.044666 0.137140
H59   H     H_    0.339316 0.049154 0.333899 0.241151
H60   H     H_    0.367376 0.113217 0.285779 0.257410
H61   H     H_    0.296899 0.048373 0.270881 0.218435
H62   H     H_    0.297978 0.078963 0.702883 0.251606
H63   H     H_    0.261336 0.080403 0.613725 0.247240
H64   H     H_    0.319474 0.157547 0.620253 0.264818
H65   H     H_    0.223420 0.170519 0.623278 0.261917
H66   H     H_    0.760048 0.102013 0.662941 0.273386
H67   H     H_    0.647735 0.044800 0.691021 0.238023
H68   H     H_    0.631305 0.118139 0.734502 0.263892
H69   H     H_    0.614645 0.518680 0.034547 0.167340
H70   H     H_    0.703509 0.054864 0.748252 0.209562
H71   H     H_    0.232884 0.600823 0.834301 0.278692
H72   H     H_    0.242878 0.652902 0.918173 0.278359
H73   H     H_    0.201594 0.728672 0.886919 0.222404
H74   H     H_    0.297093 0.727344 0.890538 0.231612
H75   H     H_    0.723579 0.615851 0.846807 0.276037
H76   H     H_    0.837317 0.552308 0.835509 0.235357
H77   H     H_    0.868020 0.619788 0.791203 0.265982
H78   H     H_    0.798915 0.557647 0.770461 0.202195
H79   H     H_    0.786134 0.592548 0.178032 0.266462
H80   H     H_    0.617375 0.498954 0.953976 0.192675
H81   H     H_    0.741441 0.616090 0.092266 0.260236
H82   H     H_    0.799046 0.692738 0.106917 0.248812
H83   H     H_    0.702907 0.702053 0.115617 0.253791
H84   H     H_    0.278156 0.618020 0.152016 0.289098
H85   H     H_    0.167926 0.548127 0.162208 0.232767
H86   H     H_    0.133805 0.613278 0.208028 0.263411
H87   H     H_    0.206842 0.553818 0.227062 0.208037
H88   H     H_    0.273786 0.834615 0.638328 0.268896
H89   H     H_    0.342827 0.930778 0.665127 0.221010
H90   H     H_    0.295261 0.935831 0.726310 0.205127
H91   H     H_    0.387891 0.478629 0.965358 0.182899
H92   H     H_    0.253604 0.969183 0.668529 0.276920
H93   H     H_    0.707021 0.826025 0.639364 0.244726
H94   H     H_    0.691251 0.944675 0.641555 0.197276
H95   H     H_    0.787313 0.945504 0.642856 0.283906
H96   H     H_    0.735535 0.951459 0.702961 0.228225
H97   H     H_    0.663915 0.899956 0.283422 0.226299
H98   H     H_    0.686745 0.878667 0.370557 0.225565
H99   H     H_    0.742616 0.956261 0.352390 0.241176
H100  H     H_    0.782645 0.866400 0.356109 0.286539
H101  H     H_    0.345527 0.882513 0.307533 0.222933
H102  H     H_    0.860403 0.263995 0.198504 0.203440
H103  H     H_    0.288715 0.923269 0.379533 0.222377
H104  H     H_    0.205713 0.882301 0.357777 0.300177
H105  H     H_    0.233420 0.970998 0.334916 0.253727
H106  H     H_    0.793517 0.351548 0.148370 0.264593
H107  H     H_    0.848165 0.447261 0.188962 0.218339
H108  H     H_    0.790459 0.437302 0.245390 0.212440
H109  H     H_    0.755682 0.477826 0.187362 0.274379
H110  H     H_    0.229030 0.309242 0.133096 0.256514
H111  H     H_    0.198947 0.426575 0.129022 0.196163
H112  H     H_    0.293987 0.437212 0.136832 0.282332
N1    N     N_2   0.730297 0.121791 0.311225 -0.281126
N2    N     N_2   0.741822 0.847478 0.666982 -0.242137
N3    N     N_2   0.716308 0.885048 0.292072 -0.317243
N4    N     N_2   0.289800 0.882350 0.301783 -0.315444
N5    N     N_2   0.767931 0.366233 0.182305 -0.245228
N6    N     N_2   0.254444 0.337313 0.162408 -0.243023
N7    N     N_2   0.249733 0.349820 0.832522 -0.259716
N8    N     N_2   0.753881 0.344298 0.834482 -0.261317
N9    N     N_2   0.265355 0.133620 0.320572 -0.247373
N10   N     N_2   0.268432 0.121697 0.688652 -0.290634
N11   N     N_2   0.724958 0.128100 0.687976 -0.243298
N12   N     N_2   0.255177 0.652852 0.836292 -0.248767
N13   N     N_2   0.763543 0.637200 0.823335 -0.244262
N14   N     N_2   0.753682 0.637072 0.171632 -0.270835
N15   N     N_2   0.237006 0.636789 0.175836 -0.236399
N16   N     N_2   0.256960 0.856207 0.673115 -0.247899
O1    O     O_3   1.000000 0.000000 0.749970 -0.550528
O2    O     O_R   0.646190 0.585480 0.219360 -0.625017
O3    O     O_3   0.427669 0.658385 0.874551 -0.517093
O4    O     O_2   0.080173 0.758293 0.852494 -0.219468
O5    O     O_2   0.047174 0.713422 0.766409 -0.284837
O6    O     O_3   0.107050 0.623874 0.830537 -0.573510
O7    O     O_2   0.928373 0.737599 0.836444 -0.156965
O8    O     O_2   0.856453 0.837602 0.872349 -0.313389
O9    O     O_3   0.825858 0.705763 0.899058 -0.517969
O10   O     O_2   0.913416 0.765329 0.143105 -0.223767
O11   O     O_2   0.956880 0.719145 0.226496 -0.277410
O12   O     O_3   0.901519 0.628735 0.161575 -0.577871
O13   O     O_R   0.646190 0.585480 0.780640 -0.656938
O14   O     O_2   0.072398 0.736745 0.161151 -0.161724
O15   O     O_2   0.144123 0.837961 0.127676 -0.316171
O16   O     O_3   0.176882 0.707177 0.099297 -0.495978
O17   O     O_2   0.573665 0.243399 0.342794 -0.213227
O18   O     O_2   0.537209 0.226176 0.252665 -0.296330
O19   O     O_3   0.583434 0.115087 0.303210 -0.578306
O20   O     O_2   0.428555 0.234252 0.335759 -0.152425
O21   O     O_2   0.356274 0.334023 0.371483 -0.316940
O22   O     O_3   0.325034 0.202034 0.397270 -0.522332
O23   O     O_2   0.420872 0.248433 0.652208 -0.208462
O24   O     O_R   0.353810 0.585480 0.780640 -0.620123
O25   O     O_2   0.463883 0.225151 0.740038 -0.290164
O26   O     O_3   0.416008 0.117621 0.686401 -0.567555
O27   O     O_2   0.570163 0.231477 0.666086 -0.137201
O28   O     O_2   0.641817 0.329418 0.627983 -0.305014
O29   O     O_3   0.673643 0.196232 0.605141 -0.503121
O30   O     O_2   0.968976 0.187404 0.086405 -0.246928
O31   O     O_2   0.094726 0.145229 0.091218 -0.301822
O32   O     O_3   0.057886 0.220786 0.012829 -0.467520
O33   O     O_2   0.006319 0.191929 0.916009 -0.242729
O34   O     O_2   0.890037 0.129342 0.907118 -0.312200
O35   O     O_R   0.146170 0.914530 0.719320 -0.628442
O36   O     O_3   0.909810 0.207090 0.988107 -0.471664
O37   O     O_2   0.493185 0.690199 0.586243 -0.247331
O38   O     O_2   0.611177 0.630477 0.593912 -0.302299
O39   O     O_3   0.588849 0.709923 0.514366 -0.462258
O40   O     O_2   0.531284 0.689128 0.415706 -0.243341
O41   O     O_2   0.406581 0.644461 0.409750 -0.301476
O42   O     O_3   0.440952 0.718757 0.489488 -0.472768
O43   O     O_R   0.853830 0.914530 0.719320 -0.642830
O44   O     O_R   0.853830 0.914530 0.280680 -0.626699
O45   O     O_R   0.146170 0.914530 0.280680 -0.650202
O46   O     O_R   0.646170 0.414530 0.219320 -0.623618
O47   O     O_R   0.353830 0.414530 0.219320 -0.644594
O48   O     O_R   0.353830 0.414530 0.780680 -0.637649
O49   O     O_3   0.000000 0.000000 0.250030 -0.550215
O50   O     O_R   0.646170 0.414530 0.780680 -0.646547
O51   O     O_R   0.085450 0.146180 0.780600 -0.641968
O52   O     O_R   0.914550 0.146180 0.780600 -0.616267
O53   O     O_R   0.914550 0.146180 0.219400 -0.638304
O54   O     O_R   0.085450 0.146180 0.219400 -0.618379
O55   O     O_R   0.585450 0.646180 0.280600 -0.637719
O56   O     O_R   0.414550 0.646180 0.280600 -0.619516
O57   O     O_R   0.414550 0.646180 0.719400 -0.642552
O58   O     O_R   0.585450 0.646180 0.719400 -0.614789
O59   O     O_R   0.914560 0.853830 0.780620 -0.544335
O60   O     O_3   0.500000 0.500000 0.249970 -0.551712
O61   O     O_R   0.085440 0.853830 0.780620 -0.561857
O62   O     O_R   0.085440 0.853830 0.219380 -0.543553
O63   O     O_R   0.914560 0.853830 0.219380 -0.556902
O64   O     O_R   0.414560 0.353830 0.280620 -0.541965
O65   O     O_R   0.585440 0.353830 0.280620 -0.560977
O66   O     O_R   0.585440 0.353830 0.719380 -0.545618
O67   O     O_R   0.414560 0.353830 0.719380 -0.559417
O68   O     O_R   1.000000 0.060730 0.866830 -0.580519
O69   O     O_R   0.000000 0.060730 0.133170 -0.576291
O70   O     O_R   0.500000 0.560730 0.366830 -0.575631
O71   O     O_3   0.500000 0.500000 0.750030 -0.548385
O72   O     O_R   0.500000 0.560730 0.633170 -0.578657
O73   O     O_R   0.939250 0.000010 0.633130 -0.606869
O74   O     O_R   0.060750 0.000010 0.633130 -0.543167
O75   O     O_R   0.060750 0.000010 0.366870 -0.596144
O76   O     O_R   0.939250 0.000010 0.366870 -0.544824
O77   O     O_R   0.439250 0.500010 0.133130 -0.611687
O78   O     O_R   0.560750 0.500010 0.133130 -0.537279
O79   O     O_R   0.560750 0.500010 0.866870 -0.598377
O80   O     O_R   0.439250 0.500010 0.866870 -0.548333
O81   O     O_R   0.000000 0.939270 0.866820 -0.615813
O82   O     O_R   0.853810 0.085480 0.719360 -0.654745
O83   O     O_R   0.000000 0.939270 0.133180 -0.613324
O84   O     O_R   0.500000 0.439270 0.366820 -0.619347
O85   O     O_R   0.500000 0.439270 0.633180 -0.620098
O86   O     O_2   0.916800 0.868493 0.622344 -0.299335
O87   O     O_2   0.846344 0.835714 0.548253 -0.227415
O88   O     O_3   0.981758 0.800128 0.550351 -0.395821
O89   O     O_2   0.140255 0.823147 0.538999 -0.169955
O90   O     O_2   0.187836 0.924950 0.586023 -0.304424
O91   O     O_3   0.071449 0.863927 0.618657 -0.510932
O92   O     O_2   0.056714 0.807787 0.464715 -0.128577
O93   O     O_R   0.146190 0.085480 0.719360 -0.617487
O94   O     O_2   0.077999 0.865826 0.383150 -0.320464
O95   O     O_3   0.183445 0.860161 0.447574 -0.540160
O96   O     O_2   0.922604 0.797372 0.462164 -0.146030
O97   O     O_2   0.819569 0.871619 0.442733 -0.302264
O98   O     O_3   0.924340 0.864441 0.376651 -0.552848
O99   O     O_2   0.423928 0.366529 0.120908 -0.304111
O100  O     O_2   0.355341 0.330829 0.046409 -0.240000
O101  O     O_3   0.492129 0.300507 0.048964 -0.397684
O102  O     O_2   0.659330 0.339271 0.038576 -0.185217
O103  O     O_2   0.689433 0.441648 0.092843 -0.289002
O104  O     O_R   0.146190 0.085480 0.280640 -0.656133
O105  O     O_3   0.576621 0.365702 0.115182 -0.500257
O106  O     O_2   0.569381 0.313579 0.966777 -0.133209
O107  O     O_2   0.587242 0.370205 0.883896 -0.274603
O108  O     O_3   0.693401 0.373692 0.946493 -0.528660
O109  O     O_2   0.430223 0.295403 0.961362 -0.139736
O110  O     O_2   0.328770 0.368067 0.932854 -0.299109
O111  O     O_3   0.442532 0.360723 0.875524 -0.536334
O112  O     O_2   0.911356 0.126331 0.618754 -0.314985
O113  O     O_2   0.919088 0.210542 0.550293 -0.177403
O114  O     O_3   0.834363 0.098058 0.538297 -0.519041
O115  O     O_R   0.853810 0.085480 0.280640 -0.605801
O116  O     O_2   0.130284 0.094305 0.584552 -0.321015
O117  O     O_2   0.105357 0.199774 0.532549 -0.198770
O118  O     O_3   0.037755 0.186610 0.617487 -0.506910
O119  O     O_2   0.067656 0.132036 0.379947 -0.322552
O120  O     O_2   0.048496 0.216643 0.448562 -0.198900
O121  O     O_3   0.148108 0.115751 0.459497 -0.552331
O122  O     O_2   0.847716 0.074351 0.425968 -0.316742
O123  O     O_2   0.877471 0.191763 0.462996 -0.189497
O124  O     O_3   0.931977 0.158859 0.375647 -0.524353
O125  O     O_2   0.407142 0.624402 0.117232 -0.321209
O126  O     O_R   0.353810 0.585480 0.219360 -0.651411
O127  O     O_2   0.400883 0.706790 0.048983 -0.168958
O128  O     O_3   0.329338 0.587075 0.038395 -0.526529
O129  O     O_2   0.604014 0.611967 0.101854 -0.324120
O130  O     O_2   0.615556 0.687076 0.028958 -0.237225
O131  O     O_3   0.520271 0.720286 0.095626 -0.465020
O132  O     O_2   0.560764 0.636420 0.877832 -0.320957
O133  O     O_2   0.547373 0.718568 0.949142 -0.222390
O134  O     O_3   0.647081 0.617917 0.951926 -0.565552
O135  O     O_2   0.347321 0.569978 0.923576 -0.299065
O136  O     O_2   0.372534 0.686873 0.961384 -0.233294
S1    S     S_3+6 0.919238 0.862984 0.564749 0.119292
S2    S     S_3+6 0.069476 0.140890 0.564492 0.098154
S3    S     S_3+6 0.064819 0.137733 0.437810 0.061385
S4    S     S_3+6 0.909759 0.126259 0.435331 0.102530
S5    S     S_3+6 0.405917 0.626711 0.059490 0.082062
S6    S     S_3+6 0.559870 0.650933 0.062339 0.077560
S7    S     S_3+6 0.561877 0.640308 0.935603 0.051756
S8    S     S_3+6 0.406991 0.623937 0.933531 0.089172
S9    S     S_3+6 0.103193 0.709943 0.808466 0.054557
S10   S     S_3+6 0.853355 0.761401 0.851342 0.074168
S11   S     S_3+6 0.898181 0.713381 0.186590 0.051301
S12   S     S_3+6 0.119192 0.891194 0.566889 0.141422
S13   S     S_3+6 0.147448 0.761245 0.147524 0.081294
S14   S     S_3+6 0.591225 0.204943 0.293168 0.049606
S15   S     S_3+6 0.353636 0.258062 0.350145 0.075440
S16   S     S_3+6 0.407189 0.206370 0.700821 0.054424
S17   S     S_3+6 0.644937 0.254531 0.650938 0.091960
S18   S     S_3+6 0.031783 0.157700 0.055843 0.098390
S19   S     S_3+6 0.948063 0.151230 0.944393 0.092883
S20   S     S_3+6 0.552423 0.651686 0.557049 0.099350
S21   S     S_3+6 0.468957 0.657486 0.445503 0.096715
S22   S     S_3+6 0.093767 0.870516 0.439720 0.102616
S23   S     S_3+6 0.900478 0.868301 0.439117 0.122803
S24   S     S_3+6 0.427060 0.360857 0.063321 0.112749
S25   S     S_3+6 0.627272 0.402331 0.067662 0.142883
S26   S     S_3+6 0.602724 0.377765 0.940447 0.121694
S27   S     S_3+6 0.410054 0.365773 0.936135 0.139021
S28   S     S_3+6 0.913897 0.130287 0.560834 0.078597
Zn1   Zn    Zn3+2 0.086750 0.999990 0.706190 1.077329
Zn2   Zn    Zn3+2 1.000000 0.086770 0.206250 1.067164
Zn3   Zn    Zn3+2 0.500000 0.586770 0.293750 1.063147
Zn4   Zn    Zn3+2 0.500000 0.586770 0.706250 1.066794
Zn5   Zn    Zn3+2 0.000000 0.913230 0.793740 1.124937
Zn6   Zn    Zn3+2 1.000000 0.913230 0.206260 1.131631
Zn7   Zn    Zn3+2 0.500000 0.413230 0.293740 1.127118
Zn8   Zn    Zn3+2 0.500000 0.413230 0.706260 1.128274
Zn9   Zn    Zn3+2 0.913250 0.999990 0.706190 1.041238
Zn10  Zn    Zn3+2 0.913250 0.999990 0.293810 1.083505
Zn11  Zn    Zn3+2 0.086750 0.999990 0.293810 1.045493
Zn12  Zn    Zn3+2 0.586750 0.499990 0.206190 1.083137
Zn13  Zn    Zn3+2 0.413250 0.499990 0.206190 1.036417
Zn14  Zn    Zn3+2 0.413250 0.499990 0.793810 1.076642
Zn15  Zn    Zn3+2 0.586750 0.499990 0.793810 1.049458
Zn16  Zn    Zn3+2 0.000000 0.086770 0.793750 1.063545

loop_
_geom_bond_atom_site_label_1
_geom_bond_atom_site_label_2
_ccdc_geom_bond_type
C105  C110  A    
C19   H6    S    
C4    H55   S    
C6    H63   S    
C26   H102  S    
O132  S7    D    
C68   O63   A    
C82   O80   A    
C51   O53   A    
O17   S14   D    
C6    N10   S    
C111  N9    S    
O125  S5    D    
O117  S2    D    
C89   C99   S    
C96   S7    S    
C57   C76   S    
C13   C112  A    
C43   N8    S    
O24   Zn14  S    
C9    H77   S    
C27   H2    S    
C81   O77   A    
C16   H103  S    
O29   S17   S    
C79   O73   A    
C61   C63   A    
C50   C72   S    
C7    H70   S    
C115  N13   S    
O105  S25   S    
O128  S5    S    
C8    H74   S    
C20   N8    S    
C92   S2    S    
O34   S19   D    
H66   N11   S    
H49   O19   S    
O6    S9    S    
O15   S13   D    
O89   S12   D    
C91   C100  S    
C25   C34   A    
O49   Zn11  S    
C26   C106  A    
O133  S7    D    
O102  S25   D    
O55   Zn3   S    
C41   C49   A    
C79   C97   S    
O10   S11   D    
C107  S15   S    
O60   Zn7   S    
C116  N14   S    
C2    C111  A    
C78   O72   A    
C23   C84   S    
O32   S18   S    
C74   O50   A    
O33   S19   D    
O76   Zn10  S    
C39   N5    S    
C63   S19   S    
C81   C99   S    
O111  S27   S    
C40   O104  A    
C67   O59   A    
O87   S1    D    
O49   Zn6   S    
O18   S14   D    
O72   Zn4   S    
C77   O70   A    
C86   H36   S    
C61   S18   S    
C48   C105  A    
O8    S10   D    
C53   C58   A    
O68   Zn16  S    
C18   N6    S    
O39   S20   S    
H50   O22   S    
C94   C96   S    
C87   S23   S    
C84   O58   A    
H79   N14   S    
C60   C65   A    
O31   S18   D    
C112  N10   S    
C75   O81   A    
C5    H60   S    
C30   C43   A    
O22   S15   S    
O82   Zn9   S    
C104  S13   S    
C114  N12   S    
O53   Zn2   S    
O127  S5    D    
C103  S11   S    
O115  Zn10  S    
C47   C104  A    
O113  S28   D    
C1    O52   A    
O5    S9    D    
O14   S13   D    
C50   C108  A    
C48   C70   S    
C71   O64   A    
C92   S28   S    
C32   H19   S    
C44   C101  A    
C78   O85   A    
C57   C61   A    
C46   C103  A    
O63   Zn6   S    
C56   C59   A    
C7    H67   S    
C12   H89   S    
C83   H1    S    
C89   S25   S    
C103  C116  A    
C20   H9    S    
H101  N4    S    
C64   C65   A    
O21   S15   D    
C83   S1    S    
C25   C62   S    
O120  S3    D    
C26   C39   A    
O52   Zn16  S    
C88   C99   S    
C85   C97   S    
C45   C102  A    
C73   O2    A    
C2    C40   S    
O116  S2    D    
C49   C71   S    
O101  S24   S    
O43   Zn9   S    
C29   O93   A    
C73   O55   A    
C11   N15   S    
C9    N13   S    
C10   H83   S    
H15   O39   S    
H71   N12   S    
C5    H61   S    
C85   C86   S    
O75   Zn11  S    
O85   Zn8   S    
C19   H7    S    
C4    H54   S    
C14   H95   S    
O20   S15   D    
O73   Zn9   S    
C70   O46   A    
C52   C74   S    
H57   N9    S    
C43   C52   A    
O1    Zn5   S    
C88   H58   S    
C47   C69   S    
O1    Zn9   S    
C17   H109  S    
C12   N16   S    
C69   O62   A    
C70   O65   A    
H97   N3    S    
O64   Zn7   S    
O92   S22   D    
O3    S8    S    
C31   H18   S    
O38   S20   D    
C59   C78   S    
C92   C97   S    
C8    N12   S    
C95   O57   A    
O50   Zn15  S    
C14   N2    S    
O99   S24   D    
C76   O69   A    
C94   S5    S    
C84   O13   A    
O30   S18   D    
C20   H11   S    
C21   C113  A    
C18   H111  S    
C85   H25   S    
O103  S25   D    
C11   H86   S    
H8    N8    S    
C46   C68   S    
C17   H107  S    
C42   N7    S    
C54   H23   S    
C88   C91   S    
O108  S26   S    
O48   Zn14  S    
O100  S24   D    
C66   O35   A    
O129  S6    D    
O71   Zn14  S    
C42   C50   A    
O67   Zn8   S    
O60   Zn3   S    
C24   C116  A    
O35   Zn1   S    
C10   H81   S    
C37   N3    S    
C19   H5    S    
C4    H56   S    
C6    H64   S    
O56   Zn3   S    
C107  C111  A    
O49   Zn2   S    
C91   H91   S    
O60   Zn12  S    
O69   Zn2   S    
H110  N6    S    
C96   S8    S    
C4    N1    S    
C72   O48   A    
O119  S3    D    
H38   O121  S    
O2    Zn12  S    
C96   C100  S    
O47   Zn13  S    
C16   H104  S    
H93   N2    S    
C80   O75   A    
O70   Zn3   S    
C22   C114  A    
C90   H80   S    
O4    S9    D    
C108  S16   S    
C64   S20   S    
O90   S12   D    
C18   H3    S    
C72   O67   A    
O49   Zn10  S    
C54   C57   A    
C83   C87   S    
C55   C56   A    
O88   S1    S    
O135  S8    D    
H51   O26   S    
O98   S23   S    
C29   O51   A    
C93   S3    S    
C82   O79   A    
C8    H72   S    
O91   S12   S    
O40   S21   D    
C5    N9    S    
C13   C29   S    
H4    N7    S    
C24   C73   S    
O13   Zn15  S    
C65   S21   S    
C6    H65   S    
O131  S6    S    
O93   Zn1   S    
O136  S8    D    
O12   S11   S    
C102  C115  A    
O16   S13   S    
O121  S3    S    
O60   Zn13  S    
O44   Zn10  S    
C45   C67   S    
H32   O105  S    
C13   C28   A    
C2    C27   A    
C101  S9    S    
C1    O82   A    
C37   C46   A    
C87   C98   S    
C15   N3    S    
C55   C60   A    
C91   S27   S    
C101  C114  A    
C5    H59   S    
O61   Zn5   S    
C16   H105  S    
H30   O98   S    
C89   H69   S    
H88   N16   S    
O1    Zn1   S    
O65   Zn7   S    
C53   H22   S    
C3    C25   A    
C9    H78   S    
C38   N4    S    
C102  S10   S    
C81   O78   A    
C53   C54   A    
C33   C37   A    
C55   H24   S    
C108  C112  A    
O42   S21   S    
C79   O74   A    
C12   H90   S    
O23   S16   D    
C20   H10   S    
C110  N1    S    
O71   Zn8   S    
C8    H73   S    
H27   O88   S    
O78   Zn12  S    
O11   S11   D    
C11   H87   S    
C94   S6    S    
C18   H112  S    
C15   H99   S    
O26   S16   S    
H37   O118  S    
C62   O126  A    
C77   O84   A    
C31   C35   A    
C32   C36   A    
O134  S7    S    
H62   N10   S    
O71   Zn15  S    
O126  Zn13  S    
O59   Zn5   S    
O96   S23   D    
O79   Zn15  S    
C80   C98   S    
C105  S14   S    
C15   H100  S    
C19   N7    S    
H31   O101  S    
C17   N5    S    
O106  S26   D    
O58   Zn4   S    
C21   C30   A    
C24   C33   A    
O74   Zn1   S    
C14   H96   S    
C23   C32   A    
C33   H20   S    
C52   C109  A    
C92   C93   S    
H39   O124  S    
H14   O36   S    
C86   C98   S    
O1    Zn16  S    
C83   C97   S    
H34   O111  S    
O7    S10   D    
C89   C90   S    
O122  S4    D    
C39   C48   A    
O80   Zn14  S    
C3    C104  A    
C87   H47   S    
H106  N5    S    
C1    C21   S    
H33   O108  S    
C62   O56   A    
C22   C95   S    
C44   C66   S    
C10   N14   S    
H28   O91   S    
H45   O9    S    
C88   S24   S    
C49   C107  A    
O112  S28   D    
C59   C64   A    
O84   Zn7   S    
C7    H68   S    
O130  S6    D    
C12   H92   S    
O45   Zn11  S    
O46   Zn12  S    
O41   S21   D    
C66   O61   A    
O86   S1    D    
C41   N6    S    
O36   S19   S    
O77   Zn13  S    
C28   H13   S    
C11   H85   S    
O51   Zn16  S    
H12   O32   S    
C67   O43   A    
O27   S17   D    
H16   O42   S    
C69   O45   A    
O81   Zn5   S    
C9    H76   S    
C109  C113  A    
C93   S4    S    
C35   N16   S    
C68   O44   A    
H41   O131  S    
C71   O47   A    
C15   H98   S    
C10   H82   S    
C90   C100  S    
O94   S22   D    
C58   C75   S    
H46   O12   S    
O110  S27   D    
C60   C77   S    
H35   O114  S    
C22   C31   A    
C14   H94   S    
C85   S12   S    
H75   N13   S    
O25   S16   D    
H44   O6    S    
O54   Zn2   S    
C109  S17   S    
H40   O128  S    
C23   C115  A    
C16   N4    S    
H42   O134  S    
O62   Zn6   S    
C74   O66   A    
O95   S22   S    
C27   C41   A    
C90   S26   S    
C30   H17   S    
O109  S27   D    
C36   C45   A    
O107  S26   D    
C3    N15   S    
C35   C44   A    
C80   O76   A    
H84   N15   S    
H43   O3    S    
C38   C47   A    
H52   O29   S    
C75   O68   A    
O104  Zn11  S    
C7    N11   S    
H48   O16   S    
O37   S20   D    
C51   O115  A    
C106  C110  A    
C58   C63   A    
O83   Zn6   S    
C34   C38   A    
C82   C100  S    
O97   S23   D    
H29   O95   S    
O9    S10   S    
O19   S14   S    
O71   Zn4   S    
O118  S2    S    
C34   H21   S    
C40   O54   A    
O28   S17   D    
C17   H108  S    
C95   O24   A    
C94   C99   S    
C51   C106  S    
C86   S22   S    
C28   C42   A    
H53   N1    S    
O124  S4    S    
O66   Zn8   S    
C56   H26   S    
C113  N11   S    
C36   N2    S    
O123  S4    D    
O57   Zn4   S    
C93   C98   S    
O114  S28   S    
C76   O83   A    
