data_mof_unit_10698.cif
_audit_creation_date              2012-12-11T15:39:02-0500
_audit_creation_method            fapswitch 2.2
_symmetry_space_group_name_H-M    P1
_symmetry_Int_Tables_number       1
_space_group_crystal_system       triclinic
_cell_length_a                    14.296472
_cell_length_b                    14.771815
_cell_length_c                    33.151328
_cell_angle_alpha                 97.828068
_cell_angle_beta                  90.504784
_cell_angle_gamma                 118.676188
_cell_volume                      6062.91418869

loop_
_atom_site_label
_atom_site_type_symbol
_atom_type_description
_atom_site_fract_x
_atom_site_fract_y
_atom_site_fract_z
_atom_type_partial_charge
C1    C     C_R   0.619293 0.908410 0.437595 0.547168
C2    C     C_R   0.733631 0.383604 0.180538 0.006143
C3    C     C_R   0.708677 0.894145 0.658566 -0.000748
C4    C     C_R   0.622782 0.795832 0.664246 0.080444
C5    C     C_R   0.632687 0.863700 0.588041 0.019585
C6    C     C_R   0.054089 0.782203 0.063574 0.585323
C7    C     C_R   0.743113 0.484168 0.065465 0.527925
C8    C     C_R   0.741173 0.789950 0.066169 0.541271
C9    C     C_R   0.024894 0.733926 0.948134 0.561679
C10   C     C_R   0.710916 0.433754 0.949914 0.568577
C11   C     C_R   0.708023 0.742127 0.951252 0.539081
C12   C     C_R   0.795251 0.362445 0.151455 -0.030806
C13   C     C_R   0.795358 0.389884 0.111994 -0.009008
C14   C     C_R   0.667314 0.260103 0.231667 -0.025950
C15   C     C_R   0.660478 0.245868 0.272981 0.324213
C16   C     C_R   0.712998 0.334159 0.304065 0.002562
C17   C     C_R   0.780488 0.432754 0.294309 -0.126953
C18   C     C_R   0.793645 0.446497 0.253646 0.276182
C19   C     C_R   0.733933 0.361519 0.222451 -0.038520
C20   C     C_R   0.583368 0.288591 0.356289 0.262459
C21   C     C_R   0.594293 0.206555 0.457077 0.567168
C22   C     C_R   0.554634 0.255717 0.393876 -0.181829
C23   C     C_R   0.740836 0.315939 0.415797 0.268506
C24   C     C_R   0.770311 0.343803 0.377009 0.231475
C25   C     C_R   0.689713 0.324265 0.346691 0.012715
C26   C     C_R   0.631675 0.264930 0.422888 -0.052783
C27   C     C_R   0.236880 0.876866 0.393835 -0.016817
C28   C     C_R   0.227980 0.960237 0.380259 -0.047639
C29   C     C_R   0.219270 0.962253 0.338304 -0.182977
C30   C     C_R   0.214145 0.881325 0.309656 -0.008576
C31   C     C_R   0.210276 0.793032 0.322704 0.283943
C32   C     C_R   0.292426 0.891848 0.434731 0.561376
C33   C     C_R   0.212747 0.787431 0.364675 0.245179
C34   C     C_R   0.213410 0.815922 0.161420 -0.110822
C35   C     C_R   0.178677 0.789188 0.119435 0.231895
C36   C     C_R   0.108771 0.911881 0.128790 0.213461
C37   C     C_R   0.139048 0.932836 0.170758 -0.092504
C38   C     C_R   0.187442 0.881930 0.187182 -0.043137
C39   C     C_1   0.200589 0.888154 0.230666 0.012603
C40   C     C_1   0.207553 0.887046 0.266802 0.034129
C41   C     C_R   0.120088 0.833068 0.103355 0.031722
C42   C     C_R   0.647266 0.872647 0.397182 -0.043996
C43   C     C_R   0.614245 0.905204 0.551925 0.560062
C44   C     C_R   0.572709 0.776928 0.373050 0.255405
C45   C     C_R   0.581277 0.759801 0.330467 0.268245
C46   C     C_R   0.660845 0.840002 0.312371 -0.038062
C47   C     C_R   0.742656 0.926905 0.336806 -0.157264
C48   C     C_R   0.740630 0.941181 0.379346 -0.047881
C49   C     C_R   0.754968 0.919002 0.174956 0.285735
C50   C     C_R   0.773686 0.913712 0.133071 -0.029169
C51   C     C_R   0.608048 0.746584 0.118976 0.259107
C52   C     C_R   0.592548 0.749459 0.161010 -0.006619
C53   C     C_R   0.670007 0.833626 0.188975 -0.059271
C54   C     C_R   0.590012 0.200472 0.571134 0.537801
C55   C     C_1   0.664591 0.833390 0.232440 0.010850
C56   C     C_1   0.661670 0.834213 0.268749 0.012885
C57   C     C_R   0.705662 0.821263 0.105566 -0.101917
C58   C     C_R   0.623046 0.254318 0.614586 -0.039692
C59   C     C_R   0.542290 0.250178 0.640098 0.251113
C60   C     C_R   0.563257 0.270784 0.682345 -0.124446
C61   C     C_R   0.664672 0.303417 0.700251 -0.068398
C62   C     C_R   0.750863 0.323925 0.675894 0.027871
C63   C     C_R   0.729905 0.297573 0.632447 -0.043917
C64   C     C_R   0.762547 0.332753 0.847358 0.223215
C65   C     C_R   0.287000 0.885905 0.547743 0.526927
C66   C     C_R   0.767200 0.350355 0.890269 -0.009204
C67   C     C_R   0.585371 0.326021 0.886438 -0.022149
C68   C     C_R   0.580536 0.306278 0.843106 -0.062452
C69   C     C_R   0.673510 0.320205 0.824169 -0.006882
C70   C     C_1   0.676877 0.317091 0.780543 0.002106
C71   C     C_1   0.675405 0.313207 0.744060 -0.048362
C72   C     C_R   0.684300 0.361757 0.909806 -0.013259
C73   C     C_R   0.082272 0.763065 0.911129 -0.021423
C74   C     C_R   0.085339 0.848028 0.895471 -0.180050
C75   C     C_R   0.115254 0.866679 0.856382 -0.036820
C76   C     C_R   0.733569 0.437549 0.102816 -0.082483
C77   C     C_R   0.136070 0.794310 0.831202 0.028286
C78   C     C_R   0.140386 0.712641 0.847333 0.229679
C79   C     C_R   0.121811 0.701908 0.888465 0.009716
C80   C     C_R   0.236334 0.808929 0.769530 -0.047432
C81   C     C_R   0.243343 0.813118 0.728062 -0.125952
C82   C     C_R   0.157445 0.804497 0.704059 0.024768
C83   C     C_R   0.063296 0.791736 0.721514 0.048387
C84   C     C_R   0.057227 0.787242 0.763322 -0.059402
C85   C     C_R   0.143894 0.797270 0.787315 0.061380
C86   C     C_R   0.222224 0.923588 0.654144 -0.169405
C87   C     C_R   0.669520 0.452465 0.131754 -0.116192
C88   C     C_R   0.248318 0.943605 0.615129 -0.138822
C89   C     C_R   0.159504 0.756351 0.589385 0.009953
C90   C     C_R   0.140282 0.736406 0.629835 0.288309
C91   C     C_R   0.173047 0.821051 0.661839 -0.025733
C92   C     C_R   0.224274 0.861242 0.583242 -0.057648
C93   C     C_R   0.652791 0.753012 0.914994 -0.057930
C94   C     C_R   0.557967 0.667317 0.894138 -0.016570
C95   C     C_R   0.534921 0.662846 0.852103 0.270466
C96   C     C_R   0.600175 0.747648 0.832335 0.084805
C97   C     C_R   0.682582 0.841007 0.855185 -0.011827
C98   C     C_R   0.668036 0.424733 0.170183 0.298943
C99   C     C_R   0.705377 0.845307 0.897103 -0.049125
C100  C     C_R   0.546228 0.803918 0.772609 0.272293
C101  C     C_R   0.553945 0.815056 0.731069 -0.168217
C102  C     C_R   0.599642 0.766662 0.705344 -0.001725
C103  C     C_R   0.626613 0.695768 0.719344 0.338980
C104  C     C_R   0.620569 0.684724 0.761085 0.261356
C105  C     C_R   0.581896 0.739975 0.787593 0.096779
C106  C     C_R   0.549324 0.730166 0.631412 -0.133952
C107  C     C_R   0.554089 0.763470 0.593930 -0.143809
C108  C     C_R   0.715272 0.926797 0.619783 -0.039999
Cr1   Cr    Cr6+3 0.424820 0.846020 0.489780 1.032550
Cr2   Cr    Cr6+3 0.657880 0.078580 0.505700 1.052823
Cr3   Cr    Cr6+3 0.417280 0.075360 0.504550 1.087902
Cr4   Cr    Cr6+3 0.903360 0.812540 0.006510 1.051500
Cr5   Cr    Cr6+3 0.914630 0.587050 0.006280 1.112669
Cr6   Cr    Cr6+3 0.673560 0.582680 0.008540 1.123722
H1    H     H_    0.624121 0.491030 0.125414 0.180656
H2    H     H_    0.470650 0.216245 0.399181 0.144045
H3    H     H_    0.256556 0.781910 0.174480 0.120167
H4    H     H_    0.120913 0.985966 0.190637 0.165532
H5    H     H_    0.215949 0.027219 0.327840 0.136773
H6    H     H_    0.809087 0.983189 0.322468 0.184159
H7    H     H_    0.498045 0.257844 0.701407 0.128745
H8    H     H_    0.061676 0.899462 0.913505 0.155961
H9    H     H_    0.316530 0.825052 0.714697 0.101995
H10   H     H_    0.303137 0.816272 0.787950 0.197290
H11   H     H_    0.986096 0.777835 0.777639 0.118469
H12   H     H_    0.245567 0.988428 0.678868 0.158283
H13   H     H_    0.294378 0.023912 0.610556 0.210472
H14   H     H_    0.528143 0.864407 0.718732 0.100343
H15   H     H_    0.483308 0.655386 0.635590 0.101317
H16   H     H_    0.491238 0.712410 0.570140 0.139805
H17   H     H_    0.819626 0.499983 0.318280 0.148905
O1    O     O_R   0.318160 0.824460 0.443680 -0.501591
O2    O     O_R   0.645130 0.163230 0.552140 -0.515782
O3    O     O_R   0.498360 0.178430 0.555780 -0.448193
O4    O     O_R   0.328690 0.978040 0.538950 -0.471678
O5    O     O_3   0.499990 0.999990 0.500010 -0.263786
O6    O     O_R   0.828710 0.851830 0.052170 -0.518858
O7    O     O_R   0.005980 0.823990 0.047210 -0.468213
O8    O     O_R   0.031900 0.688850 0.050170 -0.454732
O9    O     O_R   0.830940 0.518420 0.048680 -0.500722
O10   O     O_R   0.668160 0.499860 0.053480 -0.482373
O11   O     O_R   0.689170 0.693840 0.050110 -0.430748
O12   O     O_R   0.525040 0.857250 0.449830 -0.462803
O13   O     O_R   0.803860 0.812940 0.962540 -0.516826
O14   O     O_R   0.982950 0.787950 0.964120 -0.510211
O15   O     O_R   0.007050 0.649970 0.960540 -0.468824
O16   O     O_R   0.807910 0.482370 0.965590 -0.476869
O17   O     O_R   0.643310 0.460980 0.963840 -0.482742
O18   O     O_R   0.666140 0.657800 0.967020 -0.462048
O19   O     O_3   0.830520 0.660760 0.007110 -0.280976
O20   O     O_R   0.684760 0.998800 0.456360 -0.546269
O21   O     O_R   0.647540 0.166310 0.470260 -0.486323
O22   O     O_R   0.500960 0.181750 0.467450 -0.521065
O23   O     O_R   0.331100 0.981120 0.457080 -0.459611
O24   O     O_R   0.315560 0.821140 0.532010 -0.533445
O25   O     O_R   0.522630 0.854180 0.531710 -0.507782
O26   O     O_R   0.682160 0.995480 0.544690 -0.458085
C109  C     C_2   0.856283 0.310261 0.162998 0.238834
H18   H     H_    0.886318 0.322374 0.194538 0.082339
O27   O     O_2   0.869255 0.249378 0.138005 -0.456981
O28   O     O_3   0.817425 0.344805 0.447927 -0.536354
C110  C     C_3   0.867440 0.282138 0.442730 -0.027295
H19   H     H_    0.815283 0.202611 0.425133 0.130274
H20   H     H_    0.888697 0.271576 0.473355 0.150025
H21   H     H_    0.943128 0.322674 0.428157 0.160442
O29   O     O_3   0.204315 0.724179 0.093047 -0.552685
C111  C     C_3   0.181087 0.632018 0.108722 -0.062267
H22   H     H_    0.104823 0.600457 0.123844 0.150290
H23   H     H_    0.248645 0.645512 0.129961 0.121055
H24   H     H_    0.171873 0.571301 0.082894 0.196026
O30   O     O_3   0.198428 0.708909 0.294733 -0.582043
C112  C     C_3   0.299886 0.729654 0.282083 -0.100477
H25   H     H_    0.360508 0.755076 0.308371 0.130974
H26   H     H_    0.328536 0.789349 0.261486 0.122569
H27   H     H_    0.292689 0.656703 0.264590 0.160511
O31   O     O_3   0.198795 0.696011 0.376567 -0.584517
C113  C     C_3   0.094653 0.642248 0.389102 -0.068886
H28   H     H_    0.032989 0.622214 0.363739 0.146497
H29   H     H_    0.083197 0.687909 0.416321 0.124124
H30   H     H_    0.082836 0.567931 0.397948 0.177068
C114  C     C_2   0.223421 0.045081 0.408204 0.272412
H31   H     H_    0.251581 0.121183 0.399047 0.091904
O32   O     O_2   0.182072 0.029159 0.440412 -0.474102
O33   O     O_3   0.057191 0.960543 0.113919 -0.522371
C115  C     C_3   0.135117 0.052467 0.100889 -0.050793
H32   H     H_    0.190724 0.109169 0.127109 0.123706
H33   H     H_    0.094188 0.090080 0.087286 0.175117
H34   H     H_    0.180747 0.035111 0.076837 0.106599
C116  C     C_2   0.859864 0.370929 0.080422 0.323813
H35   H     H_    0.825954 0.340808 0.048965 0.133204
O34   O     O_2   0.952595 0.393458 0.088791 -0.471336
C117  C     C_2   0.860540 0.006110 0.118226 0.340493
H36   H     H_    0.855599 0.017230 0.086793 0.122067
O35   O     O_2   0.937522 0.072393 0.141020 -0.409650
O36   O     O_3   0.823558 0.005937 0.202801 -0.509335
C118  C     C_3   0.778522 0.072705 0.209234 -0.075021
H37   H     H_    0.763854 0.095305 0.180154 0.159072
H38   H     H_    0.835489 0.145233 0.229812 0.130470
H39   H     H_    0.702483 0.035590 0.224028 0.133872
C119  C     C_2   0.839254 0.023995 0.404148 0.236650
H40   H     H_    0.852774 0.021355 0.436084 0.160111
O37   O     O_2   0.909025 0.094325 0.388780 -0.552149
O38   O     O_3   0.499323 0.697162 0.392145 -0.570541
C120  C     C_3   0.395185 0.677894 0.381423 -0.021732
H41   H     H_    0.392559 0.751276 0.379451 0.156325
H42   H     H_    0.343486 0.640609 0.405574 0.166696
H43   H     H_    0.361159 0.622400 0.352365 0.170997
C121  C     C_2   0.496638 0.664391 0.175999 0.250599
H44   H     H_    0.478800 0.673291 0.207566 0.111041
O39   O     O_2   0.436627 0.582885 0.153615 -0.467729
O40   O     O_3   0.530494 0.665544 0.091226 -0.494571
C122  C     C_3   0.471810 0.704025 0.071813 -0.038881
H45   H     H_    0.522797 0.763494 0.052928 0.115391
H46   H     H_    0.434435 0.737033 0.094384 0.128915
H47   H     H_    0.406276 0.638156 0.051026 0.187895
O41   O     O_3   0.507921 0.667509 0.306432 -0.600672
C123  C     C_3   0.551001 0.598921 0.301873 -0.092907
H48   H     H_    0.569700 0.583276 0.331995 0.138162
H49   H     H_    0.623590 0.629715 0.284636 0.160713
H50   H     H_    0.490546 0.523221 0.284049 0.141963
C124  C     C_2   0.859613 0.355963 0.913576 0.278644
H51   H     H_    0.936300 0.383113 0.900696 0.137243
O42   O     O_2   0.849452 0.325260 0.946487 -0.487141
O43   O     O_3   0.877695 0.395218 0.370105 -0.583364
C125  C     C_3   0.905139 0.325259 0.346720 -0.137817
H52   H     H_    0.862228 0.244438 0.354133 0.124926
H53   H     H_    0.991952 0.354343 0.353269 0.155457
H54   H     H_    0.891581 0.323540 0.313580 0.111938
O44   O     O_3   0.849027 0.335147 0.828030 -0.617778
C126  C     C_3   0.830450 0.231803 0.817404 -0.119867
H55   H     H_    0.819470 0.192988 0.844820 0.133240
H56   H     H_    0.901448 0.234113 0.803277 0.165656
H57   H     H_    0.760364 0.185006 0.794527 0.116692
C127  C     C_2   0.860773 0.374746 0.696613 0.271692
H58   H     H_    0.873965 0.356853 0.726134 0.103655
O45   O     O_2   0.936596 0.441441 0.682153 -0.458764
C128  C     C_2   0.817316 0.313247 0.605519 0.326120
H59   H     H_    0.816087 0.337560 0.576153 0.136109
O46   O     O_2   0.888913 0.295493 0.615017 -0.469458
O47   O     O_3   0.437855 0.210641 0.624296 -0.560696
C129  C     C_3   0.414277 0.293312 0.625883 -0.111204
H60   H     H_    0.471714 0.355919 0.609496 0.117092
H61   H     H_    0.412521 0.325851 0.657974 0.094064
H62   H     H_    0.333400 0.262299 0.610302 0.161362
C130  C     C_2   0.479811 0.270611 0.816951 0.184639
H63   H     H_    0.483160 0.292834 0.786904 0.105263
O48   O     O_2   0.392417 0.212443 0.827782 -0.465408
C131  C     C_2   0.488495 0.312743 0.906862 0.325983
H64   H     H_    0.434333 0.335110 0.893755 0.119977
O49   O     O_2   0.467168 0.274154 0.938120 -0.457932
C132  C     C_2   0.146663 0.628344 0.906474 0.295308
H65   H     H_    0.137241 0.557841 0.887731 0.134344
O50   O     O_2   0.184618 0.649110 0.941794 -0.448740
O51   O     O_3   0.087653 0.635251 0.638254 -0.489154
C133  C     C_3   0.163652 0.601220 0.642627 -0.027694
H66   H     H_    0.218218 0.644022 0.670790 0.090704
H67   H     H_    0.211143 0.609145 0.615601 0.115264
H68   H     H_    0.120755 0.517134 0.645427 0.209949
O52   O     O_3   0.591472 0.147969 0.282638 -0.475741
C134  C     C_3   0.649473 0.107291 0.301224 -0.098457
H69   H     H_    0.732220 0.136141 0.291713 0.064239
H70   H     H_    0.606444 0.021022 0.292443 0.148565
H71   H     H_    0.652080 0.124249 0.334977 0.108866
C135  C     C_2   0.121194 0.961436 0.843152 0.275124
H72   H     H_    0.083546 0.001602 0.860120 0.146088
O53   O     O_2   0.171040 0.998151 0.814431 -0.439052
C136  C     C_2   0.973551 0.786808 0.696713 0.274402
H73   H     H_    0.972024 0.778382 0.663665 0.138332
O54   O     O_2   0.900631 0.793771 0.712969 -0.440445
O55   O     O_3   0.167189 0.645668 0.823195 -0.564989
C137  C     C_3   0.072161 0.558599 0.803909 -0.111627
H74   H     H_    0.031752 0.581474 0.781726 0.133424
H75   H     H_    0.015961 0.518130 0.826520 0.141143
H76   H     H_    0.092916 0.501868 0.786601 0.174427
C138  C     C_2   0.111267 0.670231 0.553693 0.263334
H77   H     H_    0.121079 0.687919 0.522809 0.116833
O56   O     O_2   0.056999 0.578987 0.558022 -0.454273
C139  C     C_2   0.478067 0.585922 0.915982 0.292690
H78   H     H_    0.426985 0.507208 0.900177 0.111796
O57   O     O_2   0.464026 0.607683 0.951476 -0.475645
C140  C     C_2   0.602457 0.171184 0.198154 0.214039
H79   H     H_    0.609891 0.182231 0.166455 0.096023
O58   O     O_2   0.539239 0.084339 0.205222 -0.470673
C141  C     C_2   0.782591 0.946189 0.922868 0.256191
H80   H     H_    0.766092 0.964097 0.953971 0.132132
O59   O     O_2   0.866620 0.007197 0.910570 -0.503652
C142  C     C_2   0.790884 0.963585 0.692869 0.245848
H81   H     H_    0.835868 0.047258 0.693447 0.076004
O60   O     O_2   0.811178 0.928079 0.720723 -0.388385
O61   O     O_3   0.504150 0.852961 0.799675 -0.562268
C143  C     C_3   0.537191 0.956479 0.793474 -0.128714
H82   H     H_    0.484560 0.957220 0.768845 0.117916
H83   H     H_    0.622521 0.998471 0.786728 0.117369
H84   H     H_    0.529092 0.000298 0.821943 0.163992
O62   O     O_3   0.441495 0.581505 0.831255 -0.551360
C144  C     C_3   0.453712 0.492310 0.819455 -0.103521
H85   H     H_    0.382489 0.422914 0.827295 0.145603
H86   H     H_    0.526042 0.495579 0.834201 0.099071
H87   H     H_    0.455689 0.479517 0.785788 0.168308
O63   O     O_3   0.670814 0.647866 0.693395 -0.506443
C145  C     C_3   0.594711 0.541569 0.681807 -0.112714
H88   H     H_    0.518966 0.531891 0.667612 0.075286
H89   H     H_    0.578109 0.498142 0.708057 0.148653
H90   H     H_    0.627903 0.505772 0.658658 0.149588
O64   O     O_3   0.649474 0.618086 0.776374 -0.617717
C146  C     C_3   0.761704 0.663782 0.781287 -0.082990
H91   H     H_    0.802635 0.749895 0.791722 0.180815
H92   H     H_    0.791816 0.644429 0.752499 0.203970
H93   H     H_    0.782853 0.628914 0.805009 0.105692
C147  C     C_2   0.744867 0.934918 0.835636 0.277307
H94   H     H_    0.757176 0.010533 0.850198 0.126805
O65   O     O_2   0.785520 0.929084 0.803897 -0.476159
O66   O     O_3   0.610702 0.447658 0.199435 -0.539563
C148  C     C_3   0.500964 0.375598 0.190256 -0.104727
H95   H     H_    0.469357 0.386830 0.161674 0.149149
H96   H     H_    0.456427 0.389248 0.215449 0.150403
H97   H     H_    0.485232 0.293501 0.188046 0.121466
C149  C     C_2   0.808560 0.025970 0.612855 0.260263
H98   H     H_    0.830588 0.098299 0.633258 0.120261
O67   O     O_2   0.863108 0.026716 0.584638 -0.444615
O68   O     O_3   0.853855 0.545888 0.244168 -0.542323
C150  C     C_3   0.962932 0.574595 0.249644 -0.090902
H99   H     H_    0.981436 0.519401 0.229579 0.112559
H100  H     H_    0.987552 0.579711 0.282163 0.155768
H101  H     H_    0.011128 0.653117 0.240953 0.175362
O69   O     O_3   0.506356 0.273672 0.326454 -0.519608
C151  C     C_3   0.452621 0.329212 0.340682 -0.110390
H102  H     H_    0.508837 0.410012 0.356279 0.113367
H103  H     H_    0.391094 0.286010 0.361195 0.111610
H104  H     H_    0.410463 0.336192 0.314014 0.141439

loop_
_geom_bond_atom_site_label_1
_geom_bond_atom_site_label_2
_ccdc_geom_bond_type
C150  H100  S    
C21   C26   S    
C133  H67   S    
C62   C127  S    
C17   H17   S    
C143  H82   S    
C55   C56   T    
C145  H88   S    
C131  H64   S    
C29   H5    S    
C141  H80   S    
C37   C38   A    
Cr2   O21   S    
C64   O44   S    
C86   C88   A    
C150  H101  S    
C106  C107  A    
C137  H74   S    
C54   O3    A    
C101  H14   S    
C34   C35   A    
C21   O21   A    
C100  O61   S    
C147  H94   S    
C66   C72   A    
C4    C102  S    
C44   O38   S    
C142  O60   D    
O69   C151  S    
C51   C57   A    
C87   H1    S    
C112  H27   S    
C61   C71   S    
C53   C55   S    
C5    C43   S    
C59   C60   A    
C130  H63   S    
C42   C44   A    
C104  C105  A    
C131  O49   D    
C110  H20   S    
C114  O32   D    
C103  O63   S    
C147  O65   D    
C51   C52   A    
Cr4   O7    S    
C49   O36   S    
C148  H95   S    
C77   C78   A    
C82   C91   S    
C64   C66   A    
Cr5   O15   S    
O44   C126  S    
C8    C57   S    
C110  H21   S    
C14   C15   A    
Cr1   O1    S    
C146  H91   S    
O41   C123  S    
C126  H56   S    
C65   O4    A    
Cr2   O26   S    
C113  H28   S    
C32   O23   A    
C144  H85   S    
C109  H18   S    
Cr6   O19   S    
C90   C91   A    
C43   O25   A    
O63   C145  S    
C5    C107  A    
C145  H90   S    
C16   C25   S    
C2    C19   S    
C50   C57   A    
C14   C19   A    
C118  H37   S    
C63   C128  S    
C104  O64   S    
C7    O9    A    
C49   C53   A    
C60   H7    S    
O36   C118  S    
C122  H45   S    
C119  O37   D    
O68   C150  S    
C89   C138  S    
C21   O22   A    
C10   O17   A    
C86   H12   S    
Cr2   O5    S    
C125  H54   S    
C115  H32   S    
C111  H23   S    
C27   C33   A    
C124  H51   S    
C81   H9    S    
C36   C37   A    
C143  H83   S    
O61   C143  S    
C38   C39   S    
Cr3   O5    S    
C115  H33   S    
C9    O15   A    
O33   C115  S    
C129  H60   S    
C46   C47   A    
C6    O8    A    
C116  O34   D    
Cr1   O25   S    
C149  O67   D    
C144  H87   S    
C135  H72   S    
C113  H29   S    
C23   C24   A    
Cr5   O8    S    
C22   H2    S    
C90   O51   S    
C77   C85   S    
C97   C147  S    
C128  H59   S    
C116  H35   S    
C118  H39   S    
C112  H26   S    
C14   C140  S    
Cr6   O10   S    
C39   C40   T    
C151  H103  S    
C68   C69   A    
C123  H48   S    
C4    C106  A    
C117  O35   D    
C29   C30   A    
C94   C139  S    
C75   C77   A    
C83   C84   A    
C122  H47   S    
C17   C18   A    
C73   C79   A    
C42   C48   A    
C64   C69   A    
C18   O68   S    
Cr3   O22   S    
C76   C87   A    
C47   H6    S    
C107  H16   S    
O64   C146  S    
Cr4   O19   S    
C3    C4    A    
C7    O10   A    
C52   C53   A    
Cr5   O19   S    
C134  H69   S    
C43   O26   A    
C136  H73   S    
Cr3   O3    S    
C7    C76   S    
C3    C108  A    
C140  O58   D    
C129  H62   S    
C141  O59   D    
C59   O47   S    
C65   O24   A    
C11   C93   S    
C31   O30   S    
O47   C129  S    
C125  H53   S    
C102  C103  A    
C35   C41   A    
C120  H41   S    
C49   C50   A    
C46   C56   S    
C139  H78   S    
C12   C109  S    
C133  H66   S    
C10   C72   S    
C137  H76   S    
C96   C105  S    
C101  C102  A    
C106  H15   S    
C73   C74   A    
C138  H77   S    
O38   C120  S    
O43   C125  S    
O28   C110  S    
C132  H65   S    
C114  H31   S    
C123  H50   S    
C3    C142  S    
C127  O45   D    
C48   C119  S    
C28   C29   A    
C88   H13   S    
C86   C91   A    
C134  H71   S    
C30   C31   A    
C20   C25   A    
C148  H96   S    
C35   O29   S    
C18   C19   A    
C23   C26   A    
C33   O31   S    
C11   O18   A    
C121  H44   S    
C146  H92   S    
C70   C71   T    
C50   C117  S    
C93   C99   A    
C87   C98   A    
C99   C141  S    
C148  H97   S    
C144  H86   S    
C150  H99   S    
C133  H68   S    
C34   C38   A    
C109  O27   D    
C36   C41   A    
C66   C124  S    
C145  H89   S    
C146  H93   S    
C67   C68   A    
C84   C85   A    
C118  H38   S    
Cr2   O20   S    
O62   C144  S    
C58   C59   A    
C54   O2    A    
C60   C61   A    
C95   O62   S    
C80   C85   A    
O40   C122  S    
C120  H43   S    
Cr1   O12   S    
C74   H8    S    
C122  H46   S    
C130  O48   D    
C127  H58   S    
C111  H22   S    
C44   C45   A    
C110  H19   S    
C80   H10   S    
C84   H11   S    
C75   C135  S    
C27   C32   S    
C79   C132  S    
Cr4   O6    S    
C68   C130  S    
Cr5   O16   S    
O51   C133  S    
Cr6   O17   S    
C151  H102  S    
C136  O54   D    
Cr3   O4    S    
O66   C148  S    
C9    O14   A    
C1    O20   A    
C98   O66   S    
C78   O55   S    
C126  H55   S    
Cr1   O24   S    
C69   C70   S    
C1    C42   S    
C135  O53   D    
C82   C83   A    
C22   C26   A    
C103  C104  A    
O55   C137  S    
C8    O6    A    
C8    O11   A    
Cr6   O18   S    
C89   C90   A    
C5    C108  A    
C65   C92   S    
O30   C112  S    
C93   C94   A    
C95   C96   A    
C2    C12   A    
C81   C82   A    
Cr4   O14   S    
C108  C149  S    
C100  C105  A    
C62   C63   A    
Cr6   O11   S    
C138  O56   D    
C67   C72   A    
C132  O50   D    
C16   C17   A    
C15   C16   A    
C45   O41   S    
C13   C116  S    
C126  H57   S    
C100  C101  A    
C37   H4    S    
C88   C92   A    
C119  H40   S    
C6    C41   S    
C31   C33   A    
C36   O33   S    
C11   O13   A    
C10   O16   A    
C34   H3    S    
Cr1   O5    S    
C61   C62   A    
C9    C73   S    
C97   C99   A    
C111  H24   S    
C24   O43   S    
C74   C75   A    
C143  H84   S    
C24   C25   A    
C134  H70   S    
C78   C79   A    
C115  H34   S    
C140  H79   S    
C129  H61   S    
C6    O7    A    
C28   C114  S    
C149  H98   S    
C1    O12   A    
C51   O40   S    
C67   C131  S    
C47   C48   A    
C13   C76   A    
C113  H30   S    
C96   C97   A    
C125  H52   S    
Cr5   O9    S    
C30   C40   S    
C94   C95   A    
C12   C13   A    
C89   C92   A    
O31   C113  S    
C120  H42   S    
C128  O46   D    
C142  H81   S    
O29   C111  S    
C139  O57   D    
O52   C134  S    
C32   O1    A    
C15   O52   S    
C112  H25   S    
C54   C58   S    
C58   C63   A    
C137  H75   S    
C52   C121  S    
C20   C22   A    
C80   C81   A    
C151  H104  S    
C123  H49   S    
C117  H36   S    
Cr4   O13   S    
C83   C136  S    
C124  O42   D    
C20   O69   S    
Cr3   O23   S    
C45   C46   A    
C2    C98   A    
C121  O39   D    
C27   C28   A    
Cr2   O2    S    
C23   O28   S    
