data_mof_unit_27202.cif
_audit_creation_date              2012-12-11T14:52:38-0500
_audit_creation_method            fapswitch 2.2
_symmetry_space_group_name_H-M    P1
_symmetry_Int_Tables_number       1
_space_group_crystal_system       triclinic
_cell_length_a                    18.872142
_cell_length_b                    10.901695
_cell_length_c                    18.842878
_cell_angle_alpha                 89.904039
_cell_angle_beta                  90.88981
_cell_angle_gamma                 90.147739
_cell_volume                      3876.21680876

loop_
_atom_site_label
_atom_site_type_symbol
_atom_type_description
_atom_site_fract_x
_atom_site_fract_y
_atom_site_fract_z
_atom_type_partial_charge
C1    C     C_R   0.273186 0.040216 0.854708 0.546485
C2    C     C_R   0.694532 0.535733 0.036963 -0.111941
C3    C     C_3   0.026059 0.325741 0.065004 0.013889
C4    C     C_2   0.351061 0.827264 0.005733 0.219072
C5    C     C_2   0.648989 0.826714 0.994227 0.219052
C6    C     C_2   0.851061 0.327264 0.005733 0.219071
C7    C     C_2   0.148989 0.326714 0.994227 0.219052
C8    C     C_R   0.805398 0.036141 0.963148 -0.112844
C9    C     C_R   0.194533 0.035733 0.036963 -0.111940
C10   C     C_R   0.300224 0.522940 0.036598 -0.115891
C11   C     C_R   0.699737 0.522358 0.963529 -0.115035
C12   C     C_R   0.800224 0.022940 0.036598 -0.115891
C13   C     C_R   0.199737 0.022358 0.963529 -0.115036
C14   C     C_R   0.241326 0.571011 0.071687 0.066057
C15   C     C_R   0.758620 0.570922 0.928299 0.066404
C16   C     C_R   0.741326 0.071011 0.071687 0.066058
C17   C     C_R   0.726802 0.040263 0.145314 0.549180
C18   C     C_R   0.258620 0.070922 0.928299 0.066404
C19   C     C_R   0.187436 0.629525 0.032516 -0.113135
C20   C     C_R   0.812445 0.630156 0.967334 -0.112348
C21   C     C_R   0.687436 0.129525 0.032516 -0.113135
C22   C     C_R   0.312445 0.130157 0.967334 -0.112349
C23   C     C_R   0.191067 0.637728 0.960034 -0.116949
C24   C     C_R   0.808776 0.638584 0.039811 -0.116463
C25   C     C_R   0.691067 0.137728 0.960034 -0.116949
C26   C     C_R   0.308776 0.138584 0.039811 -0.116464
C27   C     C_R   0.250775 0.594607 0.924613 0.063825
C28   C     C_R   0.773186 0.540216 0.854708 0.546486
C29   C     C_R   0.749115 0.594852 0.075367 0.064081
C30   C     C_R   0.750775 0.094607 0.924613 0.063825
C31   C     C_R   0.249115 0.094852 0.075367 0.064081
C32   C     C_R   0.458655 0.731521 0.526642 -0.128115
C33   C     C_R   0.468061 0.735394 0.454248 -0.137636
C34   C     C_R   0.958698 0.231488 0.526652 -0.128111
C35   C     C_R   0.968096 0.235361 0.454257 -0.137628
C36   C     C_R   0.502174 0.835852 0.424029 0.028387
C37   C     C_R   0.482751 0.828514 0.569975 0.034552
C38   C     C_R   0.002175 0.335842 0.424030 0.028388
C39   C     C_R   0.226802 0.540263 0.145314 0.549186
C40   C     C_R   0.982764 0.328507 0.569979 0.034544
C41   C     C_R   0.522866 0.936330 0.466560 -0.139980
C42   C     C_R   0.513191 0.932480 0.539566 -0.148887
C43   C     C_R   0.022842 0.436337 0.466555 -0.139982
C44   C     C_R   0.013176 0.432487 0.539562 -0.148890
C45   C     C_R   0.443545 0.817733 0.863095 0.539281
C46   C     C_R   0.556516 0.817978 0.136899 0.539041
C47   C     C_R   0.943545 0.317733 0.863095 0.539280
C48   C     C_R   0.056516 0.317978 0.136899 0.539042
C49   C     C_R   0.230476 0.709617 0.523559 -0.119961
C50   C     C_3   0.522305 0.724501 0.966204 -0.113349
C51   C     C_R   0.811835 0.624842 0.461814 -0.133145
C52   C     C_R   0.730458 0.209659 0.523555 -0.119956
C53   C     C_R   0.311840 0.124835 0.461810 -0.133170
C54   C     C_R   0.226939 0.691573 0.451210 0.072596
C55   C     C_R   0.815577 0.632858 0.533984 0.095095
C56   C     C_R   0.726908 0.191595 0.451207 0.072597
C57   C     C_R   0.315583 0.132841 0.533980 0.095078
C58   C     C_R   0.249611 0.579909 0.424295 0.069034
C59   C     C_R   0.758046 0.587799 0.574357 0.065854
C60   C     C_R   0.749621 0.079941 0.424287 0.069024
C61   C     C_3   0.477325 0.724748 0.034117 -0.113175
C62   C     C_R   0.258051 0.087777 0.574352 0.065839
C63   C     C_R   0.280998 0.490519 0.468672 -0.172592
C64   C     C_R   0.694085 0.555425 0.540981 -0.180348
C65   C     C_R   0.781058 0.990581 0.468657 -0.172588
C66   C     C_R   0.194094 0.055382 0.540974 -0.180345
C67   C     C_R   0.284218 0.508856 0.540965 -0.168420
C68   C     C_R   0.688125 0.564110 0.467979 -0.162702
C69   C     C_R   0.784275 0.008918 0.540950 -0.168401
C70   C     C_R   0.188135 0.064062 0.467971 -0.162706
C71   C     C_R   0.256188 0.616046 0.568245 0.017268
C72   C     C_3   0.022305 0.224501 0.966204 -0.113349
C73   C     C_R   0.747708 0.597042 0.428459 -0.003365
C74   C     C_R   0.756201 0.116090 0.568237 0.017288
C75   C     C_R   0.247714 0.097026 0.428455 -0.003373
C76   C     C_R   0.260807 0.636735 0.852031 0.545375
C77   C     C_R   0.739149 0.636766 0.147944 0.545697
C78   C     C_R   0.760807 0.136735 0.852031 0.545381
C79   C     C_R   0.239149 0.136766 0.147944 0.545698
C80   C     C_R   0.271956 0.047262 0.645972 0.565056
C81   C     C_R   0.728844 0.044679 0.353999 0.588237
C82   C     C_R   0.771954 0.547267 0.645974 0.565057
C83   C     C_3   0.977325 0.224748 0.034117 -0.113175
C84   C     C_R   0.228842 0.544673 0.354001 0.588262
C85   C     C_R   0.466664 0.823019 0.644966 0.558476
C86   C     C_R   0.529922 0.824176 0.352976 0.559116
C87   C     C_R   0.966668 0.323018 0.644968 0.558473
C88   C     C_R   0.029922 0.324175 0.352975 0.559118
C89   C     C_R   0.261037 0.641231 0.642237 0.555222
C90   C     C_R   0.739615 0.636896 0.356503 0.558378
C91   C     C_R   0.761043 0.141255 0.642231 0.555253
C92   C     C_R   0.239616 0.136892 0.356501 0.558389
C93   C     C_3   0.477983 0.927376 0.034215 -0.115222
C94   C     C_R   0.305398 0.536141 0.963148 -0.112844
C95   C     C_3   0.522484 0.927129 0.965428 -0.115003
C96   C     C_3   0.977983 0.427376 0.034215 -0.115222
C97   C     C_3   0.022484 0.427129 0.965428 -0.115003
C98   C     C_3   0.429972 0.826116 0.002381 0.002371
C99   C     C_3   0.570077 0.825843 0.997598 0.002559
C100  C     C_3   0.929972 0.326116 0.002381 0.002371
C101  C     C_3   0.070077 0.325843 0.997598 0.002559
C102  C     C_3   0.473996 0.825518 0.934981 0.013515
C103  C     C_3   0.526059 0.825741 0.065004 0.013889
C104  C     C_3   0.973996 0.325518 0.934981 0.013515
Cr1   Cr    Cr6+3 0.229630 0.835900 0.747350 1.013575
Cr2   Cr    Cr6+3 0.614200 0.677120 0.250660 1.022741
Cr3   Cr    Cr6+3 0.885800 0.177120 0.749340 1.021760
Cr4   Cr    Cr6+3 0.114200 0.177120 0.250660 1.022733
Cr5   Cr    Cr6+3 0.770370 0.835900 0.252650 1.011882
Cr6   Cr    Cr6+3 0.729630 0.335900 0.747350 1.013577
Cr7   Cr    Cr6+3 0.270370 0.335900 0.252650 1.011890
Cr8   Cr    Cr6+3 0.387410 0.989850 0.750850 1.038042
Cr9   Cr    Cr6+3 0.612590 0.989850 0.249150 1.030917
Cr10  Cr    Cr6+3 0.887410 0.489850 0.750850 1.038034
Cr11  Cr    Cr6+3 0.112590 0.489850 0.249150 1.030904
Cr12  Cr    Cr6+3 0.385800 0.677120 0.749340 1.021761
H1    H     H_    0.212877 0.796406 0.544787 0.141457
H2    H     H_    0.637242 0.546063 0.442669 0.146413
H3    H     H_    0.806396 0.939044 0.575593 0.137200
H4    H     H_    0.137255 0.045988 0.442659 0.146386
H5    H     H_    0.459663 0.009800 0.063107 0.131539
H6    H     H_    0.541130 0.009338 0.936236 0.131742
H7    H     H_    0.959663 0.509800 0.063107 0.131539
H8    H     H_    0.041130 0.509338 0.936236 0.131742
H9    H     H_    0.541338 0.641536 0.938270 0.138605
H10   H     H_    0.457939 0.641989 0.062332 0.138542
H11   H     H_    0.041338 0.141536 0.938270 0.138605
H12   H     H_    0.857868 0.652941 0.431990 0.135449
H13   H     H_    0.957939 0.141988 0.062332 0.138541
H14   H     H_    0.352536 0.503985 0.937006 0.121109
H15   H     H_    0.647424 0.503109 0.063198 0.121049
H16   H     H_    0.852536 0.003984 0.937006 0.121109
H17   H     H_    0.147424 0.003109 0.063198 0.121049
H18   H     H_    0.341613 0.474831 0.065647 0.116576
H19   H     H_    0.658391 0.473717 0.934607 0.116657
H20   H     H_    0.841613 0.974831 0.065647 0.116576
H21   H     H_    0.158391 0.973717 0.934607 0.116657
H22   H     H_    0.140461 0.665551 0.057305 0.131023
H23   H     H_    0.712833 0.296448 0.544788 0.141443
H24   H     H_    0.859388 0.666639 0.942437 0.130779
H25   H     H_    0.640461 0.165551 0.057305 0.131023
H26   H     H_    0.359388 0.166639 0.942437 0.130779
H27   H     H_    0.147950 0.683630 0.932295 0.125531
H28   H     H_    0.851839 0.685066 0.067430 0.125301
H29   H     H_    0.647950 0.183630 0.932295 0.125531
H30   H     H_    0.351839 0.185067 0.067430 0.125301
H31   H     H_    0.432087 0.652173 0.548623 0.144028
H32   H     H_    0.451531 0.657472 0.422349 0.131518
H33   H     H_    0.932157 0.152119 0.548636 0.144025
H34   H     H_    0.357871 0.152948 0.431987 0.135466
H35   H     H_    0.951587 0.157420 0.422365 0.131519
H36   H     H_    0.550235 0.014462 0.444168 0.142671
H37   H     H_    0.530622 0.008805 0.572230 0.123820
H38   H     H_    0.050185 0.514487 0.444156 0.142656
H39   H     H_    0.030589 0.508827 0.572221 0.123811
H40   H     H_    0.319417 0.828017 0.957282 0.089131
H41   H     H_    0.680644 0.827651 0.042669 0.089092
H42   H     H_    0.819417 0.328017 0.957282 0.089131
H43   H     H_    0.180644 0.327651 0.042669 0.089092
H44   H     H_    0.151194 0.815032 0.424099 0.226739
H45   H     H_    0.298757 0.403257 0.448179 0.147258
H46   H     H_    0.235951 0.857474 0.406097 0.235075
H47   H     H_    0.922023 0.633341 0.549519 0.230718
H48   H     H_    0.885151 0.773847 0.545205 0.207073
H49   H     H_    0.651120 0.314971 0.424130 0.226758
H50   H     H_    0.735845 0.357476 0.406072 0.235087
H51   H     H_    0.422038 0.133371 0.549490 0.230706
H52   H     H_    0.385128 0.273867 0.545227 0.207098
H53   H     H_    0.649547 0.521926 0.571079 0.130997
H54   H     H_    0.798855 0.903334 0.448162 0.147237
H55   H     H_    0.149557 0.021870 0.571071 0.131002
H56   H     H_    0.306307 0.438967 0.575611 0.137187
N1    N     N_3   0.199848 0.784996 0.404877 -0.606550
N2    N     N_3   0.878615 0.685211 0.565353 -0.589027
N3    N     N_3   0.699761 0.284980 0.404884 -0.606586
N4    N     N_3   0.378620 0.185204 0.565350 -0.589006
O1    O     O_R   0.214270 0.709000 0.827470 -0.526036
O2    O     O_R   0.543270 0.717630 0.330160 -0.517213
O3    O     O_R   0.956730 0.217630 0.669840 -0.519755
O4    O     O_R   0.043270 0.217630 0.330160 -0.517220
O5    O     O_R   0.320620 0.625640 0.672920 -0.503538
O6    O     O_R   0.679380 0.625640 0.327080 -0.498207
O7    O     O_R   0.820620 0.125640 0.672920 -0.503543
O8    O     O_R   0.179380 0.125640 0.327080 -0.498200
O9    O     O_3   0.334280 0.834290 0.749180 -0.277387
O10   O     O_3   0.665720 0.834290 0.250820 -0.274549
O11   O     O_3   0.834280 0.334290 0.749180 -0.277388
O12   O     O_R   0.785730 0.709000 0.172530 -0.527300
O13   O     O_3   0.165720 0.334290 0.250820 -0.274550
O14   O     O_R   0.236160 0.958490 0.823130 -0.511810
O15   O     O_R   0.763840 0.958490 0.176870 -0.512214
O16   O     O_R   0.736160 0.458490 0.823130 -0.511811
O17   O     O_R   0.263840 0.458490 0.176870 -0.512211
O18   O     O_R   0.332080 0.075470 0.831280 -0.532574
O19   O     O_R   0.667920 0.075470 0.168720 -0.529521
O20   O     O_R   0.832080 0.575470 0.831280 -0.532572
O21   O     O_R   0.167920 0.575470 0.168720 -0.529520
O22   O     O_R   0.446300 0.918110 0.826620 -0.497758
O23   O     O_R   0.714270 0.209000 0.827470 -0.526034
O24   O     O_R   0.553700 0.918110 0.173380 -0.498300
O25   O     O_R   0.946300 0.418110 0.826620 -0.497758
O26   O     O_R   0.053700 0.418110 0.173380 -0.498301
O27   O     O_R   0.457110 0.716200 0.831760 -0.511089
O28   O     O_R   0.542890 0.716200 0.168240 -0.513079
O29   O     O_R   0.957110 0.216200 0.831760 -0.511090
O30   O     O_R   0.042890 0.216200 0.168240 -0.513080
O31   O     O_R   0.320980 0.624310 0.823030 -0.520407
O32   O     O_R   0.679020 0.624310 0.176970 -0.520113
O33   O     O_R   0.820980 0.124310 0.823030 -0.520404
O34   O     O_R   0.285730 0.209000 0.172530 -0.527299
O35   O     O_R   0.179020 0.124310 0.176970 -0.520114
O36   O     O_R   0.213890 0.710430 0.665540 -0.520881
O37   O     O_R   0.786110 0.710430 0.334460 -0.528097
O38   O     O_R   0.713890 0.210430 0.665540 -0.520887
O39   O     O_R   0.286110 0.210430 0.334460 -0.528104
O40   O     O_R   0.235810 0.959820 0.673020 -0.518521
O41   O     O_R   0.764190 0.959820 0.326980 -0.520092
O42   O     O_R   0.735810 0.459820 0.673020 -0.518524
O43   O     O_R   0.264190 0.459820 0.326980 -0.520092
O44   O     O_R   0.331700 0.076900 0.669350 -0.468234
O45   O     O_R   0.445950 0.919440 0.676520 -0.491204
O46   O     O_R   0.668300 0.076900 0.330650 -0.482997
O47   O     O_R   0.831700 0.576900 0.669350 -0.468241
O48   O     O_R   0.168300 0.576900 0.330650 -0.483023
O49   O     O_2   0.322067 0.827766 0.063128 -0.501011
O50   O     O_2   0.677972 0.826835 0.936825 -0.501696
O51   O     O_2   0.822067 0.327766 0.063128 -0.501013
O52   O     O_2   0.177972 0.326835 0.936825 -0.501698
O53   O     O_R   0.554050 0.919440 0.323480 -0.503464
O54   O     O_R   0.945950 0.419440 0.676520 -0.491213
O55   O     O_R   0.054050 0.419440 0.323480 -0.503468
O56   O     O_R   0.456730 0.717630 0.669840 -0.519744

loop_
_geom_bond_atom_site_label_1
_geom_bond_atom_site_label_2
_ccdc_geom_bond_type
C79   O34   A    
C99   C103  S    
C16   C21   A    
C4    C98   S    
Cr8   O45   S    
C61   C98   S    
C59   C82   S    
C100  C104  S    
C7    O52   D    
C93   C103  S    
C91   O7    A    
C57   C62   A    
C80   O40   A    
C41   H36   S    
Cr5   O15   S    
C17   O15   A    
C79   O35   A    
C81   O46   A    
C39   O17   A    
C47   O25   A    
C50   C99   S    
C94   H14   S    
Cr1   O36   S    
Cr10  O20   S    
C13   C18   A    
C2    C29   A    
C34   C40   A    
C51   H12   S    
C64   C68   A    
C54   N1    S    
C37   C85   S    
Cr12  O27   S    
C61   C103  S    
Cr7   O39   S    
C73   C90   S    
C83   H13   S    
C97   H8    S    
C55   C59   A    
Cr2   O32   S    
Cr1   O14   S    
C95   C99   S    
C67   C71   A    
C7    H43   S    
C72   C101  S    
C10   C94   A    
C50   C61   S    
C49   C54   A    
Cr11  O26   S    
C48   O26   A    
C3    C48   S    
C86   O2    A    
C33   C36   A    
C5    O50   D    
Cr4   O4    S    
C92   O39   A    
H52   N4    S    
C34   C35   A    
C41   C42   A    
Cr1   O9    S    
C37   C42   A    
C26   H30   S    
C9    C13   A    
C24   C29   A    
Cr2   O6    S    
C68   H2    S    
C14   C39   S    
C11   C15   A    
C49   H1    S    
C90   O6    A    
C70   H4    S    
C16   C17   S    
C71   C89   S    
C8    H16   S    
H48   N2    S    
C3    C96   S    
C23   C27   A    
Cr10  O47   S    
C43   H38   S    
Cr11  O55   S    
C76   O31   A    
C8    C12   A    
C1    O14   A    
C3    C101  S    
C46   O28   A    
C80   O44   A    
C39   O21   A    
C26   C31   A    
C93   C95   S    
Cr1   O40   S    
Cr12  O56   S    
Cr9   O19   S    
C23   H27   S    
C36   C41   A    
C53   C75   A    
C85   O56   A    
Cr7   O43   S    
Cr9   O53   S    
C2    C11   A    
C28   O16   A    
Cr8   O22   S    
C6    H42   S    
C34   H33   S    
C88   O4    A    
C89   O36   A    
Cr5   O12   S    
Cr8   O44   S    
C15   C20   A    
Cr9   O46   S    
C63   C67   A    
Cr6   O11   S    
C62   C66   A    
C56   N3    S    
C97   C104  S    
C12   C16   A    
C66   H55   S    
C35   C38   A    
Cr5   O41   S    
Cr2   O10   S    
Cr4   O30   S    
C76   O1    A    
C92   O8    A    
C77   O32   A    
Cr1   O1    S    
Cr8   O9    S    
H46   N1    S    
C53   C57   A    
C38   C43   A    
C82   O47   A    
C72   H11   S    
C36   C86   S    
C68   C73   A    
C4    O49   D    
C87   O3    A    
C69   H3    S    
Cr10  O11   S    
C56   C60   A    
C38   C88   S    
C89   O5    A    
C74   C91   S    
C19   C23   A    
C43   C44   A    
C55   N2    S    
H50   N3    S    
C84   O43   A    
C58   C84   S    
C51   C73   A    
C57   N4    S    
Cr11  O21   S    
C60   C81   S    
Cr11  O48   S    
C46   O24   A    
C82   O42   A    
C45   O27   A    
C81   O41   A    
C6    O51   D    
C22   H26   S    
C2    H15   S    
C1    C18   S    
Cr10  O25   S    
C69   C74   A    
C50   H9    S    
C32   C37   A    
C58   C63   A    
C78   O33   A    
Cr8   O18   S    
C61   H10   S    
C75   C92   S    
Cr7   O17   S    
Cr3   O33   S    
C95   H6    S    
C4    H40   S    
C60   C65   A    
C64   H53   S    
C5    H41   S    
C83   C100  S    
C22   C26   A    
C53   H34   S    
Cr5   O10   S    
C47   O29   A    
C32   H31   S    
Cr4   O13   S    
C17   O19   A    
C78   O23   A    
C48   O30   A    
C27   C76   S    
C72   C83   S    
Cr4   O35   S    
C96   C97   S    
C40   C87   S    
C54   C58   A    
C62   C80   S    
C25   C30   A    
C63   H45   S    
C21   C25   A    
C47   C104  S    
C96   H7    S    
Cr3   O3    S    
Cr6   O23   S    
C18   C22   A    
C44   H39   S    
C14   C19   A    
C50   C102  S    
C11   H19   S    
C10   H18   S    
C93   H5    S    
C27   C94   A    
Cr10  O54   S    
C95   C102  S    
C31   C79   S    
C5    C99   S    
Cr4   O8    S    
C67   H56   S    
H49   N3    S    
C87   O54   A    
C72   C104  S    
Cr12  O9    S    
Cr5   O37   S    
C65   H54   S    
C33   H32   S    
C8    C30   A    
C32   C33   A    
C20   H24   S    
C13   H21   S    
C1    O18   A    
C45   O22   A    
Cr7   O34   S    
C21   H25   S    
C52   H23   S    
C98   C102  S    
C84   O48   A    
C3    C83   S    
C86   O53   A    
C15   C28   S    
C66   C70   A    
C49   C71   A    
C91   O38   A    
C24   H28   S    
C19   H22   S    
C65   C69   A    
Cr9   O10   S    
C96   C100  S    
Cr6   O16   S    
C28   O20   A    
Cr9   O24   S    
Cr2   O2    S    
C51   C55   A    
C90   O37   A    
C42   H37   S    
Cr6   O42   S    
Cr11  O13   S    
Cr12  O5    S    
Cr3   O29   S    
Cr12  O31   S    
C46   C103  S    
C45   C102  S    
C9    C31   A    
Cr2   O28   S    
C10   C14   A    
C30   C78   S    
C59   C64   A    
C40   C44   A    
C88   O55   A    
C29   C77   S    
C35   H35   S    
C12   H20   S    
Cr3   O7    S    
C70   C75   A    
C77   O12   A    
Cr3   O11   S    
C25   H29   S    
C52   C74   A    
Cr7   O13   S    
H47   N2    S    
C85   O45   A    
C93   C98   S    
C20   C24   A    
H44   N1    S    
C97   C101  S    
C52   C56   A    
C6    C100  S    
H51   N4    S    
Cr6   O38   S    
C7    C101  S    
C9    H17   S    
