data_mof_unit_57743.cif
_audit_creation_date              2012-12-10T18:49:22-0500
_audit_creation_method            fapswitch 2.2
_symmetry_space_group_name_H-M    P1
_symmetry_Int_Tables_number       1
_space_group_crystal_system       triclinic
_cell_length_a                    9.859013
_cell_length_b                    10.606612
_cell_length_c                    13.644577
_cell_angle_alpha                 90.265327
_cell_angle_beta                  82.891541
_cell_angle_gamma                 90.975572
_cell_volume                      1415.64647956

loop_
_atom_site_label
_atom_site_type_symbol
_atom_type_description
_atom_site_fract_x
_atom_site_fract_y
_atom_site_fract_z
_atom_type_partial_charge
C1    C     C_R   0.501413 0.739536 0.499955 0.993051
C2    C     C_R   0.498587 0.260464 0.500045 0.993051
C3    C     C_R   0.494578 0.127965 0.499845 -0.152151
C4    C     C_R   0.505422 0.872035 0.500156 -0.152151
C5    C     C_R   0.475409 0.499373 0.685618 0.945801
C6    C     C_R   0.524591 0.500627 0.314382 0.945800
C7    C     C_R   0.937512 0.423739 0.436941 -0.068314
C8    C     C_R   0.062487 0.576261 0.563059 -0.068314
C9    C     C_R   0.081254 0.423734 0.436990 -0.070097
C10   C     C_R   0.918746 0.576266 0.563010 -0.070097
C11   C     C_1   0.543724 0.504303 0.210996 -0.210883
C12   C     C_1   0.456276 0.495697 0.789004 -0.210883
C13   C     C_2   0.559493 0.510374 0.018939 0.164220
C14   C     C_2   0.440506 0.489627 0.981061 0.164221
C15   C     C_1   0.444211 0.492355 0.876549 -0.035032
C16   C     C_1   0.555789 0.507645 0.123451 -0.035033
C17   C     C_R   0.481651 0.934740 0.591185 0.107112
C18   C     C_R   0.518349 0.065260 0.408815 0.107113
C19   C     C_R   0.473279 0.065511 0.590924 0.107603
C20   C     C_R   0.526721 0.934489 0.409077 0.107603
H1    H     H_    0.890680 0.362735 0.386476 0.130363
H2    H     H_    0.109319 0.637265 0.613524 0.130363
H3    H     H_    0.143043 0.362735 0.386530 0.123222
H4    H     H_    0.856957 0.637266 0.613470 0.123222
N1    N     N_R   0.142790 0.500030 0.500020 -0.082201
N2    N     N_R   0.857210 0.499970 0.499980 -0.082201
O1    O     O_R   0.385380 0.683250 0.500010 -0.617312
O2    O     O_R   0.614620 0.316750 0.499990 -0.617312
O3    O     O_R   0.614710 0.683220 0.500000 -0.637890
O4    O     O_R   0.385290 0.316780 0.500000 -0.637890
O5    O     O_R   0.368830 0.499990 0.640350 -0.613828
O6    O     O_R   0.631170 0.500010 0.359650 -0.613828
O7    O     O_R   0.598160 0.499960 0.640350 -0.619903
O8    O     O_R   0.401840 0.500040 0.359650 -0.619903
Zn1   Zn    Zn3+2 0.346870 0.500020 0.500000 0.945796
Zn2   Zn    Zn3+2 0.653130 0.499980 0.500000 0.945796
N3    N     N_2   0.314086 0.463454 0.042890 -0.306511
H5    H     H_    0.300886 0.509283 0.110121 0.231793
C21   C     C_3   0.189720 0.451235 0.996874 -0.777590
H6    H     H_    0.103021 0.425646 0.053579 0.232246
H7    H     H_    0.199666 0.375334 0.940185 0.250069
H8    H     H_    0.167096 0.542024 0.962494 0.240269
N4    N     N_2   0.685913 0.536547 0.957109 -0.306511
H9    H     H_    0.699114 0.490715 0.889880 0.231793
C22   C     C_3   0.810279 0.548770 0.003126 -0.777590
H10   H     H_    0.896977 0.574359 0.946421 0.232246
H11   H     H_    0.832905 0.457983 0.037507 0.240269
H12   H     H_    0.800331 0.624673 0.059812 0.250069
N5    N     N_2   0.461742 0.864928 0.681237 -0.315725
H13   H     H_    0.387800 0.899589 0.733951 0.236220
C23   C     C_3   0.586233 0.834391 0.721495 -0.802340
H14   H     H_    0.638840 0.921575 0.743397 0.231756
H15   H     H_    0.656595 0.782056 0.666739 0.258446
H16   H     H_    0.561207 0.773927 0.787696 0.244203
N6    N     N_2   0.538256 0.135072 0.318763 -0.315725
H17   H     H_    0.612198 0.100411 0.266049 0.236220
C24   C     C_3   0.413765 0.165608 0.278506 -0.802342
H18   H     H_    0.361159 0.078423 0.256604 0.231757
H19   H     H_    0.438790 0.226072 0.212305 0.244203
H20   H     H_    0.343403 0.217942 0.333263 0.258446
N7    N     N_2   0.450691 0.135659 0.680914 -0.315123
H21   H     H_    0.500069 0.101829 0.737409 0.236933
C25   C     C_3   0.309202 0.164865 0.713018 -0.788272
H22   H     H_    0.248767 0.077323 0.732564 0.225494
H23   H     H_    0.263275 0.214983 0.654402 0.270923
H24   H     H_    0.303294 0.226933 0.779114 0.237654
N8    N     N_2   0.549310 0.864341 0.319086 -0.315123
H25   H     H_    0.499932 0.898171 0.262592 0.236933
C26   C     C_3   0.690799 0.835136 0.286982 -0.788272
H26   H     H_    0.751233 0.922678 0.267436 0.225494
H27   H     H_    0.696707 0.773067 0.220886 0.237654
H28   H     H_    0.736726 0.785018 0.345599 0.270923

loop_
_geom_bond_atom_site_label_1
_geom_bond_atom_site_label_2
_ccdc_geom_bond_type
C26   H28   S    
C8    H2    S    
N4    H9    S    
C25   H23   S    
C3    C19   A    
N3    H5    S    
C11   C16   T    
C20   N8    S    
C6    O6    A    
C6    C11   S    
C12   C15   T    
C2    O4    A    
C23   H16   S    
C10   H4    S    
C1    C4    S    
N6    H17   S    
C1    O3    A    
C2    C3    S    
C25   H24   S    
C9    N1    A    
C21   H7    S    
C7    H1    S    
C13   C14   D    
C14   N3    S    
C8    N1    A    
N4    C22   S    
O3    Zn2   S    
C10   N2    A    
C24   H18   S    
C26   H26   S    
C7    N2    A    
C5    O5    A    
O4    Zn1   S    
N1    Zn1   S    
C18   N6    S    
C4    C17   A    
O6    Zn2   S    
N2    Zn2   S    
C17   C19   A    
C19   N7    S    
O8    Zn1   S    
C21   H8    S    
C18   C20   A    
N6    C24   S    
N7    H21   S    
O5    Zn1   S    
C24   H19   S    
C26   H27   S    
C5    C12   S    
C23   H15   S    
C23   H14   S    
C4    C20   A    
C7    C9    A    
C13   N4    S    
O7    Zn2   S    
C22   H11   S    
O2    Zn2   S    
C3    C18   A    
N3    C21   S    
N5    H13   S    
C6    O8    A    
C13   C16   S    
C17   N5    S    
C21   H6    S    
C1    O1    A    
N5    C23   S    
C14   C15   S    
C9    H3    S    
C24   H20   S    
C2    O2    A    
C22   H12   S    
O1    Zn1   S    
C22   H10   S    
C8    C10   A    
N8    H25   S    
N7    C25   S    
C25   H22   S    
N8    C26   S    
C5    O7    A    
