data_mof_unit_39904.cif
_audit_creation_date              2012-10-26T19:21:52-0400
_audit_creation_method            fapswitch 2.2
_symmetry_space_group_name_H-M    P1
_symmetry_Int_Tables_number       1
_space_group_crystal_system       triclinic
_cell_length_a                    23.50364
_cell_length_b                    11.067417
_cell_length_c                    9.800326
_cell_angle_alpha                 110.826138
_cell_angle_beta                  97.87812
_cell_angle_gamma                 91.228711
_cell_volume                      2353.46498386

loop_
_atom_site_label
_atom_site_type_symbol
_atom_type_description
_atom_site_fract_x
_atom_site_fract_y
_atom_site_fract_z
_atom_type_partial_charge
C1    C     C_R   0.495103 0.254541 0.441132 0.558826
C2    C     C_R   0.709858 0.563393 0.620776 -0.173125
C3    C     C_R   0.231102 0.428327 0.381169 0.289102
C4    C     C_R   0.769459 0.559889 0.621188 0.292280
C5    C     C_R   0.209663 0.505095 0.508427 0.203185
C6    C     C_R   0.790221 0.489586 0.490156 0.214272
C7    C     C_2   0.500300 0.117758 0.409521 -0.075818
C8    C     C_2   0.499686 0.882247 0.590448 -0.074435
C9    C     C_2   0.488001 0.062095 0.503894 0.073460
C10   C     C_2   0.511949 0.937863 0.495998 0.075260
C11   C     C_2   0.505966 0.507882 0.080265 0.023061
C12   C     C_R   0.504887 0.745462 0.558865 0.561312
C13   C     C_2   0.494061 0.492045 0.919711 0.023346
C14   C     C_R   0.391107 0.501430 0.501989 0.568137
C15   C     C_R   0.608903 0.498271 0.497936 0.570929
C16   C     C_R   0.876881 0.566431 0.429693 0.447623
C17   C     C_R   0.122993 0.428714 0.568914 0.422143
C18   C     C_R   0.882413 0.415163 0.553591 0.451181
C19   C     C_R   0.117336 0.576961 0.441022 0.465317
C20   C     C_R   0.942799 0.418009 0.561614 0.041542
C21   C     C_R   0.056966 0.574947 0.433976 0.037991
C22   C     C_R   0.969745 0.494968 0.496761 -0.085809
C23   C     C_R   0.247649 0.581749 0.635432 0.125868
C24   C     C_R   0.030044 0.498556 0.499574 -0.086606
C25   C     C_R   0.936497 0.569036 0.429711 -0.013505
C26   C     C_R   0.063318 0.425154 0.567545 -0.013390
C27   C     C_R   0.977012 0.347707 0.633223 0.270064
C28   C     C_R   0.022742 0.645580 0.362783 0.268325
C29   C     C_R   0.036509 0.349939 0.632747 -0.094756
C30   C     C_R   0.963294 0.644233 0.364482 -0.096939
C31   C     C_3   0.959950 0.339755 0.852172 -0.071264
C32   C     C_3   0.038148 0.656529 0.143825 -0.067090
C33   C     C_3   0.357529 0.780167 0.744460 -0.060264
C34   C     C_R   0.751829 0.417176 0.361903 0.119064
C35   C     C_3   0.641194 0.220935 0.248256 -0.059279
C36   C     C_3   0.192993 0.225209 0.238010 -0.082222
C37   C     C_3   0.801396 0.597749 0.865869 -0.072401
C38   C     C_R   0.307327 0.583923 0.633860 0.248731
C39   C     C_R   0.692249 0.415512 0.364318 0.246948
C40   C     C_R   0.328878 0.505237 0.506160 -0.050254
C41   C     C_R   0.671109 0.492457 0.493417 -0.046766
C42   C     C_R   0.290476 0.430567 0.379870 -0.163589
Cu1   Cu    Cu3+1 0.509980 0.521810 0.644910 1.007979
Cu2   Cu    Cu3+1 0.490020 0.478190 0.355090 1.011021
H1    H     H_    0.558675 0.616900 0.932341 0.222135
H2    H     H_    0.541681 0.573870 0.150858 0.184285
H3    H     H_    0.937575 0.281730 0.903537 0.178733
H4    H     H_    0.940464 0.434765 0.879527 0.114143
H5    H     H_    0.006260 0.353969 0.901497 0.094778
H6    H     H_    0.056540 0.560227 0.112789 0.133367
H7    H     H_    0.060532 0.714829 0.092776 0.178030
H8    H     H_    0.991585 0.645382 0.097407 0.083772
H9    H     H_    0.318264 0.833372 0.737622 0.149440
H10   H     H_    0.379351 0.767217 0.646929 0.111164
H11   H     H_    0.387604 0.841216 0.844017 0.159345
H12   H     H_    0.441309 0.383141 0.067672 0.224665
H13   H     H_    0.611135 0.162055 0.147495 0.160686
H14   H     H_    0.619132 0.231731 0.344938 0.109623
H15   H     H_    0.680246 0.166677 0.253526 0.152135
H16   H     H_    0.159550 0.169730 0.143268 0.164374
H17   H     H_    0.235060 0.185872 0.212552 0.129316
H18   H     H_    0.181778 0.209294 0.337499 0.160354
H19   H     H_    0.796779 0.490548 0.835404 0.160980
H20   H     H_    0.764149 0.643020 0.917485 0.137005
H21   H     H_    0.840458 0.634674 0.950404 0.158287
H22   H     H_    0.061589 0.292634 0.684827 0.184447
H23   H     H_    0.938226 0.702202 0.313327 0.177782
H24   H     H_    0.306537 0.372392 0.280285 0.159182
H25   H     H_    0.693705 0.623802 0.719066 0.150761
H26   H     H_    0.478646 0.932208 0.684334 0.111806
H27   H     H_    0.521367 0.067841 0.315678 0.111814
H28   H     H_    0.458365 0.426003 0.849100 0.185382
I1    I     I_    0.215261 0.697011 0.829299 -0.241493
I2    I     I_    0.783378 0.307465 0.164345 -0.261495
I3    I     I_    0.573667 0.856339 0.350612 -0.397480
I4    I     I_    0.426224 0.143539 0.649107 -0.410464
N1    N     N_R   0.851220 0.489525 0.489798 -0.367810
N2    N     N_R   0.148597 0.504468 0.507357 -0.375543
N3    N     N_2   0.475010 0.445410 0.137370 -0.343332
N4    N     N_2   0.524990 0.554590 0.862630 -0.344602
O1    O     O_R   0.505330 0.332340 0.577400 -0.468061
O2    O     O_2   0.155366 0.357270 0.631427 -0.477264
O3    O     O_2   0.854732 0.338733 0.608229 -0.435457
O4    O     O_2   0.144921 0.650537 0.382718 -0.404288
O5    O     O_3   0.952496 0.271404 0.698183 -0.496011
O6    O     O_3   0.047316 0.722306 0.298386 -0.501946
O7    O     O_3   0.344371 0.660584 0.758751 -0.521158
O8    O     O_3   0.654895 0.342072 0.238421 -0.522834
O9    O     O_3   0.193273 0.357261 0.255240 -0.535560
O10   O     O_3   0.808464 0.633499 0.744173 -0.536262
O11   O     O_R   0.494670 0.667660 0.422600 -0.467994
O12   O     O_R   0.488470 0.295500 0.332650 -0.499816
O13   O     O_R   0.511530 0.704500 0.667350 -0.497439
O14   O     O_R   0.426310 0.518390 0.622390 -0.446792
O15   O     O_R   0.573690 0.481610 0.377610 -0.446082
O16   O     O_R   0.409450 0.481550 0.377650 -0.503267
O17   O     O_R   0.590550 0.518450 0.622350 -0.507439
O18   O     O_2   0.844637 0.639884 0.369897 -0.467361

loop_
_geom_bond_atom_site_label_1
_geom_bond_atom_site_label_2
_ccdc_geom_bond_type
C36   O9    S    
C33   H11   S    
C38   C40   A    
C3    C42   A    
C31   O5    S    
C27   C29   A    
C12   O11   A    
C39   C41   A    
H12   N3    S    
C37   O10   S    
C35   H14   S    
C17   C26   A    
C19   C21   A    
C24   C26   A    
C16   N1    A    
C7    H27   S    
C2    C41   A    
C1    O1    A    
C33   H10   S    
Cu1   O14   S    
C35   H15   S    
C17   O2    S    
C35   O8    S    
C27   O5    S    
C32   H8    S    
C23   I1    S    
C22   C25   A    
C37   H21   S    
C9    I4    S    
C2    H25   S    
C9    C10   S    
C30   H23   S    
Cu2   O12   S    
C40   C42   A    
C13   N4    D    
C31   H3    S    
C42   H24   S    
C39   O8    S    
C31   H5    S    
C36   H18   S    
C14   O16   A    
C37   H19   S    
C15   O17   A    
C4    O10   S    
C33   H9    S    
C16   C25   A    
C34   C39   A    
C15   C41   S    
C4    C6    A    
C6    N1    S    
C3    C5    A    
Cu1   N4    S    
C6    C34   A    
C19   N2    A    
C2    C4    A    
Cu1   Cu2   S    
C32   H7    S    
Cu2   O16   S    
C10   I3    S    
C5    C23   A    
C8    C12   S    
C32   O6    S    
C18   O3    S    
C32   H6    S    
Cu2   O11   S    
C11   N3    D    
C34   I2    S    
C13   H28   S    
C21   C28   A    
C20   C22   A    
C1    O12   A    
C31   H4    S    
C28   O6    S    
Cu1   O1    S    
C22   C24   A    
C12   O13   A    
C19   O4    S    
C37   H20   S    
C25   C30   A    
C7    C9    D    
C1    C7    S    
Cu2   N3    S    
Cu1   O17   S    
C36   H16   S    
C20   C27   A    
C23   C38   A    
C8    H26   S    
C3    O9    S    
C38   O7    S    
C35   H13   S    
C28   C30   A    
C33   O7    S    
Cu2   O15   S    
C15   O15   A    
C11   C13   S    
C16   O18   S    
C18   N1    A    
C17   N2    A    
Cu1   O13   S    
H1    N4    S    
C18   C20   A    
C14   C40   S    
C29   H22   S    
C26   C29   A    
C8    C10   D    
C21   C24   A    
C11   H2    S    
C5    N2    S    
C14   O14   A    
C36   H17   S    
