data_mof_unit_38347.cif
_audit_creation_date              2012-12-11T14:08:03-0500
_audit_creation_method            fapswitch 2.2
_symmetry_space_group_name_H-M    P1
_symmetry_Int_Tables_number       1
_space_group_crystal_system       triclinic
_cell_length_a                    10.918004
_cell_length_b                    10.906071
_cell_length_c                    18.632236
_cell_angle_alpha                 90.477395
_cell_angle_beta                  89.954407
_cell_angle_gamma                 60.322904
_cell_volume                      1927.47637991

loop_
_atom_site_label
_atom_site_type_symbol
_atom_type_description
_atom_site_fract_x
_atom_site_fract_y
_atom_site_fract_z
_atom_type_partial_charge
C1    C     C_R   0.291673 0.622326 0.615314 0.546955
C2    C     C_3   0.673883 0.550760 0.800445 -0.255350
C3    C     C_3   0.699884 0.675619 0.812384 0.035719
C4    C     C_3   0.669266 0.649733 0.676401 0.029461
C5    C     C_3   0.814783 0.637612 0.689467 -0.254736
C6    C     C_3   0.661525 0.531708 0.719905 -0.232538
C7    C     C_2   0.671885 0.162711 0.672364 -0.128493
C8    C     C_2   0.688279 0.170762 0.828981 -0.119527
C9    C     C_2   0.800092 0.126273 0.784809 -0.177828
C10   C     C_2   0.781631 0.157111 0.707624 -0.179873
C11   C     C_2   0.246612 0.637786 0.689971 -0.127122
C12   C     C_R   0.653773 0.622779 0.601185 0.538435
C13   C     C_2   0.214781 0.652003 0.845927 -0.113305
C14   C     C_2   0.224828 0.545063 0.805467 -0.166735
C15   C     C_2   0.274148 0.525896 0.730553 -0.183805
C16   C     C_2   0.675825 0.687046 0.333957 -0.099204
C17   C     C_2   0.707796 0.718071 0.180289 -0.102473
C18   C     C_2   0.816629 0.643545 0.224133 -0.162941
C19   C     C_2   0.798126 0.614166 0.298499 -0.154790
C20   C     C_2   0.581154 0.306987 0.312616 -0.119570
C21   C     C_2   0.635303 0.199618 0.167113 -0.066495
C22   C     C_2   0.502318 0.278048 0.193166 -0.013105
C23   C     C_R   0.627617 0.228768 0.602340 0.552416
C24   C     C_2   0.481054 0.307516 0.270981 -0.197604
C25   C     C_2   0.120166 0.681288 0.345483 -0.102318
C26   C     C_2   0.113685 0.692203 0.191067 -0.100062
C27   C     C_2   0.040318 0.805198 0.234535 -0.153933
C28   C     C_2   0.071902 0.801294 0.310125 -0.148906
C29   C     C_R   0.702879 0.103390 0.897979 0.558130
C30   C     C_R   0.723928 0.688407 0.888319 0.555150
C31   C     C_R   0.122446 0.704288 0.908703 0.563671
C32   C     C_R   0.672303 0.114658 0.101927 0.574887
C33   C     C_R   0.734366 0.720309 0.104460 0.568542
C34   C     C_R   0.214717 0.651557 0.404804 0.556526
C35   C     C_R   0.087279 0.713141 0.115357 0.570125
C36   C     C_R   0.645993 0.627368 0.396395 0.547714
C37   C     C_R   0.574002 0.305943 0.390190 0.589912
C38   C     C_3   0.571450 0.813331 0.783655 -0.234876
C39   C     C_3   0.547533 0.795309 0.703926 -0.096142
C40   C     C_3   0.833622 0.650937 0.770027 -0.229046
Cr1   Cr    Cr6+3 0.393010 0.398050 0.501480 1.039879
Cr2   Cr    Cr6+3 0.398820 0.707980 0.501630 1.055656
Cr3   Cr    Cr6+3 0.708140 0.393940 0.496850 1.017110
Cr4   Cr    Cr6+3 0.937950 0.938450 0.008940 1.026814
Cr5   Cr    Cr6+3 0.626180 0.937030 0.994750 1.047603
Cr6   Cr    Cr6+3 0.937790 0.625760 0.001410 1.041274
H1    H     H_    0.590617 0.903899 0.791614 0.140251
H2    H     H_    0.749025 0.426304 0.703553 0.152781
H3    H     H_    0.928148 0.552707 0.788206 0.144631
H4    H     H_    0.901009 0.533670 0.669919 0.153706
H5    H     H_    0.906580 0.060012 0.804403 0.157572
H6    H     H_    0.858002 0.176590 0.680156 0.157659
H7    H     H_    0.582085 0.238571 0.809353 0.112119
H8    H     H_    0.600479 0.136321 0.699878 0.112941
H9    H     H_    0.185443 0.477425 0.824958 0.155173
H10   H     H_    0.323750 0.420448 0.707167 0.161981
H11   H     H_    0.260816 0.714677 0.827502 0.099070
H12   H     H_    0.474520 0.837914 0.814662 0.122952
H13   H     H_    0.191763 0.744054 0.712394 0.115749
H14   H     H_    0.923130 0.587008 0.202508 0.143385
H15   H     H_    0.884623 0.519926 0.321621 0.151616
H16   H     H_    0.599311 0.773950 0.198789 0.110231
H17   H     H_    0.591300 0.786039 0.314051 0.108734
H18   H     H_    0.384817 0.319995 0.295174 0.133430
H19   H     H_    0.726197 0.174518 0.200067 0.071189
H20   H     H_    0.671172 0.309718 0.289792 0.106385
H21   H     H_    0.966393 0.907925 0.212833 0.152202
H22   H     H_    0.446098 0.794160 0.700098 0.156999
H23   H     H_    0.074848 0.891694 0.333120 0.160203
H24   H     H_    0.189125 0.588777 0.210813 0.083350
H25   H     H_    0.108528 0.594704 0.323781 0.094064
H26   H     H_    0.854254 0.739979 0.779886 0.119720
H27   H     H_    0.825352 0.719718 0.659690 0.110047
H28   H     H_    0.762031 0.451968 0.822700 0.145946
H29   H     H_    0.575176 0.571148 0.828292 0.121247
H30   H     H_    0.561003 0.532232 0.709011 0.107599
O1    O     O_R   0.507110 0.256280 0.580300 -0.491939
O2    O     O_R   0.524640 0.695370 0.425100 -0.491561
O3    O     O_R   0.735890 0.504390 0.415980 -0.522643
O4    O     O_R   0.690560 0.277820 0.422350 -0.495810
O5    O     O_3   0.499990 0.499990 0.499980 -0.302815
O6    O     O_R   0.089190 0.825870 0.932320 -0.514989
O7    O     O_R   0.819070 0.053960 0.931440 -0.493818
O8    O     O_R   0.607070 0.076440 0.916460 -0.505467
O9    O     O_R   0.647110 0.806550 0.917690 -0.506245
O10   O     O_R   0.837080 0.593860 0.915300 -0.520407
O11   O     O_R   0.064770 0.636080 0.932550 -0.488350
O12   O     O_R   0.280830 0.527190 0.577940 -0.487770
O13   O     O_R   0.068250 0.829200 0.092940 -0.507962
O14   O     O_R   0.799650 0.057040 0.080330 -0.519469
O15   O     O_R   0.586130 0.079760 0.077080 -0.472861
O16   O     O_R   0.627700 0.809630 0.066580 -0.493388
O17   O     O_R   0.816140 0.597180 0.075920 -0.498327
O18   O     O_R   0.045360 0.639170 0.081440 -0.502319
O19   O     O_3   0.833980 0.833750 0.001700 -0.289819
O20   O     O_R   0.261360 0.738990 0.584270 -0.498853
O21   O     O_R   0.532590 0.694780 0.574370 -0.491419
O22   O     O_R   0.744470 0.503750 0.577000 -0.527536
O23   O     O_R   0.698520 0.277230 0.571620 -0.497366
O24   O     O_R   0.498530 0.256920 0.419280 -0.498208
O25   O     O_R   0.272880 0.527780 0.428680 -0.523345
O26   O     O_R   0.252780 0.739630 0.423250 -0.503072
C41   C     C_2   0.374161 0.322807 0.148975 0.254273
H31   H     H_    0.276965 0.340758 0.174243 0.080003
O27   O     O_2   0.373607 0.347189 0.085085 -0.477739
C42   C     C_2   0.533007 0.918085 0.660410 0.221644
H32   H     H_    0.623477 0.931432 0.651089 0.100046
O28   O     O_2   0.419531 0.002393 0.634689 -0.490601

loop_
_geom_bond_atom_site_label_1
_geom_bond_atom_site_label_2
_ccdc_geom_bond_type
C7    C10   D    
C23   O23   A    
C39   C42   S    
C39   H22   S    
C28   H23   S    
C1    C11   S    
Cr3   O22   S    
Cr4   O7    S    
C10   H6    S    
C25   C28   D    
C26   C27   D    
C34   O26   A    
C31   O6    A    
C6    H2    S    
Cr2   O20   S    
C8    C29   S    
C20   H20   S    
Cr3   O23   S    
C29   O7    A    
Cr4   O6    S    
C16   C19   D    
Cr1   O1    S    
C38   C39   S    
C32   O15   A    
C13   H11   S    
C42   H32   S    
Cr3   O3    S    
C40   H3    S    
C18   C19   S    
Cr5   O16   S    
C38   H12   S    
C11   C15   D    
C32   O14   A    
Cr6   O19   S    
C20   C24   D    
C3    C38   S    
C8    C9    D    
C9    H5    S    
C25   H25   S    
C16   H17   S    
C30   O10   A    
C9    C10   S    
C12   O22   A    
C2    H28   S    
C25   C34   S    
C1    O12   A    
C14   H9    S    
C24   H18   S    
C21   C22   D    
C2    C6    S    
Cr2   O5    S    
C17   C33   S    
C11   H13   S    
Cr2   O26   S    
C37   O4    A    
C21   C32   S    
C34   O25   A    
C31   O11   A    
C29   O8    A    
C4    C6    S    
Cr2   O21   S    
Cr3   O4    S    
C22   C41   S    
C3    C30   S    
Cr5   O9    S    
C17   H16   S    
Cr6   O18   S    
C4    C39   S    
Cr1   O5    S    
C17   C18   D    
C12   O21   A    
Cr1   O24   S    
C41   O27   D    
C23   O1    A    
C30   O9    A    
C38   H1    S    
C35   O13   A    
C18   H14   S    
C3    C40   S    
Cr2   O2    S    
C26   H24   S    
C22   C24   S    
C5    H4    S    
C33   O16   A    
Cr5   O8    S    
C4    C12   S    
Cr5   O19   S    
C41   H31   S    
Cr4   O14   S    
Cr6   O11   S    
C35   O18   A    
Cr1   O12   S    
C40   H26   S    
Cr3   O5    S    
C21   H19   S    
C13   C31   S    
C4    C5    S    
C36   O3    A    
C33   O17   A    
C8    H7    S    
C6    H30   S    
C15   H10   S    
C2    C3    S    
Cr4   O19   S    
C36   O2    A    
C16   C36   S    
C20   C37   S    
Cr6   O17   S    
C42   O28   D    
C19   H15   S    
C1    O20   A    
C7    C23   S    
Cr1   O25   S    
C5    H27   S    
Cr5   O15   S    
C27   H21   S    
C2    H29   S    
C26   C35   S    
C5    C40   S    
C27   C28   S    
C14   C15   S    
C7    H8    S    
C13   C14   D    
C37   O24   A    
Cr4   O13   S    
Cr6   O10   S    
