data_mof_unit_50805.cif
_audit_creation_date              2012-12-10T17:48:37-0500
_audit_creation_method            fapswitch 2.2
_symmetry_space_group_name_H-M    P1
_symmetry_Int_Tables_number       1
_space_group_crystal_system       triclinic
_cell_length_a                    15.732325
_cell_length_b                    10.712289
_cell_length_c                    9.921978
_cell_angle_alpha                 89.544864
_cell_angle_beta                  90.285768
_cell_angle_gamma                 93.273728
_cell_volume                      1669.34448874

loop_
_atom_site_label
_atom_site_type_symbol
_atom_type_description
_atom_site_fract_x
_atom_site_fract_y
_atom_site_fract_z
_atom_type_partial_charge
C1    C     C_R   0.508970 0.261929 0.500476 0.960757
C2    C     C_R   0.685337 0.062937 0.765540 -0.236733
C3    C     C_R   0.681353 0.933740 0.761260 -0.217833
C4    C     C_R   0.338280 0.500109 0.499684 0.861758
C5    C     C_R   0.627978 0.871373 0.669392 -0.179606
C6    C     C_R   0.571747 0.936730 0.585947 0.006970
C7    C     C_R   0.575505 0.068727 0.589452 0.045884
C8    C     C_R   0.522214 0.130728 0.497999 -0.126689
C9    C     C_R   0.479500 0.066894 0.394442 -0.287461
C10   C     C_R   0.471532 0.939371 0.392777 0.090849
C11   C     C_R   0.514506 0.873623 0.494263 -0.114381
C12   C     C_3   0.952284 0.523092 0.645297 -0.489953
C13   C     C_R   0.383449 0.336658 0.139531 -0.214670
C14   C     C_R   0.325115 0.255828 0.069036 0.085888
C15   C     C_R   0.329761 0.252482 0.926965 0.069164
C16   C     C_R   0.503618 0.740045 0.498843 0.847885
C17   C     C_R   0.387598 0.334952 0.860098 -0.221393
C18   C     C_R   0.443815 0.418984 0.928197 0.142272
C19   C     C_R   0.443127 0.419082 0.072306 0.132045
C20   C     C_R   0.553841 0.577557 0.071242 -0.119346
C21   C     C_R   0.553752 0.577608 0.928211 -0.098619
C22   C     C_R   0.661613 0.505527 0.500169 0.944003
C23   C     C_3   0.917600 0.537006 0.497614 0.198573
C24   C     C_3   0.047008 0.492480 0.641987 -0.148253
C25   C     C_3   0.043072 0.428638 0.394513 0.741212
C26   C     C_3   0.943481 0.420569 0.414741 0.155295
C27   C     C_1   0.750496 0.521720 0.500535 -0.178026
C28   C     C_3   0.083359 0.526161 0.498280 0.158149
C29   C     C_3   0.099754 0.534929 0.768737 -0.382162
C30   C     C_3   0.126019 0.674447 0.780276 -0.326118
C31   C     C_3   0.174504 0.701477 0.911403 -0.886230
C32   C     C_3   0.415752 0.880318 0.281135 -0.372798
C33   C     C_3   0.333408 0.815822 0.335913 -0.332427
C34   C     C_3   0.958194 0.658712 0.425934 0.443589
C35   C     C_3   0.281163 0.754306 0.222065 -0.859216
C36   C     C_3   0.255416 0.175228 0.139421 -0.417731
C37   C     C_3   0.253416 0.171159 0.293561 -0.338459
C38   C     C_3   0.181664 0.078362 0.340084 -0.859348
C39   C     C_3   0.277181 0.157780 0.842279 -0.407684
C40   C     C_3   0.181291 0.180194 0.841609 -0.344562
C41   C     C_3   0.139667 0.145111 0.707595 -0.931009
C42   C     C_3   0.918550 0.785871 0.460649 -0.416444
C43   C     C_3   0.910088 0.823245 0.608538 -0.435112
C44   C     C_3   0.883740 0.957882 0.619439 -0.824678
C45   C     C_3   0.056388 0.660239 0.455276 -0.485548
C46   C     C_1   0.825861 0.533728 0.499763 0.000392
C47   C     C_1   0.174978 0.519947 0.497333 0.030095
C48   C     C_1   0.249815 0.510509 0.498349 -0.193102
C49   C     C_R   0.635882 0.132141 0.676896 0.464114
H1    H     H_    0.915410 0.446523 0.699628 0.218647
H2    H     H_    0.387429 0.331000 0.753252 0.210812
H3    H     H_    0.597761 0.640987 0.874432 0.134076
H4    H     H_    0.911583 0.422228 0.313858 0.151091
H5    H     H_    0.073763 0.729484 0.533754 0.154321
H6    H     H_    0.092489 0.693542 0.364881 0.193963
H7    H     H_    0.133925 0.675155 0.999651 0.281587
H8    H     H_    0.233223 0.648599 0.915566 0.271598
H9    H     H_    0.192936 0.802968 0.916814 0.240189
H10   H     H_    0.168649 0.704517 0.695926 0.222302
H11   H     H_    0.068980 0.729815 0.779957 0.212490
H12   H     H_    0.944703 0.607540 0.705438 0.179826
H13   H     H_    0.062696 0.505111 0.859851 0.212922
H14   H     H_    0.158855 0.482778 0.771413 0.205865
H15   H     H_    0.975064 0.715670 0.237305 0.337953
H16   H     H_    0.695825 0.287575 0.733894 0.331119
H17   H     H_    0.261966 0.826140 0.148451 0.245122
H18   H     H_    0.318747 0.684703 0.169703 0.280610
H19   H     H_    0.223188 0.705043 0.263480 0.259147
H20   H     H_    0.346756 0.743760 0.411938 0.229522
H21   H     H_    0.295769 0.885446 0.387318 0.213199
H22   H     H_    0.396745 0.952473 0.207277 0.185762
H23   H     H_    0.448765 0.117833 0.315332 0.162788
H24   H     H_    0.452183 0.816170 0.219519 0.226751
H25   H     H_    0.118641 0.111659 0.311317 0.299297
H26   H     H_    0.186985 0.985947 0.292349 0.245381
H27   H     H_    0.184937 0.065188 0.450506 0.249065
H28   H     H_    0.313803 0.139506 0.334389 0.203344
H29   H     H_    0.242661 0.265332 0.334051 0.262197
H30   H     H_    0.193583 0.211037 0.107961 0.220018
H31   H     H_    0.259110 0.077522 0.104172 0.198099
H32   H     H_    0.168630 0.205559 0.626804 0.277845
H33   H     H_    0.148429 0.045201 0.685310 0.265307
H34   H     H_    0.730590 0.109545 0.833665 0.136169
H35   H     H_    0.070392 0.159381 0.712254 0.254525
H36   H     H_    0.148475 0.121072 0.920004 0.213579
H37   H     H_    0.170559 0.279760 0.862330 0.223019
H38   H     H_    0.301065 0.159925 0.736821 0.203913
H39   H     H_    0.287395 0.061528 0.878988 0.179507
H40   H     H_    0.042387 0.405645 0.199316 0.336125
H41   H     H_    0.057907 0.267746 0.490556 0.336208
H42   H     H_    0.910606 0.242455 0.412520 0.337797
H43   H     H_    0.933436 0.023716 0.575410 0.266869
H44   H     H_    0.822496 0.969243 0.565765 0.275611
H45   H     H_    0.722785 0.881673 0.825393 0.156923
H46   H     H_    0.875834 0.981884 0.727136 0.247625
H47   H     H_    0.860485 0.761457 0.658556 0.226000
H48   H     H_    0.971610 0.817976 0.661239 0.220825
H49   H     H_    0.957400 0.861629 0.408495 0.197640
H50   H     H_    0.853895 0.785643 0.414549 0.220112
H51   H     H_    0.634232 0.771903 0.662370 0.157358
H52   H     H_    0.597815 0.641008 0.124697 0.143221
H53   H     H_    0.046229 0.389567 0.653771 0.170831
H54   H     H_    0.381337 0.333452 0.246478 0.208509
N1    N     N_R   0.499210 0.498800 0.142780 -0.112730
N2    N     N_R   0.499180 0.498720 0.857170 -0.107402
O1    O     O_R   0.500000 0.316780 0.614690 -0.599546
O2    O     O_3   0.651360 0.259712 0.667719 -0.760079
O3    O     O_3   0.062131 0.472327 0.263074 -0.753985
O4    O     O_3   0.078856 0.311182 0.408267 -0.823447
O5    O     O_3   0.914473 0.309493 0.481219 -0.808411
O6    O     O_R   0.499990 0.316750 0.385360 -0.652067
O7    O     O_R   0.377150 0.500020 0.614720 -0.630827
O8    O     O_R   0.377140 0.499990 0.385380 -0.625122
O9    O     O_R   0.500010 0.683250 0.614640 -0.624474
O10   O     O_R   0.500000 0.683220 0.385310 -0.623020
O11   O     O_R   0.622860 0.500010 0.614620 -0.591900
O12   O     O_R   0.622850 0.499980 0.385280 -0.613654
O13   O     O_3   0.944902 0.644650 0.285483 -0.782525
Zn1   Zn    Zn3+2 0.500010 0.500020 0.653130 0.948880
Zn2   Zn    Zn3+2 0.499990 0.499980 0.346870 0.932423

loop_
_geom_bond_atom_site_label_1
_geom_bond_atom_site_label_2
_ccdc_geom_bond_type
C34   O13   S    
C22   O12   A    
C29   H14   S    
C28   C47   S    
O1    Zn1   S    
C1    C8    S    
C34   C42   S    
C9    H23   S    
C39   H38   S    
C17   H2    S    
C7    C8    A    
C49   O2    S    
C38   H27   S    
C25   C28   S    
C12   C23   S    
C37   C38   S    
C31   H9    S    
C36   C37   S    
C42   H49   S    
C14   C36   S    
C5    C6    A    
H15   O13   S    
C18   C19   A    
C19   N1    A    
C23   C26   S    
C40   H37   S    
C24   C29   S    
C44   H44   S    
C8    C9    A    
C30   H11   S    
C31   H7    S    
C13   H54   S    
C9    C10   A    
C26   O5    S    
O9    Zn1   S    
C44   H43   S    
C33   H20   S    
C1    O1    A    
C22   O11   A    
C4    O7    A    
C23   C46   S    
C13   C14   A    
C2    H34   S    
C39   H39   S    
C43   H47   S    
C32   H22   S    
C38   H26   S    
C28   C45   S    
C13   C19   A    
C24   C28   S    
C4    O8    A    
C7    C49   A    
C36   H31   S    
O12   Zn2   S    
C32   H24   S    
C20   H52   S    
C35   H17   S    
C25   C26   S    
C41   H35   S    
C37   H28   S    
C16   O10   A    
O6    Zn2   S    
C40   H36   S    
C43   C44   S    
C29   C30   S    
C2    C49   A    
O8    Zn2   S    
C11   C16   S    
C47   C48   T    
C5    H51   S    
C35   H18   S    
C23   C34   S    
C41   H32   S    
C30   H10   S    
C17   C18   A    
C34   C45   S    
C15   C39   S    
C33   H21   S    
C27   C46   T    
C40   C41   S    
C45   H5    S    
C22   C27   S    
C42   C43   S    
C26   H4    S    
C6    C11   A    
H42   O5    S    
C4    C48   S    
C15   C17   A    
C29   H13   S    
C43   H48   S    
C3    C5    A    
C36   H30   S    
C16   O9    A    
O7    Zn1   S    
C12   H1    S    
C6    C7    A    
C20   N1    A    
C25   O4    S    
C37   H29   S    
C12   C24   S    
O11   Zn1   S    
C32   C33   S    
C31   H8    S    
C2    C3    A    
C18   N2    A    
C44   H46   S    
C42   H50   S    
C1    O6    A    
C12   H12   S    
C30   C31   S    
C35   H19   S    
C41   H33   S    
H40   O3    S    
C33   C35   S    
C38   H25   S    
C3    H45   S    
C24   H53   S    
C10   C11   A    
C39   C40   S    
C10   C32   S    
C20   C21   A    
C45   H6    S    
O10   Zn2   S    
C14   C15   A    
N2    Zn1   S    
H41   O4    S    
H16   O2    S    
C21   H3    S    
C21   N2    A    
C25   O3    S    
N1    Zn2   S    
