data_mof_unit_15628.cif
_audit_creation_date              2012-10-26T18:25:51-0400
_audit_creation_method            fapswitch 2.2
_symmetry_space_group_name_H-M    P1
_symmetry_Int_Tables_number       1
_space_group_crystal_system       triclinic
_cell_length_a                    11.645016
_cell_length_b                    8.767764
_cell_length_c                    7.610745
_cell_angle_alpha                 103.698545
_cell_angle_beta                  95.507074
_cell_angle_gamma                 94.915288
_cell_volume                      746.738050983

loop_
_atom_site_label
_atom_site_type_symbol
_atom_type_description
_atom_site_fract_x
_atom_site_fract_y
_atom_site_fract_z
_atom_type_partial_charge
C1    C     C_R   0.495590 0.200267 0.453230 0.528478
C2    C     C_2   0.522797 0.968069 0.567436 0.014284
C3    C     C_2   0.389172 0.943676 0.278656 0.609503
C4    C     C_2   0.610826 0.056323 0.721344 0.609503
C5    C     C_R   0.504409 0.799732 0.546770 0.528483
C6    C     C_R   0.284512 0.499675 0.499810 0.555722
C7    C     C_R   0.715488 0.500324 0.500190 0.555724
C8    C     C_1   0.162665 0.499757 0.499631 0.074110
C9    C     C_1   0.837335 0.500243 0.500369 0.074114
C10   C     C_1   0.059963 0.499897 0.499819 0.023650
C11   C     C_1   0.940037 0.500103 0.500181 0.023652
C12   C     C_2   0.477200 0.031931 0.432564 0.014281
Cu1   Cu    Cu3+1 0.512570 0.517380 0.684380 1.248264
Cu2   Cu    Cu3+1 0.487430 0.482620 0.315620 1.248263
H1    H     H_    0.338546 0.886255 0.007951 0.357365
H2    H     H_    0.661450 0.113746 0.992051 0.357361
H3    H     H_    0.201479 0.209902 0.023916 0.354303
H4    H     H_    0.798512 0.790133 0.976115 0.354306
N1    N     N_2   0.468500 0.456430 0.038520 0.040410
N2    N     N_2   0.531500 0.543570 0.961480 0.040408
O1    O     O_R   0.508170 0.286130 0.619770 -0.483495
O2    O     O_R   0.403622 0.951077 0.100557 -0.585554
O3    O     O_2   0.696388 0.132932 0.691442 -0.496543
O4    O     O_R   0.596373 0.048930 0.899446 -0.585559
O5    O     O_2   0.247928 0.485203 0.942906 -0.281384
O6    O     O_2   0.327329 0.258806 0.755159 -0.280879
O7    O     O_3   0.284359 0.243617 0.070834 -0.472997
O8    O     O_2   0.672671 0.741194 0.244842 -0.280891
O9    O     O_2   0.752073 0.514799 0.057093 -0.281375
O10   O     O_3   0.715640 0.756385 0.929166 -0.473002
O11   O     O_R   0.491830 0.713870 0.380230 -0.483490
O12   O     O_R   0.486940 0.256780 0.308360 -0.453215
O13   O     O_R   0.513060 0.743220 0.691640 -0.453218
O14   O     O_R   0.347810 0.514690 0.655710 -0.466052
O15   O     O_R   0.652190 0.485310 0.344290 -0.466054
O16   O     O_R   0.326590 0.485340 0.344300 -0.452938
O17   O     O_R   0.673410 0.514660 0.655700 -0.452931
O18   O     O_2   0.303615 0.867055 0.308553 -0.496541
S1    S     S_3+6 0.331008 0.362986 0.942824 0.166969
S2    S     S_3+6 0.668992 0.637015 0.057176 0.166965

loop_
_geom_bond_atom_site_label_1
_geom_bond_atom_site_label_2
_ccdc_geom_bond_type
C2    C4    S    
Cu1   O13   S    
H4    O10   S    
Cu1   O17   S    
N1    N2    D    
Cu2   O11   S    
C2    C12   D    
C7    O17   A    
Cu1   O1    S    
Cu1   O14   S    
H2    O4    S    
Cu1   Cu2   S    
O5    S1    D    
C1    O1    A    
C9    C11   T    
C1    C12   S    
N1    S1    S    
C4    O4    S    
O9    S2    D    
C6    O16   A    
C1    O12   A    
Cu2   O16   S    
N2    S2    S    
O6    S1    D    
C2    C5    S    
C10   C11   S    
O8    S2    D    
O10   S2    S    
H3    O7    S    
C8    C10   T    
Cu2   O12   S    
Cu2   O15   S    
C7    C9    S    
C4    O3    D    
C3    O2    S    
C6    C8    S    
C3    C12   S    
Cu1   N2    S    
C7    O15   A    
Cu2   N1    S    
H1    O2    S    
C6    O14   A    
C3    O18   D    
O7    S1    S    
C5    O11   A    
C5    O13   A    
