data_mof_unit_51287.cif
_audit_creation_date              2012-12-10T19:58:47-0500
_audit_creation_method            fapswitch 2.2
_symmetry_space_group_name_H-M    P1
_symmetry_Int_Tables_number       1
_space_group_crystal_system       triclinic
_cell_length_a                    18.352802
_cell_length_b                    18.405322
_cell_length_c                    22.411311
_cell_angle_alpha                 90.049558
_cell_angle_beta                  90.035979
_cell_angle_gamma                 89.658662
_cell_volume                      7570.16085511

loop_
_atom_site_label
_atom_site_type_symbol
_atom_type_description
_atom_site_fract_x
_atom_site_fract_y
_atom_site_fract_z
_atom_type_partial_charge
C1    C     C_R   0.499981 0.999983 0.340103 0.813205
C2    C     C_R   0.860179 0.640147 0.499726 0.858428
C3    C     C_2   0.574499 0.314255 0.423657 0.834088
C4    C     C_2   0.273441 0.609830 0.375682 0.882926
C5    C     C_2   0.663272 0.773546 0.345445 0.830126
C6    C     C_2   0.686513 0.426962 0.442931 0.865817
C7    C     C_2   0.347121 0.233166 0.347940 0.861250
C8    C     C_2   0.285558 0.165251 0.848301 0.849049
C9    C     C_2   0.891596 0.216899 0.876135 0.836314
C10   C     C_2   0.709516 0.815380 0.838732 0.854489
C11   C     C_2   0.069205 0.817399 0.936707 0.822669
C12   C     C_2   0.772392 0.107898 0.877843 0.912204
C13   C     C_R   0.359816 0.860039 0.499734 0.818576
C14   C     C_2   0.182774 0.287765 0.839103 0.851734
C15   C     C_2   0.185792 0.929689 0.944163 0.882199
C16   C     C_2   0.840722 0.723620 0.850739 0.804253
C17   C     C_3   0.922169 0.734177 0.383260 0.105919
C18   C     C_3   0.985049 0.764481 0.419683 -0.833976
C19   C     C_3   0.321272 0.873745 0.354922 0.134748
C20   C     C_3   0.309824 0.905310 0.292846 -0.848562
C21   C     C_3   0.150976 0.306655 0.312861 0.188550
C22   C     C_3   0.075091 0.279216 0.298182 -0.822914
C23   C     C_3   0.605391 0.220288 0.330966 0.073547
C24   C     C_R   0.141111 0.361179 0.501003 0.925055
C25   C     C_3   0.628124 0.164339 0.284499 -0.788046
C26   C     C_3   0.179434 0.713105 0.304018 0.132135
C27   C     C_3   0.127731 0.773861 0.285289 -0.767831
C28   C     C_3   0.768319 0.892476 0.335503 0.178077
C29   C     C_3   0.815842 0.958617 0.346101 -0.820976
C30   C     C_3   0.725917 0.382757 0.316142 0.128269
C31   C     C_3   0.782630 0.419251 0.276913 -0.815075
C32   C     C_3   0.251960 0.106314 0.385767 0.127382
C33   C     C_3   0.204437 0.052580 0.352273 -0.831087
C34   C     C_3   0.397359 0.281751 0.839862 0.212869
C35   C     C_R   0.359332 0.139575 0.499818 0.851023
C36   C     C_3   0.447507 0.345295 0.853249 -0.809975
C37   C     C_3   0.834224 0.340391 0.824355 0.105241
C38   C     C_3   0.806014 0.415080 0.806691 -0.863139
C39   C     C_3   0.578372 0.763902 0.897110 0.109184
C40   C     C_3   0.522565 0.736976 0.852195 -0.840795
C41   C     C_3   0.088966 0.733754 0.835770 0.096705
C42   C     C_3   0.104297 0.679205 0.786242 -0.776247
C43   C     C_3   0.684923 0.223866 0.810444 0.116099
C44   C     C_3   0.608135 0.213563 0.786230 -0.868895
C45   C     C_3   0.228133 0.423737 0.893229 0.102600
C46   C     C_R   0.139915 0.640345 0.499780 0.885518
C47   C     C_3   0.251603 0.479619 0.847292 -0.833179
C48   C     C_3   0.217289 0.877992 0.817176 0.126305
C49   C     C_3   0.272546 0.913062 0.775761 -0.834636
C50   C     C_3   0.730944 0.605647 0.838525 0.174317
C51   C     C_3   0.670694 0.550917 0.849816 -0.792454
C52   C     C_3   0.785386 0.879228 0.606886 0.159998
C53   C     C_3   0.774568 0.932256 0.658084 -0.736886
C54   C     C_3   0.105063 0.793232 0.595469 0.156187
C55   C     C_3   0.048467 0.783442 0.644321 -0.778111
C56   C     C_3   0.221594 0.121827 0.615638 0.156293
C57   C     C_R   0.640321 0.860058 0.499932 0.925183
C58   C     C_3   0.238342 0.075814 0.670316 -0.754992
C59   C     C_3   0.920404 0.187503 0.550277 0.142273
C60   C     C_3   0.990126 0.184373 0.587027 -0.763565
C61   C     C_3   0.329490 0.806296 0.638481 0.137191
C62   C     C_3   0.302295 0.749165 0.682319 -0.819449
C63   C     C_3   0.778880 0.652692 0.633235 0.138654
C64   C     C_3   0.814922 0.630860 0.691514 -0.762941
C65   C     C_3   0.747373 0.164622 0.644470 0.148199
C66   C     C_3   0.803177 0.130015 0.686369 -0.750053
C67   C     C_3   0.222504 0.337266 0.641798 0.164193
C68   C     C_R   0.860077 0.359955 0.500154 0.883174
C69   C     C_3   0.173015 0.393308 0.671262 -0.729025
C70   C     C_3   0.246445 0.338362 0.144042 0.180487
C71   C     C_3   0.213224 0.406048 0.172289 -0.789058
C72   C     C_3   0.608016 0.290614 0.100172 0.154814
C73   C     C_3   0.552567 0.279888 0.149753 -0.763851
C74   C     C_3   0.724038 0.642109 0.130931 0.183589
C75   C     C_3   0.744748 0.565203 0.149791 -0.793802
C76   C     C_3   0.423639 0.686399 0.039074 0.155062
C77   C     C_3   0.494931 0.678990 0.073285 -0.776116
C78   C     C_3   0.832894 0.308704 0.140396 0.133206
C79   C     C_R   0.139780 0.640254 0.000637 0.895809
C80   C     C_3   0.809189 0.251176 0.185176 -0.819870
C81   C     C_3   0.257783 0.128986 0.124214 0.123770
C82   C     C_3   0.284684 0.096825 0.182742 -0.777374
C83   C     C_3   0.248771 0.649728 0.138250 0.143387
C84   C     C_3   0.297311 0.606035 0.180151 -0.742866
C85   C     C_3   0.717729 0.859377 0.130969 0.142563
C86   C     C_3   0.785532 0.843566 0.168265 -0.790517
C87   C     C_R   0.359713 0.139787 0.000098 0.922965
C88   C     C_R   0.860615 0.359088 0.000724 0.893582
C89   C     C_R   0.999988 0.499963 0.340064 0.827619
C90   C     C_R   0.640120 0.860131 0.000184 0.799956
C91   C     C_R   0.860273 0.640425 0.000596 0.955779
C92   C     C_R   0.640453 0.140014 0.000364 0.899310
C93   C     C_R   0.139841 0.359729 0.000322 0.860055
C94   C     C_R   0.360193 0.859755 0.999866 0.866038
C95   C     C_R   0.709287 0.762480 0.449694 -0.019818
C96   C     C_R   0.249664 0.697751 0.456975 -0.063186
C97   C     C_R   0.292410 0.241115 0.453034 -0.121215
C98   C     C_R   0.742769 0.309305 0.466795 -0.066645
C99   C     C_R   0.301279 0.751033 0.455993 -0.063964
C100  C     C_R   0.999993 0.499981 0.840102 0.833412
C101  C     C_R   0.765015 0.711648 0.448744 -0.057663
C102  C     C_R   0.690905 0.257553 0.466262 -0.042006
C103  C     C_R   0.247600 0.300314 0.456021 -0.033315
C104  C     C_R   0.215051 0.267821 0.948957 -0.062852
C105  C     C_R   0.754191 0.193488 0.961281 -0.084824
C106  C     C_R   0.790329 0.736994 0.951123 -0.073936
C107  C     C_R   0.240399 0.810945 0.969136 -0.072211
C108  C     C_R   0.808185 0.244373 0.961944 -0.020861
C109  C     C_R   0.266785 0.213730 0.949626 -0.047582
C110  C     C_R   0.187862 0.759949 0.970228 -0.030972
C111  C     C_R   0.499981 0.000014 0.840065 0.847402
C112  C     C_R   0.734629 0.787528 0.949816 -0.061247
C113  C     C_R   0.695048 0.802852 0.501427 -0.180724
C114  C     C_R   0.197529 0.694239 0.502216 -0.201588
C115  C     C_R   0.303546 0.195756 0.501958 -0.212983
C116  C     C_R   0.804317 0.304700 0.502475 -0.229203
C117  C     C_R   0.306549 0.802076 0.502029 -0.216115
C118  C     C_R   0.803604 0.694962 0.500706 -0.172238
C119  C     C_R   0.694457 0.196807 0.503240 -0.215562
C120  C     C_R   0.201032 0.309888 0.504447 -0.178810
C121  C     C_R   0.194461 0.302714 0.001693 -0.164837
C122  C     C_R   0.500008 0.000008 0.659953 0.839296
C123  C     C_R   0.699654 0.192457 0.004657 -0.194343
C124  C     C_R   0.806481 0.698426 0.003052 -0.173877
C125  C     C_R   0.304362 0.804418 0.002003 -0.226310
C126  C     C_R   0.810162 0.298432 0.005742 -0.207418
C127  C     C_R   0.300955 0.192514 0.002274 -0.173555
C128  C     C_R   0.194227 0.696863 0.003994 -0.210323
C129  C     C_R   0.697000 0.805487 0.001896 -0.198747
C130  C     C_R   0.734766 0.787602 0.554033 0.333686
C131  C     C_R   0.204608 0.741982 0.551575 0.348550
C132  C     C_R   0.264880 0.211145 0.555419 0.356309
C133  C     C_R   0.999898 0.500028 0.659917 0.820656
C134  C     C_R   0.810439 0.243904 0.541194 0.336842
C135  C     C_R   0.262285 0.792231 0.553203 0.381423
C136  C     C_R   0.784505 0.729435 0.554672 0.325812
C137  C     C_R   0.753111 0.192983 0.544631 0.337685
C138  C     C_R   0.214794 0.269721 0.556809 0.312476
C139  C     C_R   0.221878 0.276703 0.056729 0.367293
C140  C     C_R   0.706701 0.239842 0.054353 0.350950
C141  C     C_R   0.769556 0.715779 0.056465 0.366021
C142  C     C_R   0.312607 0.741694 0.038417 0.346891
C143  C     C_R   0.764600 0.290113 0.056267 0.368364
C144  C     C_R   0.000016 0.499897 0.159952 0.839080
C145  C     C_R   0.273833 0.219410 0.057007 0.310410
C146  C     C_R   0.256009 0.690265 0.041928 0.327670
C147  C     C_R   0.718522 0.773588 0.056677 0.360623
C148  C     C_1   0.999989 0.499850 0.276714 -0.164491
C149  C     C_1   0.499964 0.999971 0.276725 -0.149568
C150  C     C_1   0.499958 0.000037 0.776718 -0.144955
C151  C     C_1   0.999955 0.499976 0.776726 -0.144858
C152  C     C_1   0.499992 0.000038 0.723316 -0.158844
C153  C     C_1   0.999925 0.500040 0.723308 -0.163755
C154  C     C_1   0.000025 0.499823 0.223312 -0.171950
C155  C     C_R   0.499974 0.000022 0.159915 0.821883
C156  C     C_1   0.499945 0.000025 0.223306 -0.153339
C157  C     C_3   0.792209 0.737115 0.388631 0.266988
C158  C     C_3   0.305561 0.751065 0.388579 0.302464
C159  C     C_3   0.237654 0.305994 0.389867 0.287332
C160  C     C_3   0.653064 0.289560 0.412703 0.284293
C161  C     C_3   0.248449 0.687691 0.390482 0.200677
C162  C     C_3   0.726037 0.790266 0.388117 0.276031
C163  C     C_3   0.710382 0.352975 0.417243 0.219465
C164  C     C_3   0.279586 0.232130 0.386500 0.255496
C165  C     C_3   0.296303 0.230856 0.889143 0.278290
C166  C     C_R   0.639830 0.140258 0.500478 0.899196
C167  C     C_3   0.816210 0.245044 0.895180 0.274608
C168  C     C_3   0.708230 0.760855 0.889504 0.266276
C169  C     C_3   0.146013 0.792388 0.919143 0.290281
C170  C     C_3   0.753519 0.186950 0.894510 0.183222
C171  C     C_3   0.239332 0.294438 0.888246 0.263456
C172  C     C_3   0.205905 0.854012 0.919880 0.210798
C173  C     C_3   0.774799 0.707985 0.890115 0.298071
C174  C     C_2   0.790131 0.680327 0.339123 0.798463
C175  C     C_2   0.378441 0.728264 0.361919 0.838936
C176  C     C_2   0.276612 0.373603 0.366660 0.855724
H1    H     H_    0.808553 0.657831 0.252466 0.353789
H2    H     H_    0.953675 0.173719 0.810655 0.372016
H3    H     H_    0.819599 0.972204 0.657789 0.202794
H4    H     H_    0.721772 0.961490 0.653165 0.278887
H5    H     H_    0.076448 0.791634 0.551575 0.130832
H6    H     H_    0.130434 0.847541 0.601329 0.161194
H7    H     H_    0.074595 0.788774 0.688786 0.236117
H8    H     H_    0.005339 0.825699 0.640027 0.199038
H9    H     H_    0.023016 0.729009 0.640565 0.288851
H10   H     H_    0.216023 0.084884 0.576475 0.128179
H11   H     H_    0.168697 0.150156 0.623388 0.172256
H12   H     H_    0.242481 0.111123 0.710350 0.273799
H13   H     H_    0.691012 0.833012 0.751242 0.360517
H14   H     H_    0.194001 0.035961 0.677399 0.197804
H15   H     H_    0.290560 0.045968 0.664035 0.271373
H16   H     H_    0.934757 0.206592 0.504573 0.129758
H17   H     H_    0.897652 0.131668 0.547389 0.154162
H18   H     H_    0.030246 0.147570 0.565236 0.181469
H19   H     H_    0.014146 0.239426 0.590673 0.300400
H20   H     H_    0.978352 0.163691 0.632517 0.245094
H21   H     H_    0.352913 0.851942 0.664423 0.165736
H22   H     H_    0.375165 0.783465 0.611338 0.111867
H23   H     H_    0.287067 0.698838 0.658137 0.259514
H24   H     H_    0.982528 0.881031 0.917227 0.391285
H25   H     H_    0.345994 0.735711 0.714840 0.213219
H26   H     H_    0.254081 0.770118 0.706872 0.273098
H27   H     H_    0.778781 0.604332 0.603278 0.119580
H28   H     H_    0.721590 0.669332 0.642961 0.163263
H29   H     H_    0.873194 0.617249 0.683963 0.270721
H30   H     H_    0.810879 0.676457 0.723769 0.278481
H31   H     H_    0.787117 0.582515 0.710060 0.176155
H32   H     H_    0.691690 0.150396 0.659826 0.143183
H33   H     H_    0.752083 0.224947 0.648436 0.126690
H34   H     H_    0.853650 0.115059 0.661904 0.272483
H35   H     H_    0.673109 0.084061 0.843260 0.343190
H36   H     H_    0.818239 0.168848 0.722070 0.233193
H37   H     H_    0.780124 0.080683 0.707388 0.241768
H38   H     H_    0.262842 0.367681 0.614151 0.100988
H39   H     H_    0.253101 0.307146 0.676771 0.213483
H40   H     H_    0.130053 0.366072 0.697828 0.286833
H41   H     H_    0.205484 0.428809 0.701030 0.192772
H42   H     H_    0.146919 0.427617 0.636509 0.220444
H43   H     H_    0.295295 0.355506 0.117979 0.131504
H44   H     H_    0.264471 0.301191 0.180283 0.216532
H45   H     H_    0.251373 0.429067 0.205514 0.224757
H46   H     H_    0.077971 0.270141 0.816353 0.351367
H47   H     H_    0.202643 0.447753 0.137614 0.285023
H48   H     H_    0.161124 0.392578 0.194687 0.250662
H49   H     H_    0.578434 0.290434 0.056700 0.141517
H50   H     H_    0.633918 0.344544 0.106671 0.167909
H51   H     H_    0.510308 0.323236 0.147568 0.205770
H52   H     H_    0.525839 0.226210 0.144873 0.285633
H53   H     H_    0.580078 0.282550 0.193821 0.237622
H54   H     H_    0.678115 0.637777 0.098360 0.122988
H55   H     H_    0.703990 0.672016 0.170818 0.213403
H56   H     H_    0.793138 0.565807 0.179495 0.260088
H57   H     H_    0.260058 0.984481 0.894461 0.357627
H58   H     H_    0.698531 0.540033 0.173958 0.201780
H59   H     H_    0.757349 0.531581 0.109935 0.281603
H60   H     H_    0.435861 0.710945 0.994749 0.113133
H61   H     H_    0.400821 0.631075 0.032323 0.163647
H62   H     H_    0.485150 0.652243 0.116930 0.247305
H63   H     H_    0.534219 0.645653 0.047170 0.193555
H64   H     H_    0.518862 0.733417 0.081161 0.294673
H65   H     H_    0.854792 0.355806 0.165439 0.168088
H66   H     H_    0.879010 0.287383 0.112956 0.107012
H67   H     H_    0.794230 0.200317 0.161627 0.256498
H68   H     H_    0.909920 0.797941 0.817091 0.353152
H69   H     H_    0.854549 0.239158 0.216524 0.215051
H70   H     H_    0.761531 0.271108 0.210906 0.272607
H71   H     H_    0.264026 0.086690 0.088954 0.132691
H72   H     H_    0.198939 0.142977 0.129304 0.166660
H73   H     H_    0.273720 0.135425 0.219719 0.294057
H74   H     H_    0.255712 0.045255 0.191983 0.191623
H75   H     H_    0.344106 0.085467 0.180238 0.263038
H76   H     H_    0.190930 0.636192 0.147497 0.145316
H77   H     H_    0.256911 0.708476 0.148750 0.137486
H78   H     H_    0.292529 0.547251 0.170239 0.244617
H79   H     H_    0.936542 0.737686 0.335208 0.176540
H80   H     H_    0.354992 0.622475 0.174356 0.272442
H81   H     H_    0.280999 0.615817 0.227161 0.212412
H82   H     H_    0.677155 0.886933 0.160107 0.174622
H83   H     H_    0.731114 0.898630 0.094772 0.103542
H84   H     H_    0.830042 0.822273 0.139538 0.259777
H85   H     H_    0.804371 0.894306 0.190056 0.191890
H86   H     H_    0.772816 0.802964 0.203175 0.316861
H87   H     H_    0.915773 0.676035 0.394989 0.121793
H88   H     H_    0.971293 0.763534 0.467915 0.256522
H89   H     H_    0.434439 0.700999 0.287706 0.352939
H90   H     H_    0.034766 0.731005 0.412299 0.232776
H91   H     H_    0.996262 0.821319 0.406041 0.259087
H92   H     H_    0.379959 0.860651 0.359284 0.178282
H93   H     H_    0.308163 0.915942 0.388643 0.119673
H94   H     H_    0.251219 0.917286 0.285197 0.255519
H95   H     H_    0.341256 0.956334 0.288060 0.209617
H96   H     H_    0.328652 0.865754 0.258638 0.278728
H97   H     H_    0.191220 0.273627 0.287156 0.190047
H98   H     H_    0.154060 0.364388 0.298695 0.157416
H99   H     H_    0.033491 0.312178 0.322171 0.244481
H100  H     H_    0.325674 0.423665 0.297697 0.369042
H101  H     H_    0.065171 0.283682 0.249424 0.209322
H102  H     H_    0.070058 0.221420 0.311709 0.272679
H103  H     H_    0.579810 0.266966 0.307345 0.151003
H104  H     H_    0.565506 0.194155 0.361165 0.207861
H105  H     H_    0.652689 0.116130 0.306710 0.250487
H106  H     H_    0.579725 0.146882 0.258541 0.226233
H107  H     H_    0.668467 0.188143 0.253379 0.262479
H108  H     H_    0.159597 0.662196 0.283284 0.117069
H109  H     H_    0.234212 0.724557 0.285038 0.182607
H110  H     H_    0.144332 0.826003 0.306004 0.285392
H111  H     H_    0.491424 0.379222 0.397626 0.395148
H112  H     H_    0.128692 0.779875 0.235991 0.193364
H113  H     H_    0.071341 0.760967 0.299503 0.237183
H114  H     H_    0.720291 0.909853 0.308726 0.150196
H115  H     H_    0.800666 0.852123 0.309450 0.194273
H116  H     H_    0.864656 0.942942 0.372558 0.276715
H117  H     H_    0.833785 0.981326 0.302669 0.202539
H118  H     H_    0.784625 0.000936 0.370742 0.250760
H119  H     H_    0.681063 0.422430 0.324670 0.154881
H120  H     H_    0.703082 0.336590 0.290663 0.193839
H121  H     H_    0.830207 0.382509 0.270653 0.259800
H122  H     H_    0.174024 0.574573 0.349449 0.342301
H123  H     H_    0.758611 0.431996 0.232645 0.224927
H124  H     H_    0.801588 0.470469 0.297769 0.275951
H125  H     H_    0.242541 0.096908 0.433985 0.126575
H126  H     H_    0.310074 0.095770 0.374299 0.123430
H127  H     H_    0.217357 0.053956 0.303933 0.252450
H128  H     H_    0.213589 0.997000 0.369696 0.210729
H129  H     H_    0.145980 0.066580 0.358591 0.266831
H130  H     H_    0.354150 0.300597 0.808405 0.159077
H131  H     H_    0.430147 0.239115 0.817102 0.171324
H132  H     H_    0.492424 0.327460 0.883187 0.255616
H133  H     H_    0.559427 0.741066 0.334662 0.365956
H134  H     H_    0.471245 0.366111 0.811072 0.196461
H135  H     H_    0.416635 0.389878 0.875260 0.288311
H136  H     H_    0.828025 0.303242 0.785549 0.153458
H137  H     H_    0.892801 0.346448 0.835872 0.192135
H138  H     H_    0.813681 0.453461 0.844393 0.260968
H139  H     H_    0.836659 0.435333 0.767423 0.215769
H140  H     H_    0.747256 0.412317 0.795148 0.252438
H141  H     H_    0.586807 0.822846 0.889213 0.126782
H142  H     H_    0.555027 0.757261 0.942436 0.149277
H143  H     H_    0.510239 0.678870 0.860589 0.252933
H144  H     H_    0.762059 0.485625 0.398049 0.374717
H145  H     H_    0.471471 0.769234 0.856368 0.209261
H146  H     H_    0.544113 0.742968 0.806185 0.277766
H147  H     H_    0.070983 0.785621 0.814902 0.147225
H148  H     H_    0.044630 0.711289 0.863945 0.211264
H149  H     H_    0.122271 0.626582 0.805672 0.252764
H150  H     H_    0.054072 0.670233 0.759624 0.232422
H151  H     H_    0.147731 0.699875 0.756383 0.251304
H152  H     H_    0.722166 0.186573 0.786140 0.119016
H153  H     H_    0.700314 0.280617 0.800582 0.201534
H154  H     H_    0.607531 0.223753 0.737400 0.205565
H155  H     H_    0.453519 0.255267 0.340740 0.336826
H156  H     H_    0.588884 0.157459 0.794553 0.252279
H157  H     H_    0.570288 0.252468 0.808143 0.265825
H158  H     H_    0.233424 0.448788 0.938076 0.158537
H159  H     H_    0.169674 0.411520 0.885535 0.128982
H160  H     H_    0.247789 0.456075 0.801823 0.260709
H161  H     H_    0.215638 0.528257 0.850009 0.207483
H162  H     H_    0.308729 0.496320 0.855812 0.258419
H163  H     H_    0.172306 0.917575 0.825620 0.152196
H164  H     H_    0.194641 0.830572 0.793258 0.191554
H165  H     H_    0.320036 0.876227 0.769446 0.263311
H166  H     H_    0.331775 0.089802 0.794672 0.338368
H167  H     H_    0.247084 0.923981 0.731704 0.227786
H168  H     H_    0.292004 0.965010 0.794816 0.252563
H169  H     H_    0.776598 0.577021 0.816032 0.160066
H170  H     H_    0.709511 0.648174 0.807718 0.174844
H171  H     H_    0.623182 0.578115 0.871036 0.284659
H172  H     H_    0.653037 0.526516 0.806885 0.196042
H173  H     H_    0.690693 0.507046 0.879734 0.259090
H174  H     H_    0.789413 0.911423 0.564861 0.149313
H175  H     H_    0.837889 0.849992 0.614358 0.165964
H176  H     H_    0.775857 0.902987 0.701283 0.261200
O1    O     O_3   0.500000 1.000000 0.500000 -0.510834
O2    O     O_R   0.560750 0.000000 0.867980 -0.627397
O3    O     O_3   0.755957 0.633218 0.893825 -0.596332
O4    O     O_3   0.726359 0.830089 0.604581 -0.582359
O5    O     O_3   0.157866 0.737236 0.599866 -0.580257
O6    O     O_3   0.278652 0.171968 0.606932 -0.583826
O7    O     O_3   0.870357 0.235268 0.578135 -0.572791
O8    O     O_3   0.271288 0.834463 0.603811 -0.601231
O9    O     O_3   0.818118 0.710540 0.607670 -0.584707
O10   O     O_3   0.757511 0.137046 0.585901 -0.588518
O11   O     O_3   0.179370 0.287525 0.609248 -0.601473
O12   O     O_3   0.192541 0.303304 0.109447 -0.619118
O13   O     O_R   1.000000 0.560750 0.867980 -0.619411
O14   O     O_3   0.660305 0.234026 0.102768 -0.587009
O15   O     O_3   0.786368 0.678055 0.108361 -0.598894
O16   O     O_3   0.374899 0.730457 0.072126 -0.566245
O17   O     O_3   0.772709 0.333543 0.106285 -0.604712
O18   O     O_3   0.298857 0.191460 0.110544 -0.599807
O19   O     O_3   0.265491 0.630482 0.078589 -0.584043
O20   O     O_3   0.686075 0.794196 0.109925 -0.603796
O21   O     O_R   0.439250 0.000000 0.867980 -0.625233
O22   O     O_R   0.560720 0.000000 0.632020 -0.639212
O23   O     O_R   1.000000 0.560720 0.632020 -0.640817
O24   O     O_R   0.439280 0.000000 0.632020 -0.644471
O25   O     O_R   1.000000 0.439280 0.632020 -0.633730
O26   O     O_R   0.060720 0.500000 0.132020 -0.648655
O27   O     O_R   0.500000 0.060720 0.132020 -0.641283
O28   O     O_R   0.939280 0.500000 0.132020 -0.643999
O29   O     O_3   1.000000 0.500000 0.500000 -0.512475
O30   O     O_R   0.500000 0.939280 0.132020 -0.623375
O31   O     O_R   0.585450 0.146130 0.465380 -0.629407
O32   O     O_R   0.853870 0.585450 0.465380 -0.618840
O33   O     O_R   0.414550 0.853870 0.465380 -0.638969
O34   O     O_R   0.146130 0.414550 0.465380 -0.599564
O35   O     O_R   0.414550 0.146130 0.465380 -0.597189
O36   O     O_R   0.146130 0.585450 0.465380 -0.637247
O37   O     O_R   0.585450 0.853870 0.465380 -0.593998
O38   O     O_R   0.853870 0.414550 0.465380 -0.632011
O39   O     O_R   0.085450 0.646130 0.965380 -0.628900
O40   O     O_3   1.000000 0.500000 0.000000 -0.512500
O41   O     O_R   0.353870 0.085450 0.965380 -0.623863
O42   O     O_R   0.914550 0.353870 0.965380 -0.610805
O43   O     O_R   0.646130 0.914550 0.965380 -0.606773
O44   O     O_R   0.914550 0.646130 0.965380 -0.620981
O45   O     O_R   0.646130 0.085450 0.965380 -0.634127
O46   O     O_R   0.085450 0.353870 0.965380 -0.601844
O47   O     O_R   0.353870 0.914550 0.965380 -0.637860
O48   O     O_R   0.353850 0.914510 0.534610 -0.622709
O49   O     O_R   0.085490 0.353850 0.534610 -0.629171
O50   O     O_R   0.646150 0.085490 0.534610 -0.608386
O51   O     O_3   0.500000 0.000000 0.000000 -0.515328
O52   O     O_R   0.914510 0.646150 0.534610 -0.619465
O53   O     O_R   0.646150 0.914510 0.534610 -0.624198
O54   O     O_R   0.914510 0.353850 0.534610 -0.606611
O55   O     O_R   0.353850 0.085490 0.534610 -0.627988
O56   O     O_R   0.085490 0.646150 0.534610 -0.620971
O57   O     O_R   0.853850 0.414510 0.034610 -0.631872
O58   O     O_R   0.585490 0.853850 0.034610 -0.636298
O59   O     O_R   0.146150 0.585490 0.034610 -0.625477
O60   O     O_R   0.414510 0.146150 0.034610 -0.614734
O61   O     O_R   0.146150 0.414510 0.034610 -0.638212
O62   O     O_R   0.500000 0.939250 0.367980 -0.639249
O63   O     O_R   0.414510 0.853850 0.034610 -0.607634
O64   O     O_R   0.853850 0.585490 0.034610 -0.618219
O65   O     O_R   0.585490 0.146150 0.034610 -0.620826
O66   O     O_2   0.771610 0.617980 0.349713 -0.599702
O67   O     O_R   0.810431 0.700071 0.281351 -0.815745
O68   O     O_2   0.432031 0.720647 0.393818 -0.547518
O69   O     O_R   0.383604 0.716144 0.300488 -0.827142
O70   O     O_2   0.288247 0.424996 0.399937 -0.517341
O71   O     O_R   0.299474 0.376756 0.307267 -0.845065
O72   O     O_2   0.540194 0.291472 0.466432 -0.555393
O73   O     O_R   0.060750 0.500000 0.367980 -0.640056
O74   O     O_R   0.542701 0.365153 0.385185 -0.822034
O75   O     O_2   0.334646 0.589448 0.389402 -0.535945
O76   O     O_R   0.226797 0.559030 0.349701 -0.735176
O77   O     O_2   0.671753 0.779642 0.291575 -0.654209
O78   O     O_R   0.596058 0.750481 0.367594 -0.714811
O79   O     O_2   0.640641 0.429688 0.482360 -0.576123
O80   O     O_R   0.718596 0.492163 0.425135 -0.693537
O81   O     O_2   0.342522 0.218042 0.294961 -0.616591
O82   O     O_R   0.413965 0.253653 0.372124 -0.773346
O83   O     O_2   0.225105 0.138546 0.842080 -0.595849
O84   O     O_R   0.500000 0.060750 0.367980 -0.656290
O85   O     O_R   0.345535 0.133160 0.820059 -0.804366
O86   O     O_2   0.942677 0.216849 0.911260 -0.532897
O87   O     O_R   0.901837 0.190717 0.818144 -0.853390
O88   O     O_2   0.722257 0.879492 0.848331 -0.526480
O89   O     O_R   0.693666 0.791690 0.780947 -0.823336
O90   O     O_2   0.039754 0.793398 0.981444 -0.593754
O91   O     O_R   0.032871 0.868743 0.901437 -0.812446
O92   O     O_2   0.830311 0.081296 0.893869 -0.545821
O93   O     O_R   0.723593 0.062834 0.847616 -0.701547
O94   O     O_2   0.201130 0.295897 0.787190 -0.669438
O95   O     O_R   0.939250 0.500000 0.367980 -0.635758
O96   O     O_R   0.110176 0.272651 0.853061 -0.729550
O97   O     O_2   0.142733 0.935446 0.985459 -0.579490
O98   O     O_R   0.218227 0.993186 0.922847 -0.703973
O99   O     O_2   0.875549 0.673474 0.828798 -0.629103
O100  O     O_R   0.864679 0.795007 0.842904 -0.784045
O101  O     O_3   0.858791 0.776465 0.394065 -0.590802
O102  O     O_3   0.273398 0.814425 0.362806 -0.601407
O103  O     O_3   0.162400 0.301999 0.375104 -0.593634
O104  O     O_3   0.667627 0.243568 0.362532 -0.597186
O105  O     O_3   0.178697 0.706745 0.367223 -0.611550
O106  O     O_R   1.000000 0.439250 0.867980 -0.650747
O107  O     O_3   0.744741 0.865127 0.391175 -0.612987
O108  O     O_3   0.760151 0.357004 0.368858 -0.577899
O109  O     O_3   0.229162 0.177053 0.370224 -0.577625
O110  O     O_3   0.370003 0.253651 0.894267 -0.592503
O111  O     O_3   0.793987 0.314998 0.873907 -0.608174
O112  O     O_3   0.642228 0.720551 0.892932 -0.595007
O113  O     O_3   0.153341 0.744132 0.869382 -0.602524
O114  O     O_3   0.684905 0.212283 0.872908 -0.594154
O115  O     O_3   0.275469 0.362758 0.890157 -0.602055
O116  O     O_3   0.253269 0.854465 0.869756 -0.582358
Zn1   Zn    Zn3+2 0.586760 1.000000 0.549450 0.999064
Zn2   Zn    Zn3+2 0.913280 0.500000 0.450540 0.990276
Zn3   Zn    Zn3+2 0.500000 0.913280 0.450540 1.001176
Zn4   Zn    Zn3+2 0.086720 0.500000 0.450540 1.011219
Zn5   Zn    Zn3+2 1.000000 0.586720 0.950540 1.006335
Zn6   Zn    Zn3+2 0.413280 0.000000 0.950540 0.998147
Zn7   Zn    Zn3+2 1.000000 0.413280 0.950540 1.007392
Zn8   Zn    Zn3+2 0.586720 0.000000 0.950540 1.017057
Zn9   Zn    Zn3+2 1.000000 0.586760 0.549450 0.966309
Zn10  Zn    Zn3+2 0.413240 1.000000 0.549450 0.962444
Zn11  Zn    Zn3+2 1.000000 0.413240 0.549450 0.987939
Zn12  Zn    Zn3+2 0.086760 0.500000 0.049450 0.959362
Zn13  Zn    Zn3+2 0.500000 0.086760 0.049450 0.995163
Zn14  Zn    Zn3+2 0.913240 0.500000 0.049450 0.985330
Zn15  Zn    Zn3+2 0.500000 0.913240 0.049450 0.975250
Zn16  Zn    Zn3+2 0.500000 0.086720 0.450540 0.984937

loop_
_geom_bond_atom_site_label_1
_geom_bond_atom_site_label_2
_ccdc_geom_bond_type
O60   Zn13  S    
C16   C173  S    
C89   C148  S    
C71   H45   S    
C142  C146  A    
C82   H73   S    
C19   C20   S    
C170  O114  S    
C39   O112  S    
O51   Zn13  S    
C22   H101  S    
C45   H159  S    
C65   H32   S    
C23   C25   S    
C9    O87   S    
C93   C121  S    
C83   H76   S    
C96   C99   A    
C35   O35   A    
C126  C143  A    
C105  C123  A    
C114  C131  A    
C43   O114  S    
C81   H71   S    
O51   Zn8   S    
C4    O76   S    
C27   H112  S    
C64   H29   S    
C5    O77   D    
C109  C127  A    
O30   Zn15  S    
O41   Zn6   S    
C84   H80   S    
C3    O74   S    
C35   C115  S    
O63   Zn15  S    
C112  C129  A    
C97   C115  A    
O48   Zn10  S    
C48   H163  S    
C140  O14   S    
C56   O6    S    
C59   C60   S    
C21   C22   S    
C21   H98   S    
C8    O83   D    
C96   C114  A    
C42   H151  S    
C30   H119  S    
C157  O101  S    
C45   C47   S    
C2    C118  S    
C155  O30   A    
C24   C120  S    
C69   H42   S    
C14   O94   D    
C160  C163  S    
C36   H134  S    
C63   H28   S    
C92   C123  S    
C61   H21   S    
C18   H90   S    
C33   H128  S    
C144  O26   A    
C87   O60   A    
C72   C73   S    
C98   C102  A    
C58   H12   S    
O84   Zn16  S    
C76   H61   S    
C2    O32   A    
O106  Zn7   S    
C43   C44   S    
C62   H25   S    
C37   C38   S    
O29   Zn2   S    
O57   Zn14  S    
C97   C164  S    
C131  O5    S    
C168  O112  S    
O25   Zn11  S    
O21   Zn6   S    
C34   O110  S    
C12   O93   S    
C50   O3    S    
C97   C103  A    
C40   H143  S    
C127  C145  A    
C104  C171  S    
C11   O91   S    
C94   O47   A    
C11   C169  S    
C164  O109  S    
C77   H62   S    
C107  C110  A    
C38   H140  S    
H1    O67   S    
C120  C138  A    
C6    O79   D    
C25   H105  S    
H68   O100  S    
C118  C136  A    
C22   H99   S    
C174  O66   D    
O73   Zn4   S    
O40   Zn14  S    
C38   H138  S    
C74   H55   S    
C52   H174  S    
C90   O58   A    
C165  O110  S    
H2    O87   S    
O58   Zn15  S    
C66   H37   S    
C159  O103  S    
C32   O109  S    
O51   Zn6   S    
C40   H146  S    
C5    C162  S    
C27   H110  S    
C37   O111  S    
C49   H168  S    
H57   O98   S    
H89   O69   S    
C106  C173  S    
C3    O72   D    
C41   H148  S    
C151  C153  T    
C144  C154  S    
C70   H44   S    
C34   H130  S    
C141  C147  A    
C15   C172  S    
C110  C169  S    
C50   H169  S    
C6    C163  S    
C10   C168  S    
C106  C124  A    
C74   O15   S    
C4    C161  S    
C108  C126  A    
C157  C162  S    
C86   H86   S    
C42   H149  S    
C102  C119  A    
C7    O82   S    
C110  C128  A    
C146  O19   S    
C165  C171  S    
O33   Zn3   S    
C2    O52   A    
O2    Zn8   S    
O54   Zn11  S    
C140  C143  A    
C76   O16   S    
C73   H53   S    
C144  O28   A    
C141  O15   S    
C85   C86   S    
C59   H17   S    
C93   O61   A    
C63   H27   S    
C147  O20   S    
C101  C118  A    
C62   H23   S    
O29   Zn4   S    
C78   C80   S    
O39   Zn5   S    
C139  O12   S    
C39   H142  S    
C90   C129  S    
C172  O116  S    
C58   H14   S    
C77   H64   S    
C55   H8    S    
C66   H34   S    
C79   O39   A    
C26   H108  S    
C162  O107  S    
C136  O9    S    
O26   Zn12  S    
O56   Zn9   S    
C142  O16   S    
C67   O11   S    
O59   Zn12  S    
C69   H40   S    
C32   H126  S    
C39   H141  S    
C53   H3    S    
H133  O78   S    
C90   O43   A    
C115  C132  A    
C64   H31   S    
C78   H65   S    
C129  C147  A    
C113  C130  A    
C15   O97   D    
C84   H81   S    
C107  C125  A    
C26   H109  S    
C160  O104  S    
C29   H117  S    
C39   C40   S    
C23   H103  S    
C57   C113  S    
O40   Zn5   S    
O62   Zn3   S    
H35   O93   S    
C122  C152  S    
C46   O56   A    
C143  O17   S    
C94   O63   A    
C99   C117  A    
C10   O88   D    
C83   C84   S    
C20   H95   S    
C56   H11   S    
C17   C18   S    
C54   H5    S    
C76   H60   S    
C85   H83   S    
O34   Zn4   S    
C29   H116  S    
C86   H84   S    
H122  O76   S    
C71   H48   S    
C161  O105  S    
C44   H157  S    
C159  C176  S    
H46   O96   S    
C124  C141  A    
C12   O92   D    
C155  C156  S    
C10   O89   S    
C176  O70   D    
C52   C53   S    
C47   H162  S    
C54   C55   S    
C9    O86   D    
C82   H74   S    
C14   C171  S    
C21   H97   S    
O42   Zn7   S    
C22   H102  S    
C17   O101  S    
C45   H158  S    
O27   Zn13  S    
H111  O74   S    
C70   H43   S    
O55   Zn10  S    
C41   O113  S    
C121  C139  A    
C100  O13   A    
O47   Zn6   S    
C46   O36   A    
C128  C146  A    
C87   O41   A    
C68   O38   A    
C169  C172  S    
C56   C58   S    
C80   H70   S    
C61   C62   S    
C72   O14   S    
C8    C165  S    
C63   C64   S    
C49   H165  S    
C158  C175  S    
C61   O8    S    
C36   H135  S    
C159  C164  S    
C166  O50   A    
C67   H38   S    
C48   H164  S    
C60   H19   S    
C167  O111  S    
C51   H172  S    
C171  O115  S    
C41   C42   S    
C103  C120  A    
C169  O113  S    
C134  C137  A    
C98   C163  S    
C89   O95   A    
C30   H120  S    
O40   Zn7   S    
C44   H154  S    
C26   C27   S    
C148  C154  T    
C69   H41   S    
C28   C29   S    
C30   C31   S    
C33   H127  S    
C94   C125  S    
C78   O17   S    
C116  C134  A    
C132  C138  A    
C65   O10   S    
C75   H58   S    
C62   H26   S    
C19   O102  S    
C158  C161  S    
O43   Zn8   S    
C85   O20   S    
C139  C145  A    
C68   O54   A    
O61   Zn12  S    
H24   O91   S    
C1    C149  S    
C70   C71   S    
O36   Zn4   S    
H144  O80   S    
C30   O108  S    
O65   Zn13  S    
C174  O67   S    
C88   O57   A    
O29   Zn11  S    
C166  O31   A    
C101  C157  S    
C16   O99   D    
C72   H50   S    
C81   H72   S    
C59   H16   S    
C6    O80   S    
C100  O106  A    
C158  O102  S    
C50   H170  S    
C107  C172  S    
C105  C170  S    
C16   O100  S    
O37   Zn3   S    
C133  O25   A    
C19   H93   S    
C64   H30   S    
C81   O18   S    
C93   O46   A    
C38   H139  S    
C92   O65   A    
C43   H153  S    
C4    O75   D    
C32   H125  S    
C49   H167  S    
O40   Zn12  S    
C50   C51   S    
C130  O4    S    
C41   H147  S    
C27   H113  S    
C34   H131  S    
C109  C165  S    
O49   Zn11  S    
C48   C49   S    
C83   H77   S    
C24   O49   A    
O31   Zn16  S    
C102  C160  S    
C111  C150  S    
C20   H94   S    
C42   H150  S    
C7    O81   D    
C73   H51   S    
C44   H156  S    
H100  O71   S    
C155  O27   A    
O24   Zn10  S    
C37   H136  S    
C48   O116  S    
C28   H115  S    
C61   H22   S    
C73   H52   S    
C13   C117  S    
C80   H67   S    
C63   O9    S    
C7    C164  S    
C36   H132  S    
C32   C33   S    
O95   Zn2   S    
C134  O7    S    
C57   O37   A    
O64   Zn14  S    
O22   Zn1   S    
C175  O69   S    
O53   Zn1   S    
C26   O105  S    
C122  O24   A    
C58   H15   S    
C77   H63   S    
C55   H7    S    
C25   H106  S    
C52   O4    S    
O32   Zn2   S    
C8    O85   S    
C79   C128  S    
C31   H121  S    
C67   H39   S    
C74   H54   S    
C87   C127  S    
C81   C82   S    
C60   H18   S    
C106  C112  A    
O1    Zn10  S    
C92   O45   A    
C88   O42   A    
C91   O64   A    
C78   H66   S    
C51   H173  S    
C133  C153  S    
C149  C156  T    
C95   C113  A    
C131  C135  A    
C40   H145  S    
O45   Zn8   S    
C104  C109  A    
C112  C168  S    
C18   H91   S    
O23   Zn9   S    
C96   C161  S    
C5    O78   S    
H155  O82   S    
C88   C126  S    
C28   O107  S    
O35   Zn16  S    
C43   H152  S    
H166  O85   S    
C54   H6    S    
C75   H59   S    
C85   H82   S    
C20   H96   S    
C86   H85   S    
C34   C36   S    
C111  O21   A    
C59   O7    S    
H13   O89   S    
C89   O73   A    
C70   O12   S    
C75   H56   S    
C133  O23   A    
C175  O68   D    
C167  C170  S    
C47   H161  S    
C100  C151  S    
C168  C173  S    
O46   Zn7   S    
C105  C108  A    
C71   H47   S    
C74   C75   S    
C46   C114  S    
C79   O59   A    
C91   O44   A    
C119  C137  A    
C24   O34   A    
C82   H75   S    
C9    C167  S    
C76   C77   S    
C13   O33   A    
C31   H124  S    
C95   C162  S    
O51   Zn15  S    
C12   C170  S    
C104  C121  A    
C111  O2    A    
C123  C140  A    
C37   H137  S    
C67   C69   S    
C132  O6    S    
C17   H87   S    
O52   Zn9   S    
C18   H88   S    
C83   O19   S    
C11   O90   D    
C54   O5    S    
C98   C116  A    
C125  C142  A    
C122  O22   A    
O1    Zn16  S    
C138  O11   S    
C176  O71   S    
C119  C166  S    
C45   O115  S    
C31   H123  S    
C1    O62   A    
C108  C167  S    
C68   C116  S    
C145  O18   S    
C91   C124  S    
C84   H78   S    
C3    C160  S    
C1    O84   A    
C150  C152  T    
C25   H107  S    
C33   H129  S    
C53   H4    S    
C60   H20   S    
C52   H175  S    
C173  O3    S    
C13   O48   A    
C17   H79   S    
C51   H171  S    
C137  O10   S    
C15   O98   S    
C65   H33   S    
C130  C136  A    
C56   H10   S    
C57   O53   A    
C29   H118  S    
O28   Zn14  S    
C23   H104  S    
O29   Zn9   S    
C157  C174  S    
O38   Zn2   S    
C72   H49   S    
C14   O96   S    
C28   H114  S    
C53   H176  S    
C103  C159  S    
C35   O55   A    
C47   H160  S    
C21   O103  S    
C135  O8    S    
C55   H9    S    
C163  O108  S    
O50   Zn1   S    
O13   Zn5   S    
C95   C101  A    
O44   Zn5   S    
C65   C66   S    
O1    Zn3   S    
C99   C158  S    
C80   H69   S    
O1    Zn1   S    
C66   H36   S    
C23   O104  S    
C19   H92   S    
C117  C135  A    
