data_mof_unit_51364.cif
_audit_creation_date              2012-12-11T14:45:24-0500
_audit_creation_method            fapswitch 2.2
_symmetry_space_group_name_H-M    P1
_symmetry_Int_Tables_number       1
_space_group_crystal_system       triclinic
_cell_length_a                    25.082387
_cell_length_b                    7.180506
_cell_length_c                    14.366499
_cell_angle_alpha                 89.994992
_cell_angle_beta                  103.435585
_cell_angle_gamma                 89.977398
_cell_volume                      2516.65257616

loop_
_atom_site_label
_atom_site_type_symbol
_atom_type_description
_atom_site_fract_x
_atom_site_fract_y
_atom_site_fract_z
_atom_type_partial_charge
O1    O     O_R   0.319150 0.364170 0.330530 -0.541663
O2    O     O_R   0.680850 0.635830 0.669470 -0.541663
O3    O     O_R   0.180850 0.864170 0.169470 -0.541789
O4    O     O_R   0.819150 0.135830 0.830530 -0.541789
O5    O     O_R   0.210330 0.696850 0.354180 -0.544651
O6    O     O_R   0.789670 0.303150 0.645820 -0.544652
O7    O     O_R   0.289670 0.196850 0.145820 -0.544637
O8    O     O_R   0.710330 0.803150 0.854180 -0.544637
C1    C     C_R   0.196835 0.525465 0.377192 0.736203
C2    C     C_R   0.803165 0.474534 0.622808 0.736203
C3    C     C_R   0.303157 0.025438 0.122797 0.736336
C4    C     C_R   0.696843 0.974562 0.877203 0.736336
O9    O     O_R   0.320550 0.694110 0.341970 -0.529811
O10   O     O_R   0.679450 0.305890 0.658030 -0.529811
O11   O     O_R   0.179450 0.194110 0.158030 -0.530043
O12   O     O_R   0.820550 0.805890 0.841970 -0.530043
O13   O     O_R   0.291860 0.861000 0.157170 -0.520597
O14   O     O_R   0.708140 0.139000 0.842830 -0.520597
O15   O     O_R   0.208140 0.361000 0.342830 -0.520463
O16   O     O_R   0.791860 0.639000 0.657170 -0.520463
C5    C     C_R   0.341916 0.526672 0.362709 0.704147
C6    C     C_R   0.658084 0.473328 0.637291 0.704147
C7    C     C_R   0.158080 0.026759 0.137286 0.704250
C8    C     C_R   0.841920 0.973241 0.862714 0.704250
O17   O     O_3   0.240460 0.529330 0.189380 -0.377771
O18   O     O_3   0.759540 0.470670 0.810620 -0.377771
O19   O     O_3   0.259540 0.029330 0.310620 -0.377528
O20   O     O_3   0.740460 0.970670 0.689380 -0.377528
V1    V     V_3+5 0.251770 0.805510 0.261240 1.492020
V2    V     V_3+5 0.748230 0.194490 0.738760 1.492019
V3    V     V_3+5 0.248230 0.305510 0.238760 1.491870
V4    V     V_3+5 0.751770 0.694490 0.761240 1.491870
C9    C     C_R   0.102375 0.028863 0.073015 -0.048518
C10   C     C_R   0.897625 0.971137 0.926985 -0.048518
C11   C     C_R   0.397596 0.528456 0.427048 -0.048337
C12   C     C_R   0.602404 0.471544 0.572952 -0.048337
C13   C     C_R   0.965887 0.805121 0.047606 -0.162538
C14   C     C_R   0.034113 0.194879 0.952394 -0.162538
C15   C     C_R   0.534391 0.307010 0.451349 -0.161591
C16   C     C_R   0.465609 0.692990 0.548651 -0.161590
C17   C     C_R   0.911980 0.826820 0.994713 -0.143315
C18   C     C_R   0.088020 0.173180 0.005287 -0.143315
C19   C     C_R   0.588261 0.328543 0.504444 -0.143951
C20   C     C_R   0.411739 0.671457 0.495556 -0.143951
C21   C     C_R   0.938386 0.096332 0.914365 -0.194196
C22   C     C_R   0.061614 0.903668 0.085635 -0.194196
C23   C     C_R   0.561472 0.595557 0.586230 -0.193120
C24   C     C_R   0.438528 0.404443 0.413770 -0.193120
C25   C     C_R   0.993020 0.073715 0.966570 0.154705
C26   C     C_R   0.006980 0.926285 0.033429 0.154705
C27   C     C_R   0.506874 0.573047 0.533848 0.154432
C28   C     C_R   0.493126 0.426953 0.466152 0.154432
H1    H     H_    0.071911 0.793757 0.138538 0.151755
H2    H     H_    0.928089 0.206243 0.861462 0.151755
H3    H     H_    0.428383 0.295620 0.360237 0.151699
H4    H     H_    0.571617 0.704380 0.639763 0.151699
H5    H     H_    0.118606 0.271878 0.994180 0.122603
H6    H     H_    0.881394 0.728122 0.005820 0.122603
H7    H     H_    0.381006 0.769216 0.507136 0.122060
H8    H     H_    0.618994 0.230783 0.492864 0.122060
H9    H     H_    0.975527 0.691980 0.098717 0.139786
H10   H     H_    0.024473 0.308020 0.901283 0.139786
H11   H     H_    0.524913 0.194923 0.399588 0.139521
H12   H     H_    0.475087 0.805077 0.600412 0.139521
C29   C     C_R   0.662988 0.982831 0.947159 -0.057559
C30   C     C_R   0.337012 0.017169 0.052841 -0.057558
C31   C     C_R   0.837017 0.482697 0.552844 -0.057495
C32   C     C_R   0.162983 0.517302 0.447156 -0.057495
C33   C     C_R   0.658041 0.003463 0.112373 -0.152540
C34   C     C_R   0.341959 0.996537 0.887627 -0.152540
C35   C     C_R   0.841963 0.502272 0.387605 -0.152586
C36   C     C_R   0.158037 0.497728 0.612395 -0.152586
C37   C     C_R   0.688578 0.976427 0.044329 -0.225034
C38   C     C_R   0.311422 0.023573 0.955671 -0.225034
C39   C     C_R   0.811442 0.475552 0.455691 -0.224899
C40   C     C_R   0.188558 0.524448 0.544309 -0.224899
C41   C     C_R   0.605696 0.004901 0.917099 0.170259
C42   C     C_R   0.394304 0.995099 0.082901 0.170259
C43   C     C_R   0.894291 0.505163 0.582868 0.170393
C44   C     C_R   0.105709 0.494837 0.417132 0.170393
C45   C     C_R   0.573238 0.999546 0.986534 0.038247
C46   C     C_R   0.426762 0.000454 0.013466 0.038247
C47   C     C_R   0.926760 0.499454 0.513456 0.038308
C48   C     C_R   0.073240 0.500546 0.486544 0.038308
C49   C     C_R   0.600908 0.019301 0.084221 0.103914
C50   C     C_R   0.399092 0.980699 0.915779 0.103914
C51   C     C_R   0.899083 0.518486 0.415733 0.103877
C52   C     C_R   0.100917 0.481513 0.584267 0.103877
C53   C     C_R   0.514797 0.982438 0.963969 0.067116
C54   C     C_R   0.485203 0.017562 0.036031 0.067116
C55   C     C_R   0.985213 0.482637 0.536061 0.067101
C56   C     C_R   0.014787 0.517362 0.463938 0.067101
C57   C     C_R   0.514846 0.078444 0.126365 -0.119509
C58   C     C_R   0.485154 0.921556 0.873635 -0.119509
C59   C     C_R   0.985107 0.577585 0.373488 -0.119408
C60   C     C_R   0.014893 0.422415 0.626512 -0.119408
C61   C     C_R   0.571525 0.065257 0.152243 -0.179777
C62   C     C_R   0.428475 0.934743 0.847757 -0.179778
C63   C     C_R   0.928438 0.564078 0.347629 -0.179763
C64   C     C_R   0.071562 0.435922 0.652370 -0.179763
H13   H     H_    0.592647 0.099040 0.225032 0.123281
H14   H     H_    0.407353 0.900960 0.774968 0.123281
H15   H     H_    0.907297 0.597322 0.274775 0.123377
H16   H     H_    0.092703 0.402678 0.725225 0.123377
H17   H     H_    0.267296 0.037880 0.932756 0.112400
H18   H     H_    0.732704 0.962120 0.067243 0.112400
H19   H     H_    0.232670 0.539104 0.567202 0.112402
H20   H     H_    0.767330 0.460896 0.432798 0.112402
H21   H     H_    0.679122 0.012636 0.187185 0.121088
H22   H     H_    0.320878 0.987364 0.812815 0.121088
H23   H     H_    0.820882 0.510872 0.312777 0.121094
H24   H     H_    0.179118 0.489128 0.687223 0.121094
H25   H     H_    0.494929 0.139242 0.177906 0.169692
H26   H     H_    0.505071 0.860758 0.822094 0.169692
H27   H     H_    0.004984 0.638109 0.321835 0.169887
H28   H     H_    0.995016 0.361891 0.678165 0.169887
Br1   Br    Br    0.422656 0.908163 0.213157 -0.610372
Br2   Br    Br    0.577344 0.091837 0.786843 -0.610372
Br3   Br    Br    0.077425 0.407059 0.287043 -0.610361
Br4   Br    Br    0.922575 0.592941 0.712957 -0.610361

loop_
_geom_bond_atom_site_label_1
_geom_bond_atom_site_label_2
_ccdc_geom_bond_type
O17   V3    S    
C24   H3    S    
C63   H15   S    
C36   H24   S    
O1    C5    A    
O19   V1    S    
O13   V1    S    
O3    C7    A    
C64   H16   S    
C44   C48   A    
O15   V3    S    
C58   H26   S    
O4    V2    S    
C14   C25   A    
C2    C31   S    
O7    C3    A    
C9    C18   A    
O9    V1    S    
C17   H6    S    
C14   C18   A    
O4    C8    A    
C59   C63   A    
C58   C62   A    
C20   H7    S    
C30   C38   A    
O1    V3    S    
C29   C37   A    
C12   C23   A    
O2    V4    S    
C53   C58   A    
O3    V1    S    
C34   C38   A    
C34   H22   S    
C55   C60   A    
C33   H21   S    
C1    O15   A    
C59   H27   S    
C7    C9    S    
C35   H23   S    
O2    C6    A    
C33   C37   A    
O14   V2    S    
C21   C25   A    
C16   C20   A    
O5    V1    S    
C3    C30   S    
C36   C40   A    
C45   C53   A    
O11   C7    A    
C15   C28   A    
C44   Br3   S    
C39   H20   S    
O12   C8    A    
C9    C22   A    
C10   C17   A    
O10   V2    S    
C11   C24   A    
C18   H5    S    
C36   C52   A    
C51   C63   A    
C30   C42   A    
C29   C41   A    
C27   C28   A    
O8    V4    S    
C42   Br1   S    
O7    V3    S    
C41   Br2   S    
C2    O16   A    
C55   C56   A    
O18   V4    S    
C15   C19   A    
C46   C50   A    
C56   C59   A    
C8    C10   S    
O5    C1    A    
C42   C46   A    
C13   H9    S    
C6    C12   S    
C41   C45   A    
O8    C4    A    
C43   Br4   S    
O9    C5    A    
C10   C21   A    
C57   H25   S    
C32   C40   A    
C11   C20   A    
C52   C64   A    
C19   H8    S    
C35   C51   A    
O6    V2    S    
C21   H2    S    
C40   H19   S    
C31   C39   A    
C32   C44   A    
C34   C50   A    
C57   C61   A    
C33   C49   A    
C54   C57   A    
O16   V4    S    
C3    O13   A    
C48   C52   A    
C46   C54   A    
C47   C51   A    
O6    C2    A    
C23   C27   A    
O11   V3    S    
C5    C11   S    
O12   V4    S    
C16   C27   A    
C15   H11   S    
C4    C29   S    
C22   C26   A    
C16   H12   S    
O10   C6    A    
O20   V2    S    
C1    C32   S    
C62   H14   S    
C38   H17   S    
C35   C39   A    
C13   C26   A    
C37   H18   S    
C60   C64   A    
C22   H1    S    
C47   C55   A    
C13   C17   A    
C50   C62   A    
C45   C49   A    
C49   C61   A    
C43   C47   A    
C24   C28   A    
C25   C26   A    
C4    O14   A    
C60   H28   S    
C12   C19   A    
C48   C56   A    
C53   C54   A    
C31   C43   A    
C61   H13   S    
C23   H4    S    
C14   H10   S    
