data_mof_unit_32108.cif
_audit_creation_date              2012-12-11T16:17:56-0500
_audit_creation_method            fapswitch 2.2
_symmetry_space_group_name_H-M    P1
_symmetry_Int_Tables_number       1
_space_group_crystal_system       triclinic
_cell_length_a                    14.017599
_cell_length_b                    14.072002
_cell_length_c                    30.113909
_cell_angle_alpha                 97.209525
_cell_angle_beta                  97.116977
_cell_angle_gamma                 61.405355
_cell_volume                      5160.46107365

loop_
_atom_site_label
_atom_site_type_symbol
_atom_type_description
_atom_site_fract_x
_atom_site_fract_y
_atom_site_fract_z
_atom_type_partial_charge
C1    C     C_R   0.385115 0.712308 0.442776 0.553195
C2    C     C_R   0.805437 0.263330 0.379581 0.204184
C3    C     C_R   0.824183 0.243600 0.333826 -0.098784
C4    C     C_R   0.399104 0.381282 0.426330 0.537931
C5    C     C_R   0.801477 0.329306 0.308341 -0.017130
C6    C     C_R   0.766719 0.433881 0.328446 -0.118379
C7    C     C_R   0.746908 0.455001 0.373489 -0.169356
C8    C     C_R   0.821474 0.395832 0.157517 0.201522
C9    C     C_R   0.854118 0.387640 0.114587 -0.126251
C10   C     C_R   0.893846 0.198984 0.104779 -0.120887
C11   C     C_R   0.863187 0.205194 0.147843 0.236219
C12   C     C_R   0.416126 0.312062 0.220238 -0.137517
C13   C     C_R   0.830834 0.302989 0.174868 0.009853
C14   C     C_1   0.818566 0.305835 0.221583 0.145749
C15   C     C_1   0.811315 0.312620 0.261159 0.062928
C16   C     C_R   0.710279 0.405473 0.442458 0.564920
C17   C     C_R   0.894242 0.288460 0.088680 -0.075673
C18   C     C_R   0.361212 0.775749 0.403650 0.017096
C19   C     C_R   0.436761 0.805968 0.391215 0.135413
C20   C     C_R   0.427620 0.834828 0.346950 0.159064
C21   C     C_R   0.338845 0.841403 0.317555 0.037794
C22   C     C_R   0.257915 0.824727 0.332094 -0.149352
C23   C     C_R   0.430332 0.312718 0.267121 0.147046
C24   C     C_R   0.269056 0.791721 0.374697 -0.146062
C25   C     C_R   0.239557 0.857557 0.156342 0.121588
C26   C     C_R   0.227061 0.876358 0.111100 -0.119149
C27   C     C_R   0.385366 0.907487 0.120153 0.130277
C28   C     C_R   0.389673 0.711768 0.568219 0.541580
C29   C     C_R   0.393401 0.896929 0.166723 0.137582
C30   C     C_R   0.319633 0.873424 0.184461 0.035253
C31   C     C_1   0.327211 0.865340 0.231797 0.025772
C32   C     C_1   0.332955 0.856882 0.271192 0.023136
C33   C     C_R   0.295970 0.905644 0.092968 -0.021391
C34   C     C_R   0.339234 0.346152 0.292043 0.035829
C35   C     C_R   0.361503 0.360513 0.591039 -0.003303
C36   C     C_R   0.429366 0.264714 0.612613 -0.153029
C37   C     C_R   0.406552 0.249689 0.654296 0.211458
C38   C     C_R   0.313568 0.331270 0.674439 -0.003898
C39   C     C_R   0.239796 0.421082 0.651393 -0.149703
C40   C     C_R   0.401722 0.383185 0.552407 0.549222
C41   C     C_R   0.263060 0.437498 0.610011 0.116220
C42   C     C_R   0.227755 0.410788 0.834233 -0.117911
C43   C     C_R   0.225458 0.399791 0.879704 0.205345
C44   C     C_R   0.373749 0.215050 0.870567 -0.173512
C45   C     C_R   0.312901 0.343084 0.198251 0.027110
C46   C     C_R   0.375403 0.227676 0.825811 -0.112917
C47   C     C_R   0.299663 0.323600 0.807264 -0.000097
C48   C     C_1   0.296942 0.330518 0.760255 0.033927
C49   C     C_1   0.300702 0.331513 0.720811 0.047868
C50   C     C_R   0.295082 0.297846 0.897546 0.014225
C51   C     C_1   0.763262 0.376661 0.612313 0.027401
C52   C     C_R   0.712939 0.408030 0.568524 0.558675
C53   C     C_R   0.883825 0.378246 0.723674 -0.037456
C54   C     C_R   0.904087 0.366057 0.770000 0.161677
C55   C     C_R   0.801518 0.264860 0.762886 -0.127974
C56   C     C_1   0.303405 0.326375 0.150259 -0.035918
C57   C     C_R   0.781816 0.277906 0.716866 -0.122471
C58   C     C_R   0.822854 0.334580 0.697227 0.003540
C59   C     C_R   0.862078 0.308802 0.789685 0.041007
C60   C     C_1   0.882364 0.293685 0.837038 -0.048125
C61   C     C_1   0.794765 0.355166 0.650608 -0.032852
C62   C     C_1   0.907868 0.281982 0.876448 -0.000967
C63   C     C_1   0.376103 0.758726 0.613491 0.037185
C64   C     C_1   0.367934 0.364730 0.380238 0.004157
C65   C     C_R   0.257272 0.844299 0.716922 -0.167313
C66   C     C_R   0.245231 0.860936 0.762833 -0.136459
C67   C     C_1   0.350984 0.354795 0.340248 -0.021842
C68   C     C_R   0.437469 0.811587 0.777730 0.144742
C69   C     C_R   0.450977 0.790309 0.730950 0.267774
C70   C     C_R   0.358896 0.809632 0.700710 -0.001746
C71   C     C_R   0.334260 0.844766 0.793366 0.000592
C72   C     C_1   0.315189 0.871884 0.840378 -0.052333
C73   C     C_1   0.367637 0.786340 0.652936 0.022237
C74   C     C_1   0.294130 0.902133 0.878868 -0.009328
C75   C     C_R   0.951084 0.272443 0.048256 0.547543
C76   C     C_R   0.235763 0.378121 0.270054 -0.127679
C77   C     C_R   0.275641 0.270352 0.065265 0.551977
C78   C     C_1   0.292500 0.305517 0.110661 -0.009885
C79   C     C_R   0.260824 0.954611 0.049245 0.561605
C80   C     C_R   0.952458 0.268974 0.922030 0.540852
C81   C     C_R   0.276665 0.266202 0.939462 0.570924
C82   C     C_R   0.261542 0.950900 0.922828 0.548145
C83   C     C_R   0.221671 0.377007 0.223098 0.143601
C84   C     C_3   0.178225 0.724115 0.158780 -0.278765
C85   C     C_3   0.490717 0.895309 0.455318 -0.274045
C86   C     C_3   0.577329 0.831839 0.201645 -0.242139
C87   C     C_3   0.493262 0.999351 0.110584 -0.241431
C88   C     C_3   0.062649 0.511888 0.183845 -0.250492
C89   C     C_R   0.760805 0.371720 0.399202 0.003506
C90   C     C_3   0.597787 0.757659 0.312497 -0.278282
C91   C     C_3   0.185736 0.632053 0.611649 -0.260560
C92   C     C_3   0.915100 0.527500 0.801717 -0.243323
C93   C     C_3   0.538397 0.899076 0.816700 -0.239255
C94   C     C_3   0.590654 0.168849 0.301171 -0.264312
Cr1   Cr    Cr6+3 0.581000 0.584320 0.508140 1.075809
Cr2   Cr    Cr6+3 0.339110 0.576430 0.496080 1.045518
Cr3   Cr    Cr6+3 0.579910 0.339270 0.495810 1.126229
Cr4   Cr    Cr6+3 0.082090 0.079210 0.982490 1.055041
Cr5   Cr    Cr6+3 0.082460 0.324610 0.994920 1.126707
Cr6   Cr    Cr6+3 0.323630 0.087860 0.996130 1.032537
H1    H     H_    0.165868 0.404623 0.289394 0.124678
H2    H     H_    0.433139 0.160750 0.805192 0.175555
H3    H     H_    0.429852 0.136873 0.883047 0.144301
H4    H     H_    0.915323 0.422197 0.708322 0.138335
H5    H     H_    0.486333 0.283965 0.200892 0.141693
H6    H     H_    0.769113 0.220864 0.777610 0.140802
H7    H     H_    0.733528 0.244858 0.696634 0.129737
H8    H     H_    0.187011 0.857262 0.693881 0.128847
H9    H     H_    0.165515 0.888155 0.774586 0.141739
H10   H     H_    0.852702 0.457230 0.102125 0.182252
H11   H     H_    0.750764 0.500142 0.308817 0.177816
H12   H     H_    0.923781 0.122059 0.084878 0.185169
H13   H     H_    0.713596 0.538534 0.387328 0.146148
H14   H     H_    0.765982 0.056725 0.203583 0.360531
H15   H     H_    0.154481 0.850385 0.207285 0.277334
H16   H     H_    0.114120 0.713119 0.172188 0.154591
H17   H     H_    0.259347 0.661149 0.171399 0.131811
H18   H     H_    0.169752 0.713614 0.121575 0.169604
H19   H     H_    0.595280 0.782729 0.409322 0.250843
H20   H     H_    0.464632 0.970745 0.438478 0.141452
H21   H     H_    0.560692 0.883420 0.479918 0.161746
H22   H     H_    0.422897 0.903932 0.473869 0.161493
H23   H     H_    0.854287 0.162095 0.317815 0.165535
H24   H     H_    0.463099 0.994459 0.194939 0.252654
H25   H     H_    0.618079 0.812907 0.170104 0.190045
H26   H     H_    0.575660 0.758881 0.210723 0.221909
H27   H     H_    0.625022 0.855697 0.228601 0.146252
H28   H     H_    0.539531 0.833791 0.095981 0.257445
H29   H     H_    0.563690 0.978513 0.135809 0.129676
H30   H     H_    0.420908 0.072229 0.123496 0.161620
H31   H     H_    0.515884 0.017888 0.080003 0.189360
H32   H     H_    0.066452 0.392239 0.218787 0.284518
H33   H     H_    0.043027 0.575761 0.212066 0.159437
H34   H     H_    0.159231 0.873333 0.090584 0.178536
H35   H     H_    0.985891 0.523632 0.164225 0.208770
H36   H     H_    0.114538 0.520373 0.161246 0.141560
H37   H     H_    0.533607 0.900659 0.353785 0.255980
H38   H     H_    0.654550 0.779914 0.299527 0.162449
H39   H     H_    0.567192 0.717683 0.284525 0.194066
H40   H     H_    0.643602 0.699145 0.338415 0.125267
H41   H     H_    0.178839 0.630092 0.890867 0.341835
H42   H     H_    0.112461 0.540452 0.581828 0.253178
H43   H     H_    0.145518 0.652296 0.643564 0.121442
H44   H     H_    0.138540 0.700319 0.589891 0.169107
H45   H     H_    0.189010 0.830982 0.309457 0.139187
H46   H     H_    0.269406 0.622346 0.619091 0.166384
H47   H     H_    0.580868 0.216762 0.719365 0.320570
H48   H     H_    0.007170 0.374105 0.825196 0.274427
H49   H     H_    0.971334 0.554499 0.821368 0.194993
H50   H     H_    0.840579 0.558157 0.820095 0.189629
H51   H     H_    0.893253 0.562808 0.768696 0.187458
H52   H     H_    0.530338 0.768902 0.838100 0.251615
H53   H     H_    0.466848 0.965388 0.833181 0.116776
H54   H     H_    0.546133 0.925303 0.784618 0.225945
H55   H     H_    0.613023 0.882857 0.838979 0.160009
H56   H     H_    0.208616 0.771878 0.383757 0.168448
H57   H     H_    0.598796 0.577287 0.689882 0.326598
H58   H     H_    0.585595 0.296923 0.272231 0.264565
H59   H     H_    0.670635 0.150835 0.319304 0.186704
H60   H     H_    0.541527 0.155734 0.323617 0.175413
H61   H     H_    0.604548 0.112043 0.270577 0.135879
H62   H     H_    0.602533 0.558317 0.180219 0.340181
H63   H     H_    0.948516 0.183046 0.460008 0.330056
H64   H     H_    0.172402 0.486465 0.819574 0.144106
H65   H     H_    0.167081 0.482298 0.666908 0.125491
H66   H     H_    0.503791 0.204057 0.598226 0.179303
N1    N     N_2   0.165268 0.831253 0.173484 -0.450140
N2    N     N_2   0.536245 0.279901 0.288965 -0.508720
N3    N     N_2   0.523077 0.803035 0.422552 -0.502958
N4    N     N_2   0.467877 0.919773 0.196866 -0.525853
N5    N     N_2   0.471326 0.908262 0.099572 -0.498421
N6    N     N_2   0.116735 0.405469 0.200964 -0.506691
N7    N     N_2   0.508205 0.854177 0.331367 -0.519684
N8    N     N_2   0.189296 0.533654 0.588820 -0.483964
N9    N     N_2   0.967988 0.410220 0.795920 -0.538031
N10   N     N_2   0.526562 0.801578 0.808730 -0.467166
O1    O     O_R   0.688580 0.499770 0.460490 -0.526895
O2    O     O_R   0.346150 0.177650 0.050510 -0.528576
O3    O     O_R   0.314200 0.996600 0.036060 -0.462602
O4    O     O_R   0.480400 0.672610 0.462660 -0.467265
O5    O     O_R   0.168690 0.969990 0.933130 -0.491495
O6    O     O_R   0.991920 0.175870 0.937430 -0.496530
O7    O     O_R   0.974010 0.342590 0.941330 -0.469294
O8    O     O_R   0.182630 0.317940 0.955040 -0.425119
O9    O     O_R   0.347320 0.174720 0.953250 -0.529828
O10   O     O_R   0.315290 0.993890 0.945900 -0.500732
O11   O     O_3   0.162730 0.163890 0.991180 -0.272116
O12   O     O_R   0.348600 0.476260 0.536540 -0.460364
O13   O     O_R   0.315310 0.685650 0.451800 -0.516262
O14   O     O_R   0.346220 0.474990 0.446280 -0.499305
O15   O     O_R   0.492270 0.312460 0.441630 -0.475726
O16   O     O_R   0.669740 0.350480 0.455640 -0.417133
O17   O     O_R   0.691150 0.501150 0.557860 -0.479560
O18   O     O_R   0.482790 0.673890 0.552920 -0.464285
O19   O     O_R   0.317880 0.687030 0.549170 -0.525598
O20   O     O_2   0.898292 0.998050 0.131874 -0.270364
O21   O     O_2   0.959825 0.051784 0.205992 -0.299871
O22   O     O_3   0.752178 0.120611 0.188045 -0.552838
O23   O     O_R   0.494840 0.313840 0.539010 -0.522391
O24   O     O_2   0.031345 0.511511 0.914104 -0.242892
O25   O     O_2   0.186390 0.517589 0.959334 -0.276234
O26   O     O_3   0.108124 0.629446 0.889212 -0.518432
O27   O     O_2   0.436987 0.078233 0.695038 -0.229639
O28   O     O_2   0.586156 0.053114 0.652265 -0.244316
O29   O     O_3   0.556587 0.167473 0.728938 -0.519865
O30   O     O_2   0.584061 0.823843 0.686154 -0.166664
O31   O     O_2   0.672325 0.701390 0.746391 -0.283040
O32   O     O_3   0.603227 0.630495 0.672715 -0.516129
O33   O     O_2   0.849861 0.514707 0.229428 -0.300804
O34   O     O_R   0.672120 0.351750 0.545910 -0.482943
O35   O     O_2   0.758114 0.609966 0.161733 -0.343587
O36   O     O_3   0.650906 0.552526 0.207809 -0.559859
O37   O     O_2   0.740259 0.137391 0.412023 -0.245264
O38   O     O_2   0.926297 0.048914 0.388660 -0.293824
O39   O     O_3   0.885846 0.170915 0.463382 -0.493631
O40   O     O_3   0.500010 0.500010 0.500010 -0.278879
O41   O     O_R   0.167510 0.972920 0.030390 -0.516207
O42   O     O_R   0.990840 0.178580 0.027590 -0.502389
O43   O     O_R   0.972840 0.345510 0.038590 -0.504960
O44   O     O_R   0.181550 0.320660 0.045200 -0.476265
S1    S     S_3+6 0.872023 0.088408 0.168348 -0.006836
S2    S     S_3+6 0.136097 0.515341 0.912378 0.010792
S3    S     S_3+6 0.498709 0.132004 0.682056 0.027102
S4    S     S_3+6 0.581708 0.737292 0.709863 0.039798
S5    S     S_3+6 0.771537 0.522210 0.189490 -0.064644
S6    S     S_3+6 0.839844 0.150910 0.410600 0.015498

loop_
_geom_bond_atom_site_label_1
_geom_bond_atom_site_label_2
_ccdc_geom_bond_type
C54   N9    S    
C25   C30   A    
C41   N8    S    
Cr4   O6    S    
C8    C13   A    
C88   N6    S    
C55   C59   A    
C27   C29   A    
C6    H11   S    
Cr2   O12   S    
C35   C36   A    
C51   C61   T    
C12   H5    S    
Cr6   O2    S    
C11   S1    S    
Cr5   O11   S    
C90   H39   S    
C68   N10   S    
H58   N2    S    
C39   C41   A    
C38   C49   S    
C85   H22   S    
C53   C54   A    
C27   C33   A    
C46   H2    S    
C82   O5    A    
C1    C18   S    
C94   H59   S    
C82   O10   A    
C18   C24   A    
C87   H30   S    
C62   C80   S    
C36   C37   A    
C88   H33   S    
O21   S1    D    
C30   C31   S    
C1    O4    A    
C42   H64   S    
C79   O41   A    
C86   H26   S    
C10   C17   A    
C87   H31   S    
C65   C70   A    
C7    C89   A    
C76   H1    S    
C28   O19   A    
C56   C78   T    
C60   C62   T    
C18   C19   A    
C80   O7    A    
Cr2   O14   S    
H47   O29   S    
O26   S2    S    
C44   C50   A    
O37   S6    D    
C16   O16   A    
H63   O39   S    
Cr1   O1    S    
Cr3   O16   S    
C66   C71   A    
C45   C56   S    
O30   S4    D    
C8    C9    A    
Cr3   O40   S    
C47   C48   S    
C28   O18   A    
C10   H12   S    
C80   O6    A    
C29   N4    S    
C29   C30   A    
C65   H8    S    
Cr5   O7    S    
O20   S1    D    
C58   C61   S    
C59   C60   S    
Cr1   O17   S    
C13   C14   S    
C86   H25   S    
C52   O34   A    
Cr1   O40   S    
C4    O15   A    
C45   C83   A    
H57   O32   S    
O33   S5    D    
O25   S2    D    
C74   C82   S    
C35   C41   A    
C76   C83   A    
C81   O9    A    
C90   H38   S    
C44   H3    S    
C3    H23   S    
C91   H43   S    
C54   C59   A    
Cr2   O19   S    
C92   N9    S    
C38   C39   A    
C21   C32   S    
H48   N9    S    
Cr3   O34   S    
C55   H6    S    
C51   C52   S    
C64   C67   T    
C4    O14   A    
C93   H55   S    
Cr6   O11   S    
H41   O26   S    
C88   H36   S    
H42   N8    S    
C94   N2    S    
C68   C69   A    
C44   C46   A    
C75   O42   A    
C25   C26   A    
C77   C78   S    
O29   S3    S    
C25   N1    S    
C91   N8    S    
C16   C89   S    
Cr2   O13   S    
C39   H65   S    
C2    C89   A    
Cr6   O10   S    
C28   C63   S    
H37   N7    S    
C37   C38   A    
C26   H34   S    
C26   C33   A    
C20   N7    S    
C12   C23   A    
C22   H45   S    
C75   O43   A    
C53   C58   A    
C23   C34   A    
C87   N5    S    
C83   N6    S    
O22   S1    S    
C70   C73   S    
C36   H66   S    
C7    H13   S    
O27   S3    D    
Cr3   O23   S    
C77   O44   A    
C20   C21   A    
C85   H21   S    
C94   H61   S    
C37   S3    S    
Cr5   O8    S    
O35   S5    D    
H19   N3    S    
O36   S5    S    
C72   C74   T    
C48   C49   T    
C57   H7    S    
Cr5   O43   S    
C92   H51   S    
Cr1   O18   S    
Cr4   O11   S    
C55   C57   A    
O28   S3    D    
C92   H50   S    
C79   O3    A    
C42   C43   A    
H15   N1    S    
C27   N5    S    
C84   H18   S    
C16   O1    A    
C2    S6    S    
C91   H44   S    
C9    C17   A    
C9    H10   S    
C46   C47   A    
C93   H54   S    
C94   H60   S    
C90   N7    S    
C86   H27   S    
C86   N4    S    
O31   S4    D    
C31   C32   T    
C33   C79   S    
C52   O17   A    
C19   N3    S    
C88   H35   S    
C12   C45   A    
C3    C5    A    
C34   C67   S    
C90   H40   S    
C8    S5    S    
C43   C50   A    
C6    C7    A    
C40   O12   A    
C40   O23   A    
O32   S4    S    
C63   C73   T    
C4    C64   S    
C93   N10   S    
C77   O2    A    
Cr2   O40   S    
C43   S2    S    
C69   S4    S    
O24   S2    D    
O39   S6    S    
C19   C20   A    
Cr4   O42   S    
C35   C40   S    
C71   C72   S    
C84   N1    S    
C11   C13   A    
C87   H29   S    
C57   C58   A    
C5    C6    A    
H62   O36   S    
Cr4   O5    S    
C68   C71   A    
C93   H53   S    
Cr6   O9    S    
C22   C24   A    
C42   C47   A    
C66   H9    S    
C69   C70   A    
O38   S6    D    
C85   N3    S    
C5    C15   S    
C10   C11   A    
C84   H17   S    
H32   N6    S    
C23   N2    S    
H52   N10   S    
C85   H20   S    
Cr1   O4    S    
Cr3   O15   S    
H24   N4    S    
Cr5   O44   S    
H28   N5    S    
C84   H16   S    
C65   C66   A    
H14   O22   S    
Cr4   O41   S    
C92   H49   S    
C17   C75   S    
C14   C15   T    
C2    C3    A    
C53   H4    S    
C81   O8    A    
C21   C22   A    
Cr6   O3    S    
C91   H46   S    
C24   H56   S    
C50   C81   S    
C34   C76   A    
C1    O13   A    
