data_mof_unit_63072.cif
_audit_creation_date              2012-12-10T19:57:51-0500
_audit_creation_method            fapswitch 2.2
_symmetry_space_group_name_H-M    P1
_symmetry_Int_Tables_number       1
_space_group_crystal_system       triclinic
_cell_length_a                    38.957308
_cell_length_b                    32.086412
_cell_length_c                    21.759272
_cell_angle_alpha                 90.597428
_cell_angle_beta                  124.555148
_cell_angle_gamma                 89.909281
_cell_volume                      22399.1205063

loop_
_atom_site_label
_atom_site_type_symbol
_atom_type_description
_atom_site_fract_x
_atom_site_fract_y
_atom_site_fract_z
_atom_type_partial_charge
C1    C     C_R   0.419288 0.499902 0.419252 0.911253
C2    C     C_R   0.706694 0.500277 0.706123 0.169073
C3    C     C_2   0.002232 0.005937 0.187233 -0.336511
C4    C     C_2   0.524444 0.471834 0.740998 -0.154640
C5    C     C_2   0.475528 0.528117 0.258973 -0.154595
C6    C     C_2   0.024445 0.971835 0.740999 -0.154660
C7    C     C_2   0.975528 0.028116 0.258972 -0.154702
C8    C     C_2   0.505940 0.502192 0.690883 -0.335236
C9    C     C_2   0.494046 0.497769 0.309106 -0.336627
C10   C     C_2   0.005940 0.002192 0.690882 -0.335405
C11   C     C_2   0.994047 0.997769 0.309107 -0.336703
C12   C     C_R   0.227764 0.469888 0.193756 -0.181900
C13   C     C_R   0.793307 0.999460 0.294159 0.168823
C14   C     C_R   0.771924 0.473898 0.810867 -0.181866
C15   C     C_R   0.727739 0.972991 0.188612 -0.181853
C16   C     C_R   0.271990 0.977410 0.815406 -0.181792
C17   C     C_R   0.206627 0.499532 0.207915 0.168698
C18   C     C_R   0.793372 0.500045 0.792318 0.168441
C19   C     C_R   0.706627 0.999506 0.207861 0.168415
C20   C     C_R   0.293372 0.000064 0.792368 0.168187
C21   C     C_R   0.228744 0.529119 0.265193 -0.182293
C22   C     C_R   0.771567 0.526304 0.730741 -0.182074
C23   C     C_R   0.728768 0.025963 0.270229 -0.182135
C24   C     C_R   0.206694 0.000296 0.706158 0.169305
C25   C     C_R   0.271502 0.022833 0.726298 -0.181928
C26   C     C_R   0.271190 0.469862 0.236985 -0.181739
C27   C     C_R   0.728502 0.474011 0.767682 -0.182675
C28   C     C_R   0.771165 0.972967 0.231847 -0.181971
C29   C     C_R   0.228568 0.977523 0.772216 -0.182684
C30   C     C_1   0.162204 0.499706 0.163372 -0.070435
C31   C     C_1   0.837795 0.500023 0.836720 -0.070478
C32   C     C_1   0.662204 0.999690 0.163349 -0.070466
C33   C     C_R   0.580711 0.500096 0.580744 0.911165
C34   C     C_1   0.337795 0.000034 0.836739 -0.070494
C35   C     C_1   0.337727 0.499564 0.338240 -0.070973
C36   C     C_1   0.662274 0.500339 0.661934 -0.070867
C37   C     C_1   0.837727 0.999556 0.338221 -0.070899
C38   C     C_1   0.162274 0.000346 0.661953 -0.070790
C39   C     C_1   0.375035 0.499690 0.375252 -0.181346
C40   C     C_1   0.624965 0.500289 0.624821 -0.181304
C41   C     C_1   0.875035 0.999688 0.375246 -0.181269
C42   C     C_1   0.124965 0.000290 0.624829 -0.181228
C43   C     C_1   0.124893 0.499849 0.125751 -0.179134
C44   C     C_R   0.919288 0.999902 0.419253 0.911019
C45   C     C_1   0.875107 0.499998 0.874268 -0.179138
C46   C     C_1   0.624893 0.999842 0.125746 -0.179165
C47   C     C_1   0.375107 0.000002 0.874272 -0.179165
C48   C     C_R   0.499904 0.419292 0.999884 0.911117
C49   C     C_R   0.999904 0.919292 0.999883 0.911369
C50   C     C_R   0.499632 0.498479 0.880389 0.935969
C51   C     C_R   0.500368 0.501515 0.119611 0.936144
C52   C     C_R   0.999632 0.998479 0.880389 0.936093
C53   C     C_R   0.000368 0.001515 0.119611 0.936296
C54   C     C_R   0.500098 0.580714 0.000119 0.910964
C55   C     C_R   0.080711 0.000096 0.580743 0.910932
C56   C     C_R   0.000098 0.080714 0.000119 0.911065
C57   C     C_R   0.501526 0.500346 0.620708 0.936148
C58   C     C_R   0.498473 0.499640 0.379290 0.936257
C59   C     C_R   0.001525 0.000346 0.620708 0.935970
C60   C     C_R   0.998472 0.999640 0.379290 0.936059
C61   C     C_R   0.999994 0.419402 0.999705 0.906687
C62   C     C_R   0.499994 0.919402 0.999705 0.906914
C63   C     C_R   0.080635 0.499987 0.080879 0.906839
C64   C     C_R   0.919364 0.499977 0.919123 0.906989
C65   C     C_R   0.580635 0.999987 0.080878 0.907157
C66   C     C_R   0.272172 0.529092 0.308425 -0.182485
C67   C     C_R   0.419364 0.999976 0.919123 0.907309
C68   C     C_R   0.000005 0.580684 0.000294 0.907475
C69   C     C_R   0.500005 0.080684 0.000294 0.907862
C70   C     C_R   0.971297 0.728415 0.008478 -0.182060
C71   C     C_R   0.028467 0.728149 0.993338 -0.182082
C72   C     C_R   0.474647 0.228484 0.016857 -0.181933
C73   C     C_R   0.525085 0.228080 0.984813 -0.181899
C74   C     C_R   0.999931 0.706660 0.001071 0.168735
C75   C     C_R   0.499918 0.206659 0.001000 0.168432
C76   C     C_R   0.524981 0.271499 0.984468 -0.182687
C77   C     C_R   0.728137 0.526416 0.687547 -0.181652
C78   C     C_R   0.474543 0.271912 0.016515 -0.181638
C79   C     C_R   0.028365 0.771568 0.992989 -0.182713
C80   C     C_R   0.971196 0.771843 0.008132 -0.181531
C81   C     C_R   0.499703 0.293327 0.000299 0.169164
C82   C     C_R   0.999722 0.793327 0.000361 0.168936
C83   C     C_1   0.999944 0.662243 0.001086 -0.070520
C84   C     C_1   0.499938 0.162243 0.001056 -0.070485
C85   C     C_1   0.499653 0.337741 0.000017 -0.070861
C86   C     C_1   0.999661 0.837741 0.000045 -0.070973
C87   C     C_1   0.499710 0.375046 0.999873 -0.181140
C88   C     C_R   0.772196 0.025937 0.313468 -0.182414
C89   C     C_1   0.999712 0.875046 0.999883 -0.181257
C90   C     C_2   0.528084 0.475475 0.811485 -0.154594
C91   C     C_2   0.471893 0.524478 0.188494 -0.154607
C92   C     C_2   0.028085 0.975476 0.811486 -0.154520
C93   C     C_2   0.971893 0.024477 0.188493 -0.154684
C94   C     C_1   0.999971 0.624935 0.000864 -0.179383
C95   C     C_1   0.499968 0.124935 0.000857 -0.179356
C96   C     C_R   0.973987 0.271249 0.932513 -0.182099
C97   C     C_R   0.026995 0.272286 0.066062 -0.181916
C98   C     C_R   0.474411 0.771246 0.932351 -0.182049
C99   C     C_R   0.228071 0.022945 0.683098 -0.181769
C100  C     C_R   0.526576 0.772289 0.066243 -0.181837
C101  C     C_R   0.000457 0.293397 0.999184 0.168375
C102  C     C_R   0.500459 0.793397 0.999193 0.168332
C103  C     C_R   0.526610 0.728861 0.066471 -0.182006
C104  C     C_R   0.474445 0.727816 0.932578 -0.182355
C105  C     C_R   0.027029 0.228859 0.066290 -0.182010
C106  C     C_R   0.974022 0.227819 0.932741 -0.182406
C107  C     C_R   0.500524 0.706709 0.999647 0.168811
C108  C     C_R   0.000522 0.206709 0.999639 0.168803
C109  C     C_1   0.000270 0.337825 0.999078 -0.070461
C110  C     C_R   0.293307 0.499482 0.294199 0.168587
C111  C     C_1   0.500271 0.837825 0.999082 -0.070392
C112  C     C_1   0.500436 0.662284 0.999919 -0.070853
C113  C     C_1   0.000435 0.162284 0.999915 -0.070920
C114  C     C_1   0.500309 0.624973 0.000079 -0.181260
C115  C     C_1   0.000309 0.124973 0.000078 -0.181363
C116  C     C_1   0.000123 0.375140 0.999221 -0.179059
C117  C     C_1   0.500124 0.875140 0.999222 -0.179025
C118  C     C_2   0.497763 0.494046 0.812764 -0.335136
C119  C     C_2   0.502232 0.505937 0.187233 -0.336589
C120  C     C_2   0.997763 0.994046 0.812764 -0.335121
H1    H     H_    0.554682 0.461651 0.861326 0.165606
H2    H     H_    0.546838 0.712597 0.118507 0.141721
H3    H     H_    0.953450 0.210741 0.881028 0.140989
H4    H     H_    0.047583 0.212592 0.118194 0.141730
H5    H     H_    0.953384 0.287518 0.880633 0.141538
H6    H     H_    0.047519 0.289362 0.117798 0.141874
H7    H     H_    0.454134 0.787513 0.880336 0.141568
H8    H     H_    0.546774 0.789367 0.118112 0.141921
H9    H     H_    0.468992 0.503534 0.761462 0.157728
H10   H     H_    0.531007 0.496465 0.238542 0.158094
H11   H     H_    0.968992 0.003532 0.761462 0.157634
H12   H     H_    0.445287 0.538285 0.138644 0.166810
H13   H     H_    0.031007 0.996466 0.238542 0.158009
H14   H     H_    0.538225 0.445211 0.731546 0.165591
H15   H     H_    0.461739 0.554737 0.268413 0.166735
H16   H     H_    0.038228 0.945213 0.731548 0.165690
H17   H     H_    0.961738 0.054736 0.268412 0.166774
H18   H     H_    0.496497 0.530976 0.703969 0.157680
H19   H     H_    0.503501 0.468986 0.296038 0.158078
H20   H     H_    0.996495 0.030976 0.703967 0.157686
H21   H     H_    0.003501 0.968986 0.296038 0.158162
H22   H     H_    0.287481 0.446893 0.225835 0.141983
H23   H     H_    0.054684 0.961654 0.861328 0.165532
H24   H     H_    0.711972 0.453723 0.782188 0.140438
H25   H     H_    0.787437 0.952430 0.216754 0.141775
H26   H     H_    0.212091 0.959941 0.790201 0.140262
H27   H     H_    0.210709 0.446946 0.149397 0.141725
H28   H     H_    0.788735 0.453541 0.858558 0.141482
H29   H     H_    0.710666 0.952478 0.140308 0.141915
H30   H     H_    0.288852 0.959761 0.866578 0.141673
H31   H     H_    0.212452 0.552132 0.276259 0.141264
H32   H     H_    0.788103 0.546606 0.716268 0.141865
H33   H     H_    0.712494 0.046548 0.285249 0.141531
H34   H     H_    0.945285 0.038284 0.138643 0.166731
H35   H     H_    0.287985 0.040425 0.708337 0.142061
H36   H     H_    0.289227 0.552077 0.352704 0.141167
H37   H     H_    0.711321 0.546785 0.639876 0.141764
H38   H     H_    0.789271 0.046498 0.361703 0.140995
H39   H     H_    0.211204 0.040602 0.631937 0.141540
H40   H     H_    0.454942 0.288747 0.028819 0.141754
H41   H     H_    0.544509 0.288011 0.971911 0.140385
H42   H     H_    0.948982 0.788625 0.013872 0.141962
H43   H     H_    0.050504 0.788133 0.986981 0.140569
H44   H     H_    0.949142 0.711844 0.014435 0.141756
H45   H     H_    0.050667 0.711372 0.987551 0.141238
H46   H     H_    0.455106 0.211966 0.029378 0.141968
H47   H     H_    0.544676 0.211250 0.972475 0.141515
H48   H     H_    0.454200 0.710736 0.880731 0.140989
O1    O     O_R   0.439010 0.534430 0.439020 -0.620086
O2    O     O_R   0.939020 0.499970 0.990130 -0.615633
O3    O     O_R   0.560980 0.999970 0.009870 -0.615669
O4    O     O_R   0.439020 0.999970 0.990130 -0.615790
O5    O     O_R   0.000010 0.561020 0.051000 -0.616097
O6    O     O_R   0.999990 0.561020 0.949000 -0.615675
O7    O     O_R   0.500010 0.061020 0.051000 -0.616264
O8    O     O_R   0.499990 0.061020 0.949000 -0.615823
O9    O     O_R   0.439010 0.465570 0.438980 -0.615092
O10   O     O_R   0.560990 0.465570 0.561020 -0.619886
O11   O     O_R   0.939010 0.965570 0.438980 -0.614929
O12   O     O_R   0.560990 0.534430 0.560980 -0.615032
O13   O     O_R   0.060990 0.965570 0.561020 -0.619735
O14   O     O_R   0.500010 0.534430 0.590460 -0.623547
O15   O     O_R   0.499990 0.534430 0.409540 -0.616720
O16   O     O_R   0.000010 0.034430 0.590460 -0.623548
O17   O     O_R   0.999990 0.034430 0.409540 -0.616685
O18   O     O_R   0.500010 0.465570 0.590420 -0.616466
O19   O     O_R   0.499990 0.465570 0.409580 -0.623405
O20   O     O_R   0.000010 0.965570 0.590420 -0.616382
O21   O     O_R   0.999990 0.965570 0.409580 -0.623347
O22   O     O_R   0.534430 0.439010 0.034350 -0.619974
O23   O     O_R   0.939010 0.034430 0.439020 -0.619960
O24   O     O_R   0.465570 0.439010 0.965650 -0.614983
O25   O     O_R   0.034430 0.939010 0.034350 -0.620130
O26   O     O_R   0.965570 0.939010 0.965650 -0.615147
O27   O     O_R   0.534420 0.500000 0.943920 -0.616521
O28   O     O_R   0.465580 0.500000 0.056080 -0.616623
O29   O     O_R   0.034420 1.000000 0.943920 -0.616581
O30   O     O_R   0.965580 1.000000 0.056080 -0.616667
O31   O     O_R   0.465560 0.500000 0.875080 -0.623548
O32   O     O_R   0.534440 0.500000 0.124920 -0.623587
O33   O     O_R   0.965560 1.000000 0.875080 -0.623610
O34   O     O_R   0.060990 0.034430 0.560980 -0.614903
O35   O     O_R   0.034440 1.000000 0.124920 -0.623656
O36   O     O_R   0.534430 0.560990 0.034430 -0.615022
O37   O     O_R   0.465570 0.560990 0.965570 -0.619907
O38   O     O_R   0.034430 0.060990 0.034430 -0.615076
O39   O     O_R   0.965570 0.060990 0.965570 -0.619958
O40   O     O_R   1.000000 0.439050 0.051090 -0.615562
O41   O     O_R   0.000000 0.439050 0.948910 -0.615951
O42   O     O_R   0.500000 0.939050 0.051090 -0.615602
O43   O     O_R   0.500000 0.939050 0.948910 -0.616020
O44   O     O_R   0.060990 0.500040 0.112010 -0.615946
O45   O     O_R   0.939010 0.500040 0.887990 -0.616075
O46   O     O_R   0.560990 0.000040 0.112010 -0.616093
O47   O     O_R   0.439010 0.000040 0.887990 -0.616217
O48   O     O_R   0.060980 0.499970 0.009870 -0.615508
Zn1   Zn    Zn3+2 0.500000 0.545980 0.500000 0.961226
Zn2   Zn    Zn3+2 0.999990 0.500050 0.931820 0.968846
Zn3   Zn    Zn3+2 0.500010 0.000050 0.068180 0.968272
Zn4   Zn    Zn3+2 0.499990 0.000050 0.931820 0.968274
Zn5   Zn    Zn3+2 0.000000 0.045980 0.500000 0.961588
Zn6   Zn    Zn3+2 0.500000 0.454020 0.500000 0.961294
Zn7   Zn    Zn3+2 1.000000 0.954020 0.500000 0.961838
Zn8   Zn    Zn3+2 0.545980 0.500000 0.045940 0.961662
Zn9   Zn    Zn3+2 0.454020 0.500000 0.954060 0.961863
Zn10  Zn    Zn3+2 0.045980 0.000000 0.045940 0.961172
Zn11  Zn    Zn3+2 0.954020 0.000000 0.954060 0.961380
Zn12  Zn    Zn3+2 0.000010 0.500050 0.068180 0.968840

loop_
_geom_bond_atom_site_label_1
_geom_bond_atom_site_label_2
_ccdc_geom_bond_type
C108  C113  S    
O1    Zn1   S    
C60   O17   A    
C99   H39   S    
C21   C66   A    
C25   H35   S    
C120  H11   S    
C9    H19   S    
C107  C112  S    
C14   C18   A    
C67   O47   A    
C63   O44   A    
C73   H47   S    
C71   C79   A    
O12   Zn1   S    
C43   C63   S    
C15   C19   A    
O43   Zn4   S    
C28   H25   S    
C53   O35   A    
C49   O25   A    
C65   O3    A    
C5    H15   S    
O41   Zn2   S    
C90   C118  D    
C12   H27   S    
C93   H34   S    
O48   Zn2   S    
O25   Zn10  S    
C38   C42   T    
O2    Zn12  S    
O46   Zn3   S    
C44   O23   A    
O27   Zn8   S    
C42   C55   S    
C35   C110  S    
C75   C84   S    
C54   O36   A    
O13   Zn7   S    
C20   C25   A    
C72   C78   A    
C101  C109  S    
C24   C99   A    
C14   H28   S    
C119  H10   S    
C2    C36   S    
C8    H18   S    
C9    C58   S    
C92   H23   S    
C24   C29   A    
C62   C117  S    
C6    H16   S    
C109  C116  T    
C1    O9    A    
C25   C99   A    
C60   O21   A    
C12   C17   A    
C70   C74   A    
C24   C38   S    
C62   O43   A    
C13   C28   A    
O37   Zn9   S    
C2    C27   A    
O6    Zn2   S    
C69   O8    A    
C88   H38   S    
C63   O48   A    
C26   C110  A    
C14   C27   A    
C13   C37   S    
O3    Zn4   S    
C4    C8    D    
C20   C34   S    
O29   Zn10  S    
O18   Zn6   S    
O15   Zn1   S    
O17   Zn5   S    
C96   C101  A    
O36   Zn8   S    
C33   O12   A    
C64   O2    A    
C17   C30   S    
C73   C75   A    
O34   Zn5   S    
C76   H41   S    
C5    C9    D    
C104  C107  A    
C10   H20   S    
C72   C75   A    
C19   C32   S    
C44   O11   A    
C47   C67   S    
C57   O14   A    
C7    C11   D    
C4    C90   S    
C85   C87   T    
C55   O13   A    
O16   Zn5   S    
C7    C93   S    
C105  C108  A    
C22   H32   S    
C33   C40   S    
C70   C80   A    
O32   Zn8   S    
C74   C83   S    
C64   O45   A    
C36   C40   T    
C46   C65   S    
C80   C82   A    
C79   H43   S    
C29   H26   S    
C7    H17   S    
C68   O6    A    
C19   C23   A    
C91   H12   S    
C52   O33   A    
C16   C29   A    
C98   C102  A    
C83   C94   T    
O5    Zn12  S    
C100  C103  A    
C68   C94   S    
O42   Zn3   S    
C105  H4    S    
C12   C26   A    
C58   O15   A    
C3    H13   S    
C84   C95   T    
O26   Zn11  S    
C106  H3    S    
C35   C39   T    
O38   Zn10  S    
C72   H46   S    
C8    C57   S    
C104  H48   S    
C11   H21   S    
C50   O27   A    
C51   C119  S    
C16   C20   A    
C54   O37   A    
C52   O29   A    
C61   C116  S    
C100  C102  A    
C27   H24   S    
C62   O42   A    
C48   C87   S    
C59   O20   A    
C3    C93   D    
C61   O41   A    
C66   C110  A    
C102  C111  S    
O31   Zn9   S    
C80   H42   S    
C57   O18   A    
C5    C91   S    
O4    Zn3   S    
C112  C114  T    
C52   C120  S    
O39   Zn11  S    
C98   H7    S    
C71   C74   A    
C55   O34   A    
C23   C88   A    
C23   H33   S    
C71   H45   S    
O9    Zn6   S    
C41   C44   S    
C91   C119  D    
C30   C43   T    
C53   O30   A    
C15   C28   A    
C11   C60   S    
C15   H29   S    
O30   Zn11  S    
C4    H14   S    
C78   H40   S    
O33   Zn11  S    
C96   C106  A    
O28   Zn9   S    
O24   Zn9   S    
C32   C46   T    
C33   O10   A    
C100  H8    S    
O7    Zn3   S    
C22   C77   A    
C49   C89   S    
C97   H6    S    
C69   C95   S    
C86   C89   T    
C70   H44   S    
C76   C81   A    
C6    C10   D    
C79   C82   A    
C16   H30   S    
C50   O31   A    
O21   Zn7   S    
C31   C45   T    
C49   O26   A    
C34   C47   T    
O19   Zn6   S    
C67   O4    A    
C45   C64   S    
C111  C117  T    
C68   O5    A    
C18   C22   A    
C10   C59   S    
C92   C120  D    
C58   O19   A    
C97   C105  A    
C65   O46   A    
C118  H9    S    
C82   C86   S    
O47   Zn4   S    
O40   Zn12  S    
C66   H36   S    
C3    C53   S    
C78   C81   A    
C51   O28   A    
C56   O39   A    
C106  C108  A    
C6    C92   S    
C54   C114  S    
C13   C88   A    
C1    O1    A    
C90   H1    S    
C56   C115  S    
O23   Zn5   S    
C96   H5    S    
C21   H31   S    
C37   C41   T    
C59   O16   A    
C81   C85   S    
C48   O24   A    
C51   O32   A    
C1    C39   S    
C61   O40   A    
O45   Zn2   S    
O44   Zn12  S    
O20   Zn7   S    
O22   Zn8   S    
C56   O38   A    
C73   C76   A    
O14   Zn1   S    
O8    Zn4   S    
O11   Zn7   S    
C48   O22   A    
C2    C77   A    
O10   Zn6   S    
C103  C107  A    
C18   C31   S    
C69   O7    A    
C50   C118  S    
C26   H22   S    
C103  H2    S    
C98   C104  A    
O35   Zn10  S    
C97   C101  A    
C77   H37   S    
C113  C115  T    
C17   C21   A    
