data_mof_unit_31827.cif
_audit_creation_date              2012-12-10T20:49:28-0500
_audit_creation_method            fapswitch 2.2
_symmetry_space_group_name_H-M    P1
_symmetry_Int_Tables_number       1
_space_group_crystal_system       triclinic
_cell_length_a                    15.761472
_cell_length_b                    8.920902
_cell_length_c                    8.126846
_cell_angle_alpha                 89.995502
_cell_angle_beta                  92.584647
_cell_angle_gamma                 90.002634
_cell_volume                      1141.52528187

loop_
_atom_site_label
_atom_site_type_symbol
_atom_type_description
_atom_site_fract_x
_atom_site_fract_y
_atom_site_fract_z
_atom_type_partial_charge
C1    C     C_1   0.499982 0.065231 0.500005 -0.158490
C2    C     C_3   0.977019 0.635676 0.577032 -0.199455
C3    C     C_1   0.248708 0.501915 0.485884 -0.125623
C4    C     C_1   0.751317 0.502123 0.514455 -0.100692
C5    C     C_3   0.039868 0.517249 0.649173 0.448581
C6    C     C_3   0.960385 0.498002 0.355219 0.439181
C7    C     C_3   0.082898 0.506983 0.483559 0.009199
C8    C     C_3   0.917252 0.506898 0.520822 0.025100
C9    C     C_1   0.173544 0.504183 0.479380 0.149432
C10   C     C_1   0.826490 0.504364 0.522365 0.183169
C11   C     C_2   0.044429 0.235362 0.344595 0.421322
C12   C     C_1   0.499980 0.934767 0.499994 -0.159569
C13   C     C_2   0.950917 0.778598 0.657765 0.414528
C14   C     C_2   0.958495 0.256532 0.698743 0.415579
C15   C     C_2   0.043508 0.761030 0.310528 0.385606
C16   C     C_3   0.958615 0.501175 0.071121 -0.139262
C17   C     C_3   0.124819 0.653735 0.836048 -0.268256
C18   C     C_R   0.499991 0.218082 0.500003 0.939708
C19   C     C_R   0.499986 0.781917 0.499995 0.936180
C20   C     C_R   0.337477 0.499983 0.496112 0.890248
C21   C     C_R   0.662531 0.500057 0.503909 0.892387
C22   C     C_3   0.979239 0.388821 0.594265 -0.161012
C23   C     C_3   0.020686 0.626899 0.410390 -0.188233
C24   C     C_3   0.022209 0.378900 0.428311 -0.178750
H1    H     H_    0.994786 0.155171 0.311832 0.081488
H2    H     H_    0.178229 0.635407 0.927402 0.227471
H3    H     H_    0.996790 0.868143 0.677388 0.053521
H4    H     H_    0.009210 0.184503 0.746773 0.085872
H5    H     H_    0.994201 0.838510 0.268185 0.081535
H6    H     H_    0.019234 0.437302 0.081885 0.191233
H7    H     H_    0.970531 0.621786 0.049327 0.164698
H8    H     H_    0.921855 0.458655 0.961481 0.221276
H9    H     H_    0.080015 0.732472 0.892120 0.167502
H10   H     H_    0.151633 0.705867 0.725389 0.153452
N1    N     N_1   0.500010 0.500000 0.073640 -0.018362
N2    N     N_1   0.499990 0.500000 0.926360 -0.018282
O1    O     O_R   0.500000 0.285340 0.636850 -0.612350
O2    O     O_2   0.878299 0.795743 0.700202 -0.534274
O3    O     O_2   0.885129 0.228923 0.729861 -0.545169
O4    O     O_2   0.117003 0.783911 0.276655 -0.556060
O5    O     O_3   0.909192 0.482825 0.209071 -0.620449
O6    O     O_3   0.084730 0.514803 0.803646 -0.637043
O7    O     O_R   0.500000 0.714660 0.363150 -0.613874
O8    O     O_R   0.500000 0.285340 0.363150 -0.612615
O9    O     O_R   0.500000 0.714660 0.636850 -0.614527
O10   O     O_R   0.376770 0.500000 0.636850 -0.617871
O11   O     O_R   0.623230 0.500000 0.363150 -0.605761
O12   O     O_R   0.376780 0.500000 0.363100 -0.606005
O13   O     O_R   0.623220 0.500000 0.636900 -0.602956
O14   O     O_2   0.117746 0.207983 0.312958 -0.541298
Zn1   Zn    Zn3+2 0.499990 0.500000 0.682780 1.027524
Zn2   Zn    Zn3+2 0.500010 0.500000 0.317220 1.030444

loop_
_geom_bond_atom_site_label_1
_geom_bond_atom_site_label_2
_ccdc_geom_bond_type
C8    C22   S    
C5    O6    S    
C19   O9    A    
O11   Zn2   S    
C3    C9    T    
C18   O8    A    
C16   H8    S    
C13   H3    S    
N1    N2    T    
C6    C24   S    
C15   O4    D    
C14   C22   S    
C21   O13   A    
C13   O2    D    
C3    C20   S    
C11   O14   D    
C21   O11   A    
C16   H7    S    
C4    C21   S    
N2    Zn1   S    
O8    Zn2   S    
C1    C18   S    
C20   O12   A    
C1    C12   T    
C17   H9    S    
O9    Zn1   S    
C7    C23   S    
C17   H2    S    
C16   O5    S    
C12   C19   S    
C15   C23   S    
C18   O1    A    
C19   O7    A    
C15   H5    S    
C5    C7    S    
O1    Zn1   S    
C22   C24   S    
O7    Zn2   S    
C2    C5    S    
C17   H10   S    
C6    C23   S    
C4    C10   T    
C7    C24   S    
C11   C24   S    
O12   Zn2   S    
C8    C10   S    
C2    C8    S    
C2    C23   S    
C7    C9    S    
C2    C13   S    
C11   H1    S    
C17   O6    S    
N1    Zn2   S    
C6    C8    S    
C14   H4    S    
C14   O3    D    
C16   H6    S    
O10   Zn1   S    
C20   O10   A    
C5    C22   S    
O13   Zn1   S    
C6    O5    S    
