data_mof_unit_7649.cif
_audit_creation_date              2013-03-05T15:59:21-0500
_audit_creation_method            fapswitch 2.2
_symmetry_space_group_name_H-M    P1
_symmetry_Int_Tables_number       1
_space_group_crystal_system       triclinic
_cell_length_a                    10.498097
_cell_length_b                    12.627588
_cell_length_c                    13.08564
_cell_angle_alpha                 82.640258
_cell_angle_beta                  92.263078
_cell_angle_gamma                 102.387646
_cell_volume                      1680.23191816

loop_
_atom_site_label
_atom_site_type_symbol
_atom_site_description
_atom_site_fract_x
_atom_site_fract_y
_atom_site_fract_z
_atom_type_partial_charge
O1    O     O_R   0.467970 0.366730 0.627150 -0.608565
O2    O     O_R   0.510820 0.544830 0.662520 -0.605711
C1    C     C_R   0.485845 0.439432 0.691411 0.895295
O3    O     O_R   0.664630 0.410960 0.482340 -0.594007
O4    O     O_R   0.707470 0.589060 0.517710 -0.600880
C2    C     C_R   0.742626 0.501713 0.497768 0.944275
Zn1   Zn    Zn3+2 0.471390 0.381080 0.476380 1.005211
Zn2   Zn    Zn3+2 0.528610 0.618920 0.523620 0.973363
O5    O     O_R   0.489180 0.455170 0.337480 -0.571742
O6    O     O_R   0.532030 0.633270 0.372850 -0.624897
O7    O     O_R   0.292530 0.410940 0.482290 -0.633496
O8    O     O_R   0.335370 0.589040 0.517660 -0.638370
C3    C     C_R   0.518099 0.560694 0.308625 0.844218
C4    C     C_R   0.257853 0.500054 0.496932 0.865711
C5    C     C_3   0.940452 0.419095 0.561237 -0.069234
C6    C     C_3   0.051352 0.512985 0.588732 -0.140208
H1    H     H_    0.096776 0.521451 0.666168 0.178088
H2    H     H_    0.888927 0.350139 0.615413 0.255677
C7    C     C_3   0.122554 0.500030 0.493252 -0.068068
C8    C     C_3   0.013975 0.406294 0.465504 -0.124293
C9    C     C_3   0.949703 0.491134 0.398936 -0.146763
C10   C     C_3   0.061560 0.585000 0.426268 -0.168432
C11   C     C_3   0.987656 0.597964 0.522020 -0.038124
C12   C     C_3   0.878695 0.503899 0.494934 -0.011788
H3    H     H_    0.028838 0.328257 0.442411 0.196894
H4    H     H_    0.903491 0.482743 0.321760 0.185638
H5    H     H_    0.115780 0.652281 0.371203 0.166658
H6    H     H_    0.973311 0.676280 0.544856 0.203373
C13   C     C_R   0.729747 0.676140 0.078877 -0.083650
C14   C     C_R   0.557313 0.595782 0.201712 -0.137699
C15   C     C_R   0.356503 0.321062 0.828902 -0.250645
C16   C     C_R   0.325295 0.291414 0.931760 -0.161316
C17   C     C_R   0.398094 0.347526 0.007467 0.318357
C18   C     C_R   0.502003 0.438578 0.977582 -0.009580
C19   C     C_R   0.549891 0.451350 0.876844 -0.053138
C20   C     C_R   0.558478 0.518661 0.042140 0.103286
C21   C     C_R   0.679067 0.591805 0.015937 0.017442
C22   C     C_R   0.747445 0.575165 0.930202 -0.065504
C23   C     C_R   0.680324 0.508520 0.857672 -0.173277
C24   C     C_R   0.494383 0.530439 0.129931 -0.162278
C25   C     C_R   0.672961 0.673246 0.175556 -0.122001
C26   C     C_R   0.468110 0.400603 0.800664 -0.098490
H7    H     H_    0.397443 0.483557 0.147991 0.169575
H8    H     H_    0.293893 0.281032 0.771138 0.179930
H9    H     H_    0.244539 0.223630 0.952555 0.199373
C27   C     C_R   0.311334 0.085879 0.350404 -0.201567
H10   H     H_    0.283675 0.250474 0.339087 0.176201
H11   H     H_    0.278742 0.879989 0.318649 0.170437
H12   H     H_    0.234686 0.061724 0.294822 0.190601
N1    N     N_R   0.432930 0.222190 0.444670 -0.136484
C28   C     C_R   0.668464 0.799624 0.620315 -0.066602
C29   C     C_R   0.727600 0.907217 0.633086 -0.192500
C30   C     C_R   0.670284 0.992511 0.583562 0.262089
C31   C     C_R   0.554663 0.966694 0.521242 -0.109493
C32   C     C_R   0.511433 0.856188 0.502649 0.186910
C33   C     C_R   0.482729 0.044361 0.472641 0.018727
C34   C     C_R   0.383009 0.011847 0.398921 0.140872
C35   C     C_R   0.353190 0.905105 0.375664 -0.224805
C36   C     C_R   0.415495 0.828336 0.427745 -0.113538
C37   C     C_R   0.499870 0.151903 0.496778 0.019090
C38   C     C_R   0.338362 0.191864 0.374768 0.120665
N2    N     N_R   0.566370 0.776980 0.554790 -0.141552
H13   H     H_    0.560222 0.181802 0.558942 0.197114
H14   H     H_    0.710066 0.732684 0.656554 0.225561
H15   H     H_    0.388311 0.747459 0.406618 0.200844
N3    N     N_R   0.377570 0.300859 0.112836 0.175588
O9    O     O_R   0.477263 0.293125 0.173528 -0.380222
O10   O     O_R   0.261459 0.249899 0.143105 -0.442897
C39   C     C_2   0.753551 0.481081 0.773510 0.892684
O11   O     O_2   0.817440 0.554007 0.714843 -0.576423
O12   O     O_R   0.750479 0.372460 0.760286 -0.780402
H16   H     H_    0.700982 0.318031 0.816223 0.337895
N4    N     N_R   0.741098 0.102786 0.583846 0.199022
O13   O     O_R   0.796624 0.156627 0.500100 -0.413301
O14   O     O_R   0.743729 0.151589 0.665962 -0.355636
C40   C     C_2   0.855130 0.926771 0.690156 0.991834
O15   O     O_2   0.917411 0.854498 0.704283 -0.583950
O16   O     O_R   0.905506 0.026257 0.727703 -0.726813
H17   H     H_    0.993084 0.028240 0.763837 0.337215
C41   C     C_2   0.733934 0.750185 0.248798 0.985632
O17   O     O_2   0.837045 0.740445 0.291816 -0.613766
O18   O     O_R   0.671836 0.832381 0.269620 -0.770989
H18   H     H_    0.721521 0.878614 0.322092 0.349291
C42   C     C_2   0.892282 0.609481 0.928070 0.931422
O19   O     O_2   0.947147 0.667673 0.853928 -0.525794
O20   O     O_R   0.965238 0.577396 0.013688 -0.793699
H19   H     H_    0.062416 0.606540 0.004512 0.353311
C43   C     C_2   0.831216 0.772833 0.039553 0.928163
O21   O     O_2   0.928634 0.803285 0.091278 -0.575644
O22   O     O_R   0.814780 0.828464 0.942159 -0.771462
H20   H     H_    0.889691 0.892782 0.923717 0.366165

loop_
_geom_bond_atom_site_label_1
_geom_bond_atom_site_label_2
_geom_bond_distance
_ccdc_geom_bond_type
C5    H2    1.106087 S    
N3    O10   1.301188 A    
C9    H4    1.110464 S    
C1    C26   1.456453 S    
C15   C26   1.397263 A    
C32   C36   1.398992 A    
C16   H9    1.082873 S    
C7    C8    1.526683 S    
C25   C41   1.481713 S    
C34   C35   1.387060 A    
C30   C31   1.436934 A    
Zn1   O7    1.999146 S    
C27   H12   1.083898 S    
C37   H13   1.068195 S    
C20   C21   1.422940 A    
C40   O16   1.397093 S    
O4    C2    1.294942 A    
O7    C4    1.293070 A    
C8    H3    1.110265 S    
C5    C6    1.540950 S    
C32   N2    1.356518 A    
C33   C34   1.425629 A    
C18   C19   1.406957 A    
N4    O13   1.300962 A    
C39   O12   1.397754 S    
C19   C26   1.414743 A    
O5    C3    1.310311 A    
C13   C43   1.488163 S    
C24   H7    1.080122 S    
C6    H1    1.110544 S    
C11   C12   1.529002 S    
C14   C25   1.409076 A    
C13   C25   1.412666 A    
C43   O21   1.222782 D    
N3    O9    1.301518 A    
C9    C10   1.545983 S    
N4    O14   1.301996 A    
C28   N2    1.350719 A    
O3    Zn1   1.982551 S    
C17   N3    1.433754 S    
C5    C8    1.540447 S    
C31   C33   1.434105 A    
C15   H8    1.083970 S    
C27   C38   1.382942 A    
C28   C29   1.395469 A    
C3    C14   1.459952 S    
C20   C24   1.393702 A    
C7    C10   1.529407 S    
C40   O15   1.223850 D    
O3    C2    1.291563 A    
O20   H19   1.013856 S    
C35   C36   1.378264 A    
C33   C37   1.406009 A    
O1    C1    1.302509 A    
C19   C23   1.419748 A    
C21   C22   1.416613 A    
C15   C16   1.382839 A    
Zn2   O8    1.982553 S    
C2    C12   1.424663 S    
C17   C18   1.430110 A    
C23   C39   1.484188 S    
C14   C24   1.383926 A    
C11   H6    1.110472 S    
C42   O19   1.221838 D    
C41   O18   1.397626 S    
C5    C12   1.528161 S    
C43   O22   1.397417 S    
C6    C11   1.543536 S    
C10   H5    1.110443 S    
C27   C34   1.398292 A    
C13   C21   1.429173 A    
C29   C30   1.417937 A    
Zn1   O5    1.931325 S    
C31   C32   1.420894 A    
C22   C42   1.489316 S    
O1    Zn1   1.959018 S    
C4    C7    1.419226 S    
C30   N4    1.431329 S    
C28   H14   1.081415 S    
Zn1   N1    2.052637 S    
C42   O20   1.398224 S    
C41   O17   1.222702 D    
C29   C40   1.495846 S    
O6    C3    1.302963 A    
H10   C38   1.080716 S    
O4    Zn2   1.999143 S    
H11   C35   1.084567 S    
N1    C37   1.349538 A    
C16   C17   1.398315 A    
O2    C1    1.308521 A    
O8    C4    1.291042 A    
O12   H16   1.012964 S    
C36   H15   1.068621 S    
O16   H17   1.014068 S    
O22   H20   1.013448 S    
C22   C23   1.415258 A    
C6    C7    1.524837 S    
C18   C20   1.417713 A    
C39   O11   1.217282 D    
C8    C9    1.544809 S    
Zn2   O6    1.959021 S    
O18   H18   1.013960 S    
C9    C12   1.528760 S    
O2    Zn2   1.931324 S    
N1    C38   1.350509 A    
C10   C11   1.543542 S    
Zn2   N2    2.040472 S    
