data_mof_unit_13839.cif
_audit_creation_date              2012-12-10T18:13:53-0500
_audit_creation_method            fapswitch 2.2
_symmetry_space_group_name_H-M    P1
_symmetry_Int_Tables_number       1
_space_group_crystal_system       triclinic
_cell_length_a                    10.867484
_cell_length_b                    9.503629
_cell_length_c                    23.502553
_cell_angle_alpha                 89.817671
_cell_angle_beta                  90.166037
_cell_angle_gamma                 90.226186
_cell_volume                      2427.31496475

loop_
_atom_site_label
_atom_site_type_symbol
_atom_type_description
_atom_site_fract_x
_atom_site_fract_y
_atom_site_fract_z
_atom_type_partial_charge
C1    C     C_R   0.260741 0.499698 0.500650 0.893622
C2    C     C_R   0.299297 0.417517 0.970018 -0.151687
C3    C     C_R   0.299273 0.416421 0.029363 -0.148329
C4    C     C_R   0.405673 0.454221 0.059860 -0.025128
C5    C     C_R   0.513129 0.492742 0.030162 -0.016459
C6    C     C_R   0.620276 0.531052 0.060367 -0.021573
C7    C     C_R   0.727015 0.568793 0.030280 -0.151079
C8    C     C_R   0.727256 0.569088 0.970893 -0.152467
C9    C     C_R   0.407303 0.455685 0.119505 0.555983
C10   C     C_R   0.617235 0.531789 0.120064 0.546901
C11   C     C_R   0.561533 0.392569 0.240557 -0.128547
C12   C     C_R   0.497169 0.500293 0.391148 0.841692
C13   C     C_R   0.555404 0.392318 0.299632 -0.238509
C14   C     C_R   0.494988 0.500855 0.328483 -0.231678
C15   C     C_R   0.437826 0.610291 0.296789 0.367699
C16   C     C_R   0.448354 0.613325 0.237395 0.466340
C17   C     C_R   0.508806 0.502001 0.209134 0.155864
C18   C     C_R   0.522611 0.366291 0.760445 0.465110
C19   C     C_R   0.517318 0.370011 0.701106 -0.195109
C20   C     C_R   0.504763 0.498111 0.671646 -0.129556
C21   C     C_R   0.497537 0.623960 0.702494 -0.197816
C22   C     C_R   0.501601 0.621575 0.761735 -0.134639
C23   C     C_R   0.740677 0.500013 0.499249 0.882122
C24   C     C_R   0.513573 0.493860 0.791075 0.242957
C25   C     C_3   0.075566 0.601092 0.545616 -0.596155
C26   C     C_3   0.074908 0.351826 0.516499 -0.515271
C27   C     C_3   0.933164 0.600486 0.545118 0.162517
C28   C     C_3   0.933352 0.349682 0.512184 0.167541
C29   C     C_3   0.076350 0.539640 0.438331 0.676963
C30   C     C_3   0.124189 0.499317 0.499748 -0.061671
C31   C     C_3   0.880602 0.500132 0.497612 -0.101714
C32   C     C_3   0.930378 0.545791 0.437335 0.617048
C33   C     C_3   0.626843 0.085926 0.505157 0.813361
C34   C     C_3   0.626578 0.917856 0.511126 0.765875
C35   C     C_3   0.429205 0.082732 0.550088 -0.285878
C36   C     C_3   0.420691 0.915790 0.547342 -0.246633
C37   C     C_3   0.438451 0.083452 0.449779 -0.316580
C38   C     C_3   0.446333 0.917686 0.447946 -0.361625
C39   C     C_R   0.500938 0.499683 0.608982 0.806204
C40   C     C_R   0.618581 0.531647 0.880660 0.542432
C41   C     C_R   0.407973 0.458056 0.880312 0.539488
C42   C     C_R   0.405836 0.456007 0.939960 -0.018736
C43   C     C_R   0.513273 0.493403 0.970115 -0.014729
C44   C     C_R   0.620713 0.531836 0.940365 -0.018381
Cu1   Cu    Cu3+1 0.499860 0.642410 0.500030 0.981428
Cu2   Cu    Cu3+1 0.499860 0.357590 0.500030 0.998420
H1    H     H_    0.215618 0.388177 0.947816 0.193303
H2    H     H_    0.524219 0.271790 0.678102 0.184060
H3    H     H_    0.488108 0.724221 0.680947 0.177917
H4    H     H_    0.494610 0.719272 0.785077 0.170495
H5    H     H_    0.113982 0.708709 0.540055 0.195276
H6    H     H_    0.116303 0.268492 0.489553 0.231647
H7    H     H_    0.108546 0.567011 0.588403 0.185624
H8    H     H_    0.103245 0.325588 0.560879 0.163549
H9    H     H_    0.901950 0.558579 0.586983 0.151279
H10   H     H_    0.897812 0.318843 0.554763 0.139458
H11   H     H_    0.215515 0.386472 0.051219 0.194523
H12   H     H_    0.471840 0.113531 0.591248 0.199012
H13   H     H_    0.445721 0.871661 0.589543 0.199605
H14   H     H_    0.339949 0.115311 0.449030 0.198910
H15   H     H_    0.352278 0.873955 0.441204 0.225778
H16   H     H_    0.476623 0.127911 0.409936 0.188913
H17   H     H_    0.497217 0.885825 0.409421 0.179095
H18   H     H_    0.334774 0.127395 0.550751 0.164028
H19   H     H_    0.323078 0.883830 0.540614 0.155770
H20   H     H_    0.810570 0.598532 0.052491 0.194812
H21   H     H_    0.811047 0.598856 0.949026 0.193166
H22   H     H_    0.607413 0.307147 0.218950 0.181607
H23   H     H_    0.599455 0.307680 0.322913 0.200488
N1    N     N_R   0.513410 0.494759 0.852082 -0.479627
N2    N     N_R   0.511570 0.495534 0.148186 -0.470860
N3    N     N_3   0.500250 0.143650 0.501250 -0.172841
N4    N     N_3   0.500250 0.856350 0.501250 -0.187730
O1    O     O_R   0.317570 0.620260 0.500030 -0.596763
O2    O     O_R   0.317570 0.379740 0.500030 -0.599804
O3    O     O_R   0.499840 0.620290 0.417900 -0.602708
O4    O     O_R   0.499840 0.379710 0.417900 -0.566354
O5    O     O_R   0.682190 0.620260 0.500010 -0.492101
O6    O     O_R   0.682190 0.379740 0.500010 -0.475514
O7    O     O_R   0.499920 0.620230 0.582140 -0.564272
O8    O     O_R   0.499920 0.379770 0.582140 -0.581931
O9    O     O_2   0.720698 0.567245 0.851345 -0.516686
O10   O     O_2   0.305775 0.423530 0.850653 -0.516088
O11   O     O_2   0.305465 0.418461 0.148724 -0.502377
O12   O     O_2   0.718391 0.569686 0.149799 -0.513967
O13   O     O_3   0.887388 0.737825 0.541334 -0.655716
H24   H     H_    0.936132 0.792757 0.513427 0.382432
O14   O     O_3   0.894705 0.245989 0.473509 -0.615950
H25   H     H_    0.950066 0.243520 0.440101 0.399543
O15   O     O_3   0.128119 0.669324 0.420362 -0.730653
H26   H     H_    0.103402 0.744310 0.447066 0.331239
O16   O     O_3   0.117572 0.434262 0.400773 -0.741331
H27   H     H_    0.116533 0.473550 0.361570 0.360947
O17   O     O_3   0.891782 0.683750 0.424225 -0.719044
H28   H     H_    0.810244 0.677890 0.405278 0.348059
O18   O     O_3   0.882458 0.453311 0.395630 -0.736117
H29   H     H_    0.901757 0.493618 0.357633 0.344446
O19   O     O_3   0.683624 0.145137 0.553517 -0.717465
H30   H     H_    0.772983 0.126276 0.550898 0.338427
O20   O     O_3   0.663079 0.877515 0.566623 -0.682457
H31   H     H_    0.749154 0.907287 0.573139 0.365968
O21   O     O_3   0.693604 0.129318 0.456553 -0.632876
H32   H     H_    0.667552 0.075956 0.422510 0.288906
O22   O     O_3   0.714518 0.864645 0.472963 -0.679613
H33   H     H_    0.675432 0.841154 0.436304 0.303037
O23   O     O_3   0.369228 0.714892 0.321912 -0.662794
H34   H     H_    0.330664 0.676149 0.356689 0.355404
O24   O     O_3   0.395443 0.724891 0.208576 -0.650889
H35   H     H_    0.418862 0.721848 0.167958 0.325586
O25   O     O_3   0.536900 0.236792 0.786425 -0.712420
H36   H     H_    0.547490 0.249468 0.827913 0.335020

loop_
_geom_bond_atom_site_label_1
_geom_bond_atom_site_label_2
_ccdc_geom_bond_type
C32   O17   S    
C10   O12   S    
C41   C42   A    
C19   C20   A    
C36   H13   S    
C21   H3    S    
C37   H16   S    
C28   H10   S    
C24   N1    S    
C7    C8    A    
Cu1   Cu2   S    
C29   C30   S    
C40   N1    A    
Cu1   O3    S    
C18   C24   A    
C1    O1    A    
C15   O23   S    
O16   H27   S    
C25   H7    S    
C18   C19   A    
C29   C32   S    
C5    C6    A    
C27   H9    S    
O23   H34   S    
C15   C16   A    
C41   O10   S    
O24   H35   S    
Cu1   N4    S    
C33   O19   S    
O25   H36   S    
Cu2   O2    S    
C33   N3    S    
C35   C36   S    
C16   C17   A    
C28   O14   S    
C34   O20   S    
C35   H18   S    
Cu2   N3    S    
C22   H4    S    
C38   H15   S    
C10   N2    A    
C5    C43   A    
C21   C22   A    
C12   O4    A    
O17   H28   S    
C26   H8    S    
O22   H33   S    
C27   C31   S    
C33   O21   S    
C1    O2    A    
C40   O9    S    
C39   O8    A    
C20   C39   S    
O13   H24   S    
C9    O11   S    
C34   O22   S    
Cu1   O1    S    
C23   C31   S    
C27   O13   S    
C43   C44   A    
C25   H5    S    
C37   C38   S    
C26   H6    S    
Cu2   O8    S    
C31   C32   S    
O18   H29   S    
C33   C34   S    
C20   C21   A    
Cu1   O5    S    
C3    H11   S    
C32   O18   S    
C12   C14   S    
C35   N3    S    
C17   N2    S    
C35   H12   S    
C22   C24   A    
C9    N2    A    
C42   C43   A    
C3    C4    A    
C11   H22   S    
C38   H17   S    
C25   C30   S    
C11   C17   A    
C19   H2    S    
C29   O15   S    
C28   C31   S    
C8    C44   A    
C4    C5    A    
C6    C10   A    
Cu2   O4    S    
C26   C30   S    
C6    C7    A    
C2    H1    S    
C25   C27   S    
C26   C28   S    
C39   O7    A    
C36   H19   S    
C12   O3    A    
C2    C3    A    
C7    H20   S    
C11   C13   A    
O15   H26   S    
Cu2   O6    S    
C13   H23   S    
C2    C42   A    
C1    C30   S    
Cu1   O7    S    
C23   O5    A    
O21   H32   S    
C37   H14   S    
C36   N4    S    
C16   O24   S    
C34   N4    S    
C40   C44   A    
O14   H25   S    
C8    H21   S    
C18   O25   S    
O19   H30   S    
C37   N3    S    
C14   C15   A    
O20   H31   S    
C23   O6    A    
C4    C9    A    
C13   C14   A    
C29   O16   S    
C41   N1    A    
C38   N4    S    
