data_mof_unit_65204.cif
_audit_creation_date              2012-12-10T16:36:37-0500
_audit_creation_method            fapswitch 2.2
_symmetry_space_group_name_H-M    P1
_symmetry_Int_Tables_number       1
_space_group_crystal_system       triclinic
_cell_length_a                    14.231853
_cell_length_b                    16.437694
_cell_length_c                    15.080749
_cell_angle_alpha                 89.999976
_cell_angle_beta                  91.898116
_cell_angle_gamma                 90.0
_cell_volume                      3526.03721878

loop_
_atom_site_label
_atom_site_type_symbol
_atom_type_description
_atom_site_fract_x
_atom_site_fract_y
_atom_site_fract_z
_atom_type_partial_charge
Br1   Br    Br    0.672382 0.863757 0.199819 -0.463347
Br2   Br    Br    0.172381 0.636244 0.199819 -0.463347
C1    C     C_R   0.679131 0.844307 0.519186 0.487859
C2    C     C_R   0.966134 0.467159 0.109930 -0.144720
C3    C     C_R   0.589987 0.931474 0.128337 0.160797
C4    C     C_R   0.089987 0.568526 0.128337 0.160797
C5    C     C_R   0.589104 0.919877 0.036619 -0.093840
C6    C     C_R   0.089103 0.580123 0.036619 -0.093840
C7    C     C_2   0.249312 0.219844 0.474755 -0.048302
C8    C     C_2   0.249429 0.780060 0.474584 -0.035934
C9    C     C_2   0.749429 0.719940 0.474584 -0.035934
C10   C     C_2   0.749312 0.280156 0.474755 -0.048302
C11   C     C_2   0.751966 0.784171 0.529607 0.250474
C12   C     C_R   0.679152 0.155677 0.519219 0.477033
C13   C     C_2   0.752001 0.215812 0.529624 0.250768
C14   C     C_2   0.252001 0.284188 0.529624 0.250768
C15   C     C_2   0.251966 0.715829 0.529607 0.250474
C16   C     C_R   0.320306 0.156302 0.480849 0.528831
C17   C     C_R   0.320334 0.843674 0.480810 0.537693
C18   C     C_R   0.820334 0.656326 0.480810 0.537693
C19   C     C_R   0.820306 0.343698 0.480849 0.528831
C20   C     C_R   0.520594 0.997776 0.260902 0.529771
C21   C     C_R   0.020594 0.502224 0.260902 0.529771
C22   C     C_R   0.478440 0.000263 0.738950 0.496261
C23   C     C_R   0.179152 0.344322 0.519219 0.477033
C24   C     C_R   0.978440 0.499737 0.738950 0.496261
C25   C     C_R   0.527860 0.988279 0.165183 0.040331
C26   C     C_R   0.027860 0.511721 0.165183 0.040331
C27   C     C_R   0.469480 0.002648 0.834642 0.038222
C28   C     C_R   0.969480 0.497352 0.834642 0.038222
C29   C     C_R   0.406304 0.068700 0.963171 -0.117420
C30   C     C_R   0.906305 0.431300 0.963171 -0.117419
C31   C     C_R   0.408987 0.059757 0.871639 -0.111033
C32   C     C_R   0.908987 0.440243 0.871639 -0.111033
C33   C     C_R   0.527368 0.954012 0.889338 -0.112806
C34   C     C_R   0.179131 0.655693 0.519186 0.487859
C35   C     C_R   0.027367 0.545989 0.889338 -0.112806
C36   C     C_R   0.527503 0.964632 0.981285 0.013407
C37   C     C_R   0.027503 0.535368 0.981285 0.013407
C38   C     C_R   0.466129 0.022138 0.018348 0.037654
C39   C     C_R   0.966129 0.477862 0.018348 0.037654
C40   C     C_R   0.466134 0.032841 0.109930 -0.144720
H1    H     H_    0.418317 0.076271 0.138496 0.124080
H2    H     H_    0.075159 0.589024 0.860147 0.122301
H3    H     H_    0.693602 0.714405 0.423876 0.087387
H4    H     H_    0.693299 0.285832 0.424256 0.059078
H5    H     H_    0.193298 0.214168 0.424256 0.059078
H6    H     H_    0.193601 0.785596 0.423877 0.087387
H7    H     H_    0.310036 0.345283 0.627165 0.319496
H8    H     H_    0.309640 0.654998 0.627531 0.318769
H9    H     H_    0.809639 0.845001 0.627532 0.318769
H10   H     H_    0.810036 0.154717 0.627166 0.319496
H11   H     H_    0.918318 0.423728 0.138496 0.124080
H12   H     H_    0.359101 0.113124 0.990642 0.119700
H13   H     H_    0.859101 0.386875 0.990642 0.119700
H14   H     H_    0.636223 0.875622 0.008705 0.148989
H15   H     H_    0.136222 0.624378 0.008704 0.148989
H16   H     H_    0.364350 0.097877 0.829449 0.139143
H17   H     H_    0.864350 0.402123 0.829449 0.139143
H18   H     H_    0.575160 0.910977 0.860147 0.122301
O1    O     O_3   0.500000 0.000000 0.500000 -0.470254
O2    O     O_R   0.885830 0.337110 0.539910 -0.466156
O3    O     O_R   0.692160 0.095230 0.468550 -0.542747
O4    O     O_R   0.692160 0.904770 0.468550 -0.518230
O5    O     O_R   0.192160 0.595230 0.468550 -0.518229
O6    O     O_R   0.192160 0.404770 0.468550 -0.542747
O7    O     O_R   0.316720 0.904790 0.427870 -0.541329
O8    O     O_R   0.316720 0.095210 0.427870 -0.553061
O9    O     O_R   0.816720 0.404790 0.427870 -0.553061
O10   O     O_R   0.816720 0.595210 0.427870 -0.541329
O11   O     O_R   0.594900 0.000000 0.310900 -0.496663
O12   O     O_3   1.000000 0.500000 0.500000 -0.470254
O13   O     O_R   0.094900 0.500000 0.310900 -0.496663
O14   O     O_R   0.483090 0.932320 0.697550 -0.533515
O15   O     O_R   0.483090 0.067680 0.697550 -0.537129
O16   O     O_R   0.983090 0.432320 0.697550 -0.537129
O17   O     O_R   0.983090 0.567680 0.697550 -0.533515
O18   O     O_R   0.438930 0.000000 0.294000 -0.542574
O19   O     O_R   0.938930 0.500000 0.294000 -0.542574
O20   O     O_3   0.321884 0.293923 0.594798 -0.662526
O21   O     O_3   0.321576 0.706295 0.595075 -0.659815
O22   O     O_3   0.821575 0.793704 0.595076 -0.659815
O23   O     O_R   0.605310 0.837110 0.563680 -0.540193
O24   O     O_3   0.821884 0.206077 0.594798 -0.662525
O25   O     O_R   0.605310 0.162890 0.563680 -0.537502
O26   O     O_R   0.105310 0.337110 0.563680 -0.537502
O27   O     O_R   0.105310 0.662890 0.563680 -0.540193
O28   O     O_R   0.385830 0.162890 0.539910 -0.466156
O29   O     O_R   0.385830 0.837110 0.539910 -0.463224
O30   O     O_R   0.885830 0.662890 0.539910 -0.463224
Zn1   Zn    Zn3+2 0.493670 0.096680 0.574000 0.974287
Zn2   Zn    Zn3+2 0.493670 0.903320 0.574000 0.987572
Zn3   Zn    Zn3+2 0.993670 0.596680 0.574000 0.987572
Zn4   Zn    Zn3+2 0.993670 0.403320 0.574000 0.974287
Zn5   Zn    Zn3+2 0.617760 0.000000 0.438070 0.982890
Zn6   Zn    Zn3+2 0.117760 0.500000 0.438070 0.982890
Zn7   Zn    Zn3+2 0.394920 0.000000 0.413930 0.959526
Zn8   Zn    Zn3+2 0.894920 0.500000 0.413930 0.959526

loop_
_geom_bond_atom_site_label_1
_geom_bond_atom_site_label_2
_ccdc_geom_bond_type
C36   C38   A    
C31   H16   S    
O3    Zn5   S    
C2    H11   S    
O27   Zn3   S    
O19   Zn8   S    
O25   Zn1   S    
C37   C39   A    
O12   Zn8   S    
C1    O4    A    
O23   Zn2   S    
Br1   C3    S    
C7    C14   D    
O4    Zn5   S    
O11   Zn5   S    
C2    C39   A    
C8    C15   D    
C16   O8    A    
C27   C31   A    
C29   C38   A    
O14   Zn2   S    
H10   O24   S    
O8    Zn7   S    
O26   Zn4   S    
O16   Zn4   S    
C3    C25   A    
O5    Zn6   S    
C4    C26   A    
C24   O16   A    
C30   C39   A    
C10   C13   D    
C17   O7    A    
C15   C34   S    
C30   H13   S    
C1    C11   S    
O1    Zn2   S    
O15   Zn1   S    
O12   Zn4   S    
O9    Zn8   S    
C38   C40   A    
C18   O10   A    
Br2   C4    S    
C5    H14   S    
C21   O13   A    
C2    C26   A    
C34   O27   A    
C9    C18   S    
C24   O17   A    
C28   C32   A    
C33   C36   A    
C20   O18   A    
C10   H4    S    
C3    C5    A    
C34   O5    A    
C4    C6    A    
C18   O30   A    
C10   C19   S    
C16   O28   A    
C28   C35   A    
C19   O9    A    
C33   H18   S    
C14   O20   S    
C30   C32   A    
C17   O29   A    
C6    H15   S    
O28   Zn1   S    
C8    C17   S    
O18   Zn7   S    
C29   C31   A    
C21   C26   S    
O29   Zn2   S    
H9    O22   S    
C19   O2    A    
O12   Zn3   S    
C6    C37   A    
C7    H5    S    
C20   C25   S    
O2    Zn4   S    
C8    H6    S    
C32   H17   S    
C9    H3    S    
C40   H1    S    
C20   O11   A    
O30   Zn3   S    
O6    Zn6   S    
C14   C23   S    
O1    Zn7   S    
C23   O6    A    
C12   O25   A    
O1    Zn5   S    
C22   O15   A    
C24   C28   S    
C13   O24   S    
C27   C33   A    
H7    O20   S    
C35   H2    S    
C35   C37   A    
C1    O23   A    
C9    C11   D    
C25   C40   A    
C22   O14   A    
C12   O3    A    
C11   O22   S    
O17   Zn3   S    
C23   O26   A    
C5    C36   A    
C15   O21   S    
C29   H12   S    
O7    Zn7   S    
O12   Zn6   S    
O10   Zn8   S    
C7    C16   S    
C22   C27   S    
C12   C13   S    
O13   Zn6   S    
C21   O19   A    
O1    Zn1   S    
H8    O21   S    
