data_mof_unit_58206.cif
_audit_creation_date              2012-12-10T20:31:04-0500
_audit_creation_method            fapswitch 2.2
_symmetry_space_group_name_H-M    P1
_symmetry_Int_Tables_number       1
_space_group_crystal_system       triclinic
_cell_length_a                    14.853779
_cell_length_b                    10.699087
_cell_length_c                    9.974847
_cell_angle_alpha                 89.773761
_cell_angle_beta                  89.82084
_cell_angle_gamma                 91.818098
_cell_volume                      1584.40261849

loop_
_atom_site_label
_atom_site_type_symbol
_atom_type_description
_atom_site_fract_x
_atom_site_fract_y
_atom_site_fract_z
_atom_type_partial_charge
C1    C     C_R   0.498793 0.260796 0.500205 0.886442
C2    C     C_R   0.910072 0.607676 0.487201 0.149424
C3    C     C_R   0.943103 0.270784 0.561060 -0.235386
C4    C     C_R   0.036934 0.265046 0.563923 0.209570
C5    C     C_R   0.090400 0.373987 0.528843 0.078635
C6    C     C_R   0.046754 0.490048 0.512000 -0.037566
C7    C     C_R   0.096639 0.603769 0.494401 0.148416
C8    C     C_R   0.053727 0.717182 0.476090 -0.202671
C9    C     C_R   0.960618 0.718924 0.470934 -0.225789
C10   C     C_R   0.184924 0.374058 0.508659 0.143205
C11   C     C_R   0.231917 0.490352 0.500668 -0.069193
C12   C     C_R   0.327461 0.497583 0.500140 0.887996
C13   C     C_R   0.189057 0.603055 0.495267 -0.330512
C14   C     C_R   0.537094 0.064500 0.603253 0.123039
C15   C     C_R   0.498214 0.129093 0.498695 -0.176525
C16   C     C_R   0.462101 0.066289 0.387701 -0.221543
C17   C     C_R   0.458005 0.936905 0.385549 0.174053
C18   C     C_R   0.493883 0.871744 0.496461 -0.117897
C19   C     C_R   0.534821 0.936606 0.602104 0.016632
C20   C     C_3   0.514739 0.928206 0.749338 -0.468538
C21   C     C_3   0.517070 0.070132 0.750317 -0.008288
C22   C     C_R   0.443657 0.420706 0.072214 0.067184
C23   C     C_R   0.496143 0.739227 0.499319 0.878752
C24   C     C_R   0.561745 0.571375 0.071015 0.222769
C25   C     C_R   0.564276 0.566933 0.927044 0.190466
C26   C     C_R   0.440396 0.425402 0.931013 0.137816
C27   C     C_3   0.338410 0.425419 0.935245 0.338323
C28   C     C_3   0.344275 0.411494 0.087561 -0.469561
C29   C     C_R   0.672562 0.500293 0.499903 0.880076
C30   C     C_R   0.817003 0.608716 0.480738 -0.282770
C31   C     C_R   0.767650 0.497841 0.500553 -0.035128
C32   C     C_R   0.808352 0.385468 0.527792 -0.243848
C33   C     C_R   0.901476 0.382303 0.532057 0.074031
C34   C     C_R   0.952927 0.493238 0.510823 0.064711
H1    H     H_    0.782744 0.695228 0.462257 0.127482
H2    H     H_    0.901850 0.187878 0.584003 0.149469
N1    N     N_R   0.499390 0.499140 0.142800 -0.119922
N2    N     N_R   0.499390 0.499180 0.857150 -0.137406
O1    O     O_R   0.500010 0.316790 0.614690 -0.617565
O2    O     O_R   0.500000 0.316760 0.385350 -0.614770
O3    O     O_R   0.367850 0.499990 0.614680 -0.620208
O4    O     O_R   0.367840 0.499950 0.385340 -0.625076
O5    O     O_R   0.500000 0.683240 0.614650 -0.628543
O6    O     O_R   0.499990 0.683210 0.385310 -0.629862
O7    O     O_R   0.632160 0.500050 0.614660 -0.625105
O8    O     O_R   0.632150 0.500010 0.385320 -0.618939
Zn1   Zn    Zn3+2 0.500010 0.500020 0.653130 0.927352
Zn2   Zn    Zn3+2 0.499990 0.499980 0.346870 0.932927
C35   C     C_3   0.409524 0.873343 0.269987 -0.863185
H3    H     H_    0.358223 0.804339 0.308552 0.237651
H4    H     H_    0.373706 0.941181 0.206450 0.216439
H5    H     H_    0.458388 0.826329 0.204350 0.260641
H6    H     H_    0.446691 0.886370 0.770918 0.188036
H7    H     H_    0.570217 0.885727 0.806382 0.209531
H8    H     H_    0.450623 0.110467 0.773079 0.169944
C36   C     C_3   0.594941 0.128365 0.831403 -0.863217
H9    H     H_    0.660367 0.088503 0.802287 0.240574
H10   H     H_    0.598951 0.231005 0.814624 0.262147
H11   H     H_    0.582929 0.110537 0.939820 0.239834
C37   C     C_3   0.627254 0.659914 0.140935 -0.837933
H12   H     H_    0.619082 0.665893 0.248431 0.291700
H13   H     H_    0.697446 0.631676 0.121949 0.228069
H14   H     H_    0.617807 0.756802 0.104483 0.202001
C38   C     C_3   0.641400 0.632096 0.852271 -0.815405
H15   H     H_    0.618963 0.675952 0.759475 0.275522
H16   H     H_    0.674416 0.710636 0.906508 0.198707
H17   H     H_    0.694138 0.563635 0.831347 0.247530
C39   C     C_3   0.295352 0.550105 0.896898 -0.793764
H18   H     H_    0.342621 0.630936 0.914528 0.213149
H19   H     H_    0.272609 0.551239 0.791765 0.264076
H20   H     H_    0.233851 0.563307 0.958264 0.215955
C40   C     C_3   0.294422 0.310712 0.867108 -0.870277
H21   H     H_    0.220901 0.306555 0.888012 0.241854
H22   H     H_    0.305100 0.316366 0.757364 0.259667
H23   H     H_    0.324040 0.222860 0.903789 0.208570
H24   H     H_    0.317555 0.491149 0.144940 0.217712
H25   H     H_    0.767301 0.301151 0.545271 0.132597
H26   H     H_    0.321864 0.318298 0.127341 0.183840
C41   C     C_3   0.074894 0.146491 0.620417 -0.915249
H27   H     H_    0.102396 0.087661 0.539914 0.242833
H28   H     H_    0.126375 0.169579 0.697546 0.247240
H29   H     H_    0.022185 0.087934 0.672090 0.231930
C42   C     C_3   0.234270 0.255612 0.475775 -0.933639
H30   H     H_    0.299276 0.274729 0.423760 0.233295
H31   H     H_    0.249559 0.201895 0.567514 0.241158
H32   H     H_    0.194234 0.198045 0.403902 0.247383
H33   H     H_    0.228317 0.690212 0.486913 0.137645
H34   H     H_    0.092312 0.804183 0.463397 0.143942
H35   H     H_    0.928181 0.806980 0.454374 0.146170
H36   H     H_    0.433179 0.118189 0.305622 0.169172

loop_
_geom_bond_atom_site_label_1
_geom_bond_atom_site_label_2
_ccdc_geom_bond_type
C16   H36   S    
C19   C20   S    
C7    C8    A    
C26   C27   S    
C30   H1    S    
C37   H14   S    
C14   C21   S    
O1    Zn1   S    
C5    C6    A    
C16   C17   A    
C3    C33   A    
C15   C16   A    
C10   C42   S    
C23   O5    A    
C36   H9    S    
C37   H13   S    
C18   C19   A    
C12   O4    A    
C27   C39   S    
C1    O2    A    
C32   H25   S    
C39   H18   S    
C42   H30   S    
C8    C9    A    
C35   H4    S    
C1    C15   S    
C28   H26   S    
C2    C34   A    
C22   C28   S    
C40   H23   S    
C33   C34   A    
O7    Zn1   S    
O8    Zn2   S    
C18   C23   S    
C38   H17   S    
C24   C25   A    
C4    C41   S    
C20   H7    S    
C9    H35   S    
C41   H28   S    
C26   N2    A    
C22   N1    A    
C23   O6    A    
C6    C34   A    
C29   O7    A    
C37   H12   S    
C8    H34   S    
C25   C38   S    
C38   H16   S    
C12   O3    A    
C25   N2    A    
C41   H29   S    
C31   C32   A    
C7    C13   A    
C24   C37   S    
C35   H5    S    
C13   H33   S    
C17   C18   A    
O3    Zn1   S    
O4    Zn2   S    
N1    Zn2   S    
N2    Zn1   S    
C20   H6    S    
C40   H22   S    
C42   H31   S    
C17   C35   S    
C3    C4    A    
C28   H24   S    
C21   H8    S    
C24   N1    A    
O2    Zn2   S    
C14   C19   A    
C40   H21   S    
C21   C36   S    
C11   C12   S    
C6    C7    A    
C36   H11   S    
C29   O8    A    
C2    C30   A    
C38   H15   S    
C5    C10   A    
C29   C31   S    
C32   C33   A    
C11   C13   A    
C30   C31   A    
C3    H2    S    
C39   H20   S    
C36   H10   S    
C10   C11   A    
C1    O1    A    
C41   H27   S    
C4    C5    A    
C42   H32   S    
C20   C21   S    
C39   H19   S    
C35   H3    S    
C22   C26   A    
C27   C28   S    
C14   C15   A    
C2    C9    A    
O5    Zn1   S    
C27   C40   S    
O6    Zn2   S    
