data_mof_unit_52334.cif
_audit_creation_date              2012-12-10T17:42:40-0500
_audit_creation_method            fapswitch 2.2
_symmetry_space_group_name_H-M    P1
_symmetry_Int_Tables_number       1
_space_group_crystal_system       triclinic
_cell_length_a                    9.941334
_cell_length_b                    10.602465
_cell_length_c                    13.063579
_cell_angle_alpha                 91.44565
_cell_angle_beta                  69.641665
_cell_angle_gamma                 90.145528
_cell_volume                      1290.48633156

loop_
_atom_site_label
_atom_site_type_symbol
_atom_type_description
_atom_site_fract_x
_atom_site_fract_y
_atom_site_fract_z
_atom_type_partial_charge
C1    C     C_R   0.499847 0.739215 0.500508 0.854390
C2    C     C_R   0.431354 0.480351 0.984955 0.094104
C3    C     C_R   0.456491 0.443371 0.876174 0.072180
C4    C     C_R   0.542271 0.460586 0.027512 0.066301
C5    C     C_R   0.666933 0.387510 0.967823 0.010341
C6    C     C_R   0.669056 0.323708 0.870450 -0.038479
C7    C     C_R   0.568186 0.357248 0.823631 -0.237734
C8    C     C_R   0.532581 0.514718 0.127706 -0.249732
C9    C     C_R   0.757051 0.421239 0.117875 -0.288513
C10   C     C_R   0.367194 0.491453 0.822856 -0.106187
C11   C     C_R   0.589960 0.861581 0.294318 -0.224792
C12   C     C_R   0.419755 0.495990 0.704191 0.817030
C13   C     C_R   0.633460 0.923808 0.194772 0.152322
C14   C     C_R   0.633826 0.055319 0.194627 -0.077415
C15   C     C_R   0.590770 0.124416 0.293077 -0.231350
C16   C     C_R   0.546479 0.062489 0.393934 0.085165
C17   C     C_R   0.546197 0.930601 0.394781 0.062955
C18   C     C_R   0.501634 0.871696 0.496796 -0.121261
C19   C     C_R   0.457333 0.940090 0.596431 0.077213
C20   C     C_R   0.458306 0.069212 0.594472 -0.162936
C21   C     C_R   0.502078 0.128663 0.494862 -0.123546
C22   C     C_R   0.796984 0.665708 0.643476 -0.143074
C23   C     C_R   0.500233 0.260887 0.499294 0.872241
C24   C     C_R   0.834833 0.743663 0.716264 -0.174731
C25   C     C_R   0.973138 0.740178 0.718109 -0.178094
C26   C     C_R   0.074688 0.659584 0.646439 -0.144292
C27   C     C_R   0.040092 0.579245 0.571900 0.187202
C28   C     C_R   0.896119 0.580630 0.571110 0.188095
C29   C     C_R   0.959632 0.423344 0.431623 -0.088732
C30   C     C_R   0.102650 0.423680 0.431397 -0.095054
C31   C     C_R   0.580245 0.499009 0.295555 0.850637
C32   C     C_R   0.781729 0.380447 0.009793 -0.013596
C33   C     C_R   0.629286 0.483291 0.177503 -0.089307
C34   C     C_R   0.237556 0.551763 0.883137 -0.178174
C35   C     C_R   0.200139 0.569529 0.995213 -0.102536
C36   C     C_R   0.296926 0.537043 0.045899 -0.177209
H1    H     H_    0.837035 0.405299 0.155292 0.184672
H2    H     H_    0.590841 0.759667 0.292001 0.127453
H3    H     H_    0.667292 0.104334 0.118141 0.187990
H4    H     H_    0.592316 0.226194 0.289614 0.141425
H5    H     H_    0.424599 0.123653 0.670783 0.149976
H6    H     H_    0.931497 0.360649 0.375703 0.148075
H7    H     H_    0.689621 0.675895 0.646070 0.194075
H8    H     H_    0.756297 0.807573 0.771279 0.170298
H9    H     H_    0.002395 0.800980 0.774760 0.164853
H10   H     H_    0.179229 0.662627 0.651340 0.189216
H11   H     H_    0.181589 0.361210 0.375232 0.153620
H12   H     H_    0.445695 0.577619 0.172184 0.147729
H13   H     H_    0.166976 0.587754 0.843383 0.161441
H14   H     H_    0.262203 0.554782 0.132902 0.130488
H15   H     H_    0.098535 0.613620 0.042269 0.139230
H16   H     H_    0.572058 0.310048 0.748086 0.187980
N1    N     N_R   0.856860 0.501200 0.500990 -0.115404
N2    N     N_R   0.142450 0.501280 0.501020 -0.119742
O1    O     O_R   0.385310 0.683220 0.500000 -0.630380
O2    O     O_R   0.614640 0.683250 0.500010 -0.631158
O3    O     O_R   0.328400 0.499950 0.653610 -0.627287
O4    O     O_R   0.557730 0.499970 0.653620 -0.618334
O5    O     O_R   0.385360 0.316750 0.499990 -0.602576
O6    O     O_R   0.614690 0.316780 0.500000 -0.596350
O7    O     O_R   0.442270 0.500030 0.346380 -0.611567
O8    O     O_R   0.671600 0.500050 0.346390 -0.615197
Zn1   Zn    Zn3+2 0.346880 0.499980 0.499990 0.940410
Zn2   Zn    Zn3+2 0.653120 0.500020 0.500010 0.947784
N3    N     N_3   0.677265 0.853872 0.093316 -0.434499
H17   H     H_    0.762330 0.794578 0.090777 0.189727
H18   H     H_    0.591755 0.796726 0.092514 0.186323
C37   C     C_2   0.762249 0.212921 0.821097 0.945900
O9    O     O_2   0.789038 0.135765 0.879493 -0.648110
O10   O     O_R   0.814111 0.193816 0.707658 -0.786411
H19   H     H_    0.874485 0.114249 0.683875 0.345222
C38   C     C_2   0.930630 0.343462 0.941636 0.933556
O11   O     O_2   0.006830 0.288187 0.982258 -0.615168
O12   O     O_R   0.985862 0.376541 0.831870 -0.809072
H20   H     H_    0.088210 0.346071 0.793973 0.352930
N4    N     N_3   0.410422 0.880265 0.700189 -0.444596
H21   H     H_    0.493610 0.823268 0.704698 0.171521
H22   H     H_    0.322866 0.822870 0.705222 0.170527

loop_
_geom_bond_atom_site_label_1
_geom_bond_atom_site_label_2
_ccdc_geom_bond_type
C16   C21   A    
C29   H6    S    
C31   O7    A    
C35   C36   A    
C4    C8    A    
C20   H5    S    
C27   N2    A    
C32   C38   S    
C13   N3    S    
C23   O5    A    
C30   N2    A    
C26   C27   A    
C19   N4    S    
C1    O2    A    
N4    H22   S    
C7    H16   S    
C18   C19   A    
C3    C7    A    
C5    C6    A    
N1    Zn2   S    
N2    Zn1   S    
C15   C16   A    
C34   C35   A    
O7    Zn1   S    
O8    Zn2   S    
C9    C32   A    
C14   H3    S    
C37   O9    D    
C19   C20   A    
C16   C17   A    
N3    H18   S    
O1    Zn1   S    
C31   C33   S    
O10   H19   S    
C5    C32   A    
C12   O4    A    
C6    C37   S    
C22   C28   A    
C13   C14   A    
C9    C33   A    
C31   O8    A    
O3    Zn1   S    
O4    Zn2   S    
C23   O6    A    
O12   H20   S    
C30   H11   S    
N4    H21   S    
C38   O12   S    
C4    C5    A    
C25   C26   A    
C11   H2    S    
C2    C4    A    
C8    H12   S    
C29   C30   A    
C22   H7    S    
C9    H1    S    
C17   C18   A    
C1    C18   S    
C10   C34   A    
C24   C25   A    
C10   C12   S    
C12   O3    A    
C21   C23   S    
C35   H15   S    
C24   H8    S    
C22   C24   A    
C25   H9    S    
C36   H14   S    
C2    C36   A    
C11   C17   A    
C34   H13   S    
C38   O11   D    
C28   N1    A    
C6    C7    A    
O5    Zn1   S    
O6    Zn2   S    
C2    C3    A    
C1    O1    A    
C3    C10   A    
C11   C13   A    
O2    Zn2   S    
C29   N1    A    
C8    C33   A    
C15   H4    S    
C26   H10   S    
C20   C21   A    
C37   O10   S    
N3    H17   S    
C27   C28   A    
C14   C15   A    
