data_mof_unit_36945.cif
_audit_creation_date              2012-10-26T18:34:45-0400
_audit_creation_method            fapswitch 2.2
_symmetry_space_group_name_H-M    P1
_symmetry_Int_Tables_number       1
_space_group_crystal_system       triclinic
_cell_length_a                    10.768684
_cell_length_b                    9.510567
_cell_length_c                    17.755734
_cell_angle_alpha                 89.985312
_cell_angle_beta                  90.23176
_cell_angle_gamma                 90.472996
_cell_volume                      1818.3995284

loop_
_atom_site_label
_atom_site_type_symbol
_atom_type_description
_atom_site_fract_x
_atom_site_fract_y
_atom_site_fract_z
_atom_type_partial_charge
C1    C     C_R   0.262815 0.499705 0.487832 0.554510
C2    C     C_R   0.500120 0.499979 0.644347 0.575744
C3    C     C_R   0.870353 0.503189 0.464767 -0.005994
C4    C     C_R   0.129161 0.500643 0.463822 -0.002668
C5    C     C_R   0.541085 0.620389 0.845222 0.216009
C6    C     C_R   0.541625 0.380433 0.155325 0.214601
C7    C     C_R   0.459365 0.619429 0.155001 0.215485
C8    C     C_R   0.460318 0.379263 0.845093 0.214304
C9    C     C_R   0.538637 0.619791 0.766591 -0.110185
C10   C     C_R   0.539242 0.381078 0.233914 -0.126899
C11   C     C_R   0.461442 0.618848 0.233602 -0.123902
C12   C     C_R   0.737293 0.500884 0.488801 0.550546
C13   C     C_R   0.462402 0.379929 0.766465 -0.112725
C14   C     C_R   0.500368 0.499908 0.726968 -0.083648
C15   C     C_R   0.500299 0.500000 0.273232 -0.097072
C16   C     C_R   0.458023 0.073944 0.438940 -0.002864
C17   C     C_R   0.544279 0.926037 0.560532 0.011645
C18   C     C_R   0.544013 0.074693 0.560605 0.012237
C19   C     C_R   0.458263 0.925401 0.438857 0.000559
C20   C     C_R   0.500753 0.499827 0.885121 -0.001675
C21   C     C_R   0.500578 0.499918 0.115190 -0.002019
C22   C     C_3   0.132959 0.245032 0.416292 -0.270055
C23   C     C_1   0.500761 0.499860 0.966268 0.181282
C24   C     C_3   0.192614 0.275931 0.340076 -0.414627
C25   C     C_3   0.865146 0.767825 0.431966 -0.260991
C26   C     C_3   0.793862 0.753481 0.357639 -0.392153
C27   C     C_3   0.856672 0.250635 0.415453 -0.240843
C28   C     C_3   0.839521 0.135765 0.475103 -0.405403
C29   C     C_3   0.139801 0.761513 0.426310 -0.248229
C30   C     C_3   0.155103 0.867211 0.491080 -0.401610
C31   C     C_1   0.500703 0.499884 0.034052 0.180311
C32   C     C_R   0.063545 0.373977 0.445636 0.013793
C33   C     C_R   0.935357 0.632421 0.451651 0.010522
C34   C     C_R   0.931586 0.376020 0.445584 0.002523
C35   C     C_R   0.067149 0.630399 0.450507 0.007429
C36   C     C_R   0.500142 0.500014 0.355707 0.516980
Cu1   Cu    Cu3+1 0.500000 0.640660 0.500000 0.918322
Cu2   Cu    Cu3+1 0.500000 0.359340 0.500000 0.923718
H1    H     H_    0.568006 0.712696 0.736016 0.181669
H2    H     H_    0.696480 0.041126 0.140296 0.400037
H3    H     H_    0.304491 0.958678 0.138812 0.399861
H4    H     H_    0.304868 0.037633 0.861090 0.403025
H5    H     H_    0.120288 0.307275 0.298712 0.170177
H6    H     H_    0.262201 0.361884 0.344784 0.167707
H7    H     H_    0.239090 0.180289 0.318627 0.144050
H8    H     H_    0.201215 0.205175 0.457137 0.176871
H9    H     H_    0.074035 0.151253 0.408146 0.130814
H10   H     H_    0.733784 0.658557 0.356878 0.176728
H11   H     H_    0.734883 0.847368 0.348809 0.152298
H12   H     H_    0.569177 0.289023 0.264723 0.180913
H13   H     H_    0.860399 0.745850 0.310204 0.158835
H14   H     H_    0.805305 0.802814 0.478593 0.175429
H15   H     H_    0.924546 0.861126 0.424955 0.125306
H16   H     H_    0.928367 0.083689 0.488113 0.120726
H17   H     H_    0.804402 0.178859 0.528828 0.188447
H18   H     H_    0.772033 0.056153 0.454027 0.135682
H19   H     H_    0.765053 0.283399 0.393165 0.173841
H20   H     H_    0.899045 0.206735 0.363845 0.140315
H21   H     H_    0.211181 0.824112 0.537932 0.205293
H22   H     H_    0.202544 0.962752 0.469931 0.116854
H23   H     H_    0.431321 0.710891 0.264156 0.176110
H24   H     H_    0.064544 0.897374 0.515147 0.134219
H25   H     H_    0.231010 0.735112 0.401824 0.163690
H26   H     H_    0.095651 0.812053 0.376836 0.133633
H27   H     H_    0.432969 0.287019 0.735779 0.189464
H28   H     H_    0.424152 0.128968 0.389954 0.122750
H29   H     H_    0.580731 0.870908 0.608923 0.131077
H30   H     H_    0.580278 0.130458 0.609057 0.131029
H31   H     H_    0.424130 0.869966 0.389804 0.119310
H32   H     H_    0.696446 0.962126 0.861632 0.402633
N1    N     N_R   0.500000 0.852070 0.500000 -0.234208
N2    N     N_R   0.500000 0.147930 0.500000 -0.231931
O1    O     O_R   0.319640 0.618740 0.499990 -0.501704
O2    O     O_2   0.677910 0.739360 0.955089 -0.235830
O3    O     O_3   0.665847 0.882491 0.830572 -0.525642
O4    O     O_2   0.481436 0.149977 0.078914 -0.166936
O5    O     O_2   0.679129 0.264623 0.046269 -0.234227
O6    O     O_3   0.667680 0.121550 0.170847 -0.538409
O7    O     O_2   0.519885 0.849723 0.078773 -0.166132
O8    O     O_2   0.322189 0.735198 0.045079 -0.233995
O9    O     O_3   0.333466 0.878463 0.169622 -0.541851
O10   O     O_2   0.522031 0.150649 0.921836 -0.166004
O11   O     O_2   0.323731 0.260228 0.954397 -0.236292
O12   O     O_R   0.680360 0.381260 0.500010 -0.502896
O13   O     O_3   0.335886 0.116911 0.830048 -0.518025
O14   O     O_R   0.680360 0.618740 0.500010 -0.501675
O15   O     O_R   0.319640 0.381260 0.499990 -0.495120
O16   O     O_R   0.500000 0.618830 0.391250 -0.523143
O17   O     O_R   0.500000 0.381170 0.608750 -0.495436
O18   O     O_R   0.500000 0.618830 0.608750 -0.495413
O19   O     O_R   0.500000 0.381170 0.391250 -0.522221
O20   O     O_2   0.479726 0.849202 0.921519 -0.164688
S1    S     S_3+6 0.591665 0.775420 0.891294 0.075579
S2    S     S_3+6 0.593018 0.226593 0.109644 0.067139
S3    S     S_3+6 0.408183 0.773254 0.108919 0.067474
S4    S     S_3+6 0.409980 0.224202 0.891031 0.075838

loop_
_geom_bond_atom_site_label_1
_geom_bond_atom_site_label_2
_ccdc_geom_bond_type
C1    O15   A    
C29   H25   S    
C32   C34   A    
C8    C13   A    
Cu1   O16   S    
C19   N1    A    
C8    S4    S    
C16   N2    A    
C28   H18   S    
C5    C20   A    
C13   H27   S    
C36   O16   A    
C5    C9    A    
C21   C31   S    
Cu2   O17   S    
C8    C20   A    
C22   C32   S    
Cu1   O18   S    
C24   H7    S    
Cu1   Cu2   S    
C25   H15   S    
C10   C15   A    
O9    S3    S    
O13   S4    S    
C3    C33   A    
C18   H30   S    
O5    S2    D    
C9    H1    S    
C12   O12   A    
C2    O18   A    
C3    C12   S    
O4    S2    D    
C11   C15   A    
C6    S2    S    
C30   H22   S    
C26   H10   S    
C22   H9    S    
C4    C35   A    
C13   C14   A    
O2    S1    D    
C28   H17   S    
C27   C34   S    
C18   N2    A    
Cu2   N2    S    
C17   H29   S    
O10   S4    D    
Cu1   O14   S    
C27   H19   S    
C26   H11   S    
C28   H16   S    
C3    C34   A    
C25   C26   S    
C7    C21   A    
C6    C21   A    
Cu2   O19   S    
C23   C31   T    
C2    O17   A    
C7    C11   A    
C9    C14   A    
O7    S3    D    
C29   C30   S    
C20   C23   S    
H3    O9    S    
C30   H21   S    
C17   C18   A    
H4    O13   S    
O8    S3    D    
C4    C32   A    
C36   O19   A    
C22   H8    S    
C17   N1    A    
C30   H24   S    
C24   H6    S    
H2    O6    S    
C19   H31   S    
C16   H28   S    
C10   H12   S    
C15   C36   S    
H32   O3    S    
O3    S1    S    
Cu1   O1    S    
Cu2   O12   S    
C11   H23   S    
C27   H20   S    
C6    C10   A    
C5    S1    S    
C7    S3    S    
C29   C35   S    
C12   O14   A    
Cu2   O15   S    
C1    C4    S    
C1    O1    A    
Cu1   N1    S    
C25   H14   S    
C26   H13   S    
O6    S2    S    
C16   C19   A    
O11   S4    D    
O20   S1    D    
C33   C35   A    
C22   C24   S    
C2    C14   S    
C29   H26   S    
C27   C28   S    
C24   H5    S    
C25   C33   S    
