data_mof_unit_40788.cif
_audit_creation_date              2012-12-10T17:34:27-0500
_audit_creation_method            fapswitch 2.2
_symmetry_space_group_name_H-M    P1
_symmetry_Int_Tables_number       1
_space_group_crystal_system       triclinic
_cell_length_a                    12.365499
_cell_length_b                    13.107578
_cell_length_c                    14.292214
_cell_angle_alpha                 78.771223
_cell_angle_beta                  99.761038
_cell_angle_gamma                 116.416362
_cell_volume                      2025.83135565

loop_
_atom_site_label
_atom_site_type_symbol
_atom_type_description
_atom_site_fract_x
_atom_site_fract_y
_atom_site_fract_z
_atom_type_partial_charge
C1    C     C_R   0.854891 0.285467 0.511005 0.768707
C2    C     C_1   0.000968 0.499371 0.229321 -0.214447
C3    C     C_R   0.277473 0.035594 0.413007 0.153391
C4    C     C_R   0.230132 0.835587 0.472086 -0.100246
C5    C     C_R   0.811026 0.077276 0.577247 0.171234
C6    C     C_R   0.731041 0.960888 0.583358 -0.182525
C7    C     C_R   0.611783 0.925620 0.544861 -0.233311
C8    C     C_R   0.567510 0.005860 0.495994 0.092674
C9    C     C_R   0.652055 0.121091 0.473554 -0.003243
C10   C     C_R   0.441730 0.975799 0.469959 0.031531
C11   C     C_R   0.402743 0.059648 0.417924 0.058744
C12   C     C_R   0.999210 0.499767 0.668470 0.801826
C13   C     C_R   0.490704 0.161970 0.372124 0.114070
C14   C     C_R   0.613455 0.192595 0.403087 -0.184315
C15   C     C_R   0.353305 0.865430 0.497550 -0.246419
C16   C     C_R   0.191958 0.921119 0.431875 -0.189669
C17   C     C_R   0.773314 0.159988 0.518945 -0.125919
C18   C     C_R   0.350863 0.346819 0.667472 0.067781
C19   C     C_R   0.771813 0.660007 0.389256 0.070375
C20   C     C_R   0.693033 0.712442 0.383148 0.108206
C21   C     C_R   0.590294 0.654655 0.433773 -0.299445
C22   C     C_R   0.562564 0.544343 0.485347 -0.018568
C23   C     C_R   0.145257 0.713602 0.487294 0.801004
C24   C     C_R   0.655038 0.505996 0.502263 0.279103
C25   C     C_R   0.451988 0.477950 0.529620 -0.070242
C26   C     C_R   0.450833 0.396937 0.611549 0.112113
C27   C     C_R   0.549041 0.367452 0.634218 -0.274254
C28   C     C_R   0.646104 0.417114 0.578133 -0.173194
C29   C     C_R   0.340547 0.484081 0.492934 0.277315
C30   C     C_R   0.251586 0.372875 0.636037 -0.025542
C31   C     C_R   0.000510 0.499928 0.331544 0.808753
C32   C     C_1   0.997951 0.499576 0.770711 -0.206531
C33   C     C_1   0.997941 0.499301 0.856309 -0.012736
C34   C     C_1   0.998676 0.499055 0.957205 -0.002290
C35   C     C_1   0.999546 0.498981 0.042900 -0.002259
C36   C     C_1   0.000513 0.499095 0.143757 -0.024266
Cu1   Cu    Cu3+1 0.098280 0.475420 0.520190 0.907096
Cu2   Cu    Cu3+1 0.901720 0.524580 0.479810 0.910845
H1    H     H_    0.715369 0.387847 0.600871 0.200593
N1    N     N_R   0.246290 0.438200 0.550780 -0.195689
N2    N     N_R   0.754310 0.561180 0.449760 -0.224947
O1    O     O_R   0.972510 0.318130 0.525390 -0.570636
O2    O     O_R   0.806530 0.359650 0.491290 -0.597317
O3    O     O_R   0.083010 0.479240 0.641000 -0.562740
O4    O     O_R   0.917030 0.520750 0.606900 -0.568115
O5    O     O_R   0.193470 0.640350 0.508710 -0.582032
O6    O     O_R   0.027490 0.681870 0.474610 -0.584316
O7    O     O_R   0.082970 0.479250 0.393100 -0.554754
O8    O     O_R   0.916990 0.520760 0.359000 -0.565256
H2    H     H_    0.095969 0.899820 0.419757 0.152053
H3    H     H_    0.550739 0.302907 0.693682 0.164704
C37   C     C_3   0.349534 0.272561 0.763314 -0.417548
C38   C     C_3   0.301728 0.146313 0.751192 -0.841705
H4    H     H_    0.356896 0.134723 0.703963 0.256168
H5    H     H_    0.306026 0.095087 0.822232 0.245673
H6    H     H_    0.205677 0.113722 0.720140 0.247694
H7    H     H_    0.441107 0.302717 0.803041 0.204192
H8    H     H_    0.290437 0.280055 0.809716 0.194696
C39   C     C_3   0.317953 0.518840 0.385620 -0.351803
C40   C     C_3   0.241341 0.413768 0.333614 -0.788913
H9    H     H_    0.299111 0.372923 0.323015 0.213739
H10   H     H_    0.164803 0.348686 0.373741 0.272762
H11   H     H_    0.205235 0.441304 0.261631 0.239164
H12   H     H_    0.282500 0.584805 0.372699 0.215357
H13   H     H_    0.399422 0.560713 0.346710 0.180242
H14   H     H_    0.852859 0.701689 0.352125 0.144574
H15   H     H_    0.531552 0.696490 0.432686 0.142173
C41   C     C_3   0.714135 0.829196 0.326329 -0.403514
C42   C     C_3   0.831219 0.890750 0.276647 -0.874400
H16   H     H_    0.911303 0.906682 0.330243 0.244273
H17   H     H_    0.831653 0.839316 0.223569 0.249196
H18   H     H_    0.837572 0.975113 0.238034 0.251909
H19   H     H_    0.636322 0.818523 0.271024 0.207264
H20   H     H_    0.715569 0.885955 0.375557 0.221079
C43   C     C_3   0.459337 0.234290 0.284456 -0.433616
C44   C     C_3   0.519753 0.240675 0.197124 -0.820689
H21   H     H_    0.619519 0.291204 0.207111 0.246274
H22   H     H_    0.498977 0.152814 0.183753 0.254640
H23   H     H_    0.484513 0.283846 0.132922 0.239679
H24   H     H_    0.360913 0.197470 0.261944 0.205091
H25   H     H_    0.487892 0.322575 0.301117 0.206110
C45   C     C_3   0.234946 0.129529 0.404360 -0.440375
C46   C     C_3   0.163456 0.113479 0.487751 -0.830082
H26   H     H_    0.071125 0.042582 0.480216 0.241753
H27   H     H_    0.211847 0.094387 0.556651 0.264523
H28   H     H_    0.154112 0.193367 0.489187 0.243957
H29   H     H_    0.314065 0.213994 0.407382 0.215474
H30   H     H_    0.177733 0.131461 0.335716 0.199849
H31   H     H_    0.377758 0.799719 0.538590 0.160280
C47   C     C_3   0.931253 0.106594 0.638958 -0.395566
C48   C     C_3   0.934189 0.159598 0.726121 -0.815831
H32   H     H_    0.926383 0.242136 0.704461 0.245815
H33   H     H_    0.858324 0.099527 0.769487 0.248997
H34   H     H_    0.020915 0.175696 0.771597 0.229618
H35   H     H_    0.945801 0.027830 0.666743 0.186432
H36   H     H_    0.009482 0.161707 0.597225 0.222075
H37   H     H_    0.557002 0.834278 0.555456 0.137103
H38   H     H_    0.758879 0.895946 0.623398 0.143531
H39   H     H_    0.678950 0.270794 0.367466 0.180411
H40   H     H_    0.176290 0.338763 0.679271 0.155377

loop_
_geom_bond_atom_site_label_1
_geom_bond_atom_site_label_2
_ccdc_geom_bond_type
C8    C9    A    
C19   C20   A    
C18   C26   A    
C44   H23   S    
C9    C14   A    
C18   C37   S    
C7    C8    A    
Cu2   O8    S    
C38   H4    S    
C26   C27   A    
C40   H11   S    
C6    H38   S    
C16   H2    S    
Cu1   N1    S    
C10   C15   A    
C5    C6    A    
C15   H31   S    
C41   H20   S    
C45   H29   S    
C30   H40   S    
C19   H14   S    
C40   H10   S    
C34   C35   T    
Cu1   O1    S    
C42   H17   S    
Cu2   O4    S    
C1    O2    A    
C13   C43   S    
C41   C42   S    
C22   C25   A    
C18   C30   A    
C43   H24   S    
C5    C47   S    
C39   C40   S    
C23   O5    A    
C21   C22   A    
C21   H15   S    
C24   N2    A    
C31   O8    A    
C27   H3    S    
C38   H5    S    
C25   C29   A    
C23   O6    A    
C29   C39   S    
C14   H39   S    
C44   H21   S    
Cu2   N2    S    
C10   C11   A    
C48   H32   S    
C4    C23   S    
C43   H25   S    
C28   H1    S    
C41   H19   S    
C40   H9    S    
C35   C36   S    
C4    C16   A    
C42   H18   S    
C43   C44   S    
Cu1   Cu2   S    
C48   H33   S    
C46   H26   S    
C3    C45   S    
C33   C34   S    
C39   H12   S    
C30   N1    A    
Cu1   O7    S    
Cu2   O6    S    
C37   H8    S    
C9    C17   A    
C46   H27   S    
C31   O7    A    
C22   C24   A    
C37   C38   S    
C38   H6    S    
C2    C36   T    
C7    H37   S    
C20   C41   S    
C24   C28   A    
C44   H22   S    
C12   O4    A    
C47   H35   S    
C47   H36   S    
C6    C7    A    
C1    C17   S    
C32   C33   T    
C4    C15   A    
C25   C26   A    
Cu2   O2    S    
C12   O3    A    
C39   H13   S    
C48   H34   S    
C11   C13   A    
C47   C48   S    
Cu1   O3    S    
C45   H30   S    
C29   N1    A    
C42   H16   S    
C3    C11   A    
C37   H7    S    
C1    O1    A    
C46   H28   S    
C5    C17   A    
C20   C21   A    
C8    C10   A    
C45   C46   S    
C27   C28   A    
C2    C31   S    
Cu1   O5    S    
C13   C14   A    
C12   C32   S    
C3    C16   A    
C19   N2    A    
