data_mof_unit_47045.cif
_audit_creation_date              2012-10-26T19:05:03-0400
_audit_creation_method            fapswitch 2.2
_symmetry_space_group_name_H-M    P1
_symmetry_Int_Tables_number       1
_space_group_crystal_system       triclinic
_cell_length_a                    15.880773
_cell_length_b                    10.777835
_cell_length_c                    9.61843
_cell_angle_alpha                 89.911558
_cell_angle_beta                  90.023235
_cell_angle_gamma                 92.6065
_cell_volume                      1644.58857608

loop_
_atom_site_label
_atom_site_type_symbol
_atom_type_description
_atom_site_fract_x
_atom_site_fract_y
_atom_site_fract_z
_atom_type_partial_charge
C1    C     C_R   0.497673 0.262726 0.500147 0.541459
C2    C     C_R   0.290938 0.049424 0.687333 -0.085929
C3    C     C_R   0.291134 0.920361 0.686897 -0.060419
C4    C     C_R   0.340390 0.499780 0.500043 0.526513
C5    C     C_R   0.357579 0.860310 0.625570 -0.076786
C6    C     C_R   0.426064 0.929172 0.564794 -0.030852
C7    C     C_R   0.425781 0.060377 0.565208 0.007853
C8    C     C_R   0.493036 0.128703 0.500477 -0.051138
C9    C     C_R   0.557865 0.068863 0.434352 -0.084998
C10   C     C_R   0.558737 0.940866 0.434860 0.365160
C11   C     C_R   0.493894 0.870800 0.500247 0.020731
C12   C     C_3   0.948781 0.422836 0.621185 0.235087
C13   C     C_R   0.612301 0.664335 0.143187 -0.072340
C14   C     C_R   0.667567 0.744705 0.071521 -0.115034
C15   C     C_R   0.668229 0.745977 0.927269 0.004605
C16   C     C_R   0.498610 0.737178 0.499980 0.581769
C17   C     C_R   0.612305 0.664887 0.856123 -0.091413
C18   C     C_R   0.555142 0.581096 0.925279 0.131561
C19   C     C_R   0.555131 0.580925 0.074472 0.142106
C20   C     C_R   0.447543 0.422845 0.073916 0.021437
C21   C     C_R   0.447573 0.422847 0.926146 0.023433
C22   C     C_R   0.659625 0.500796 0.499997 0.565893
C23   C     C_3   0.917152 0.504210 0.500080 -0.037817
C24   C     C_3   0.046528 0.421184 0.619773 0.268875
C25   C     C_3   0.047167 0.451004 0.360587 0.240280
C26   C     C_3   0.949482 0.452365 0.360241 0.306982
C27   C     C_1   0.749314 0.502394 0.500164 0.059250
C28   C     C_3   0.082997 0.504555 0.499835 -0.039078
C29   C     C_2   0.727398 0.831864 0.849930 0.592839
C30   C     C_2   0.091362 0.734252 0.422178 0.562115
C31   C     C_3   0.954546 0.638552 0.519467 -0.271213
C32   C     C_3   0.052647 0.639355 0.522848 -0.108406
C33   C     C_1   0.824891 0.503568 0.500273 0.053490
C34   C     C_1   0.175315 0.502790 0.500127 0.049300
C35   C     C_1   0.250800 0.501254 0.500100 0.031696
C36   C     C_R   0.357219 0.119260 0.626510 -0.084993
Cu1   Cu    Cu3+1 0.499990 0.499990 0.640660 0.959178
Cu2   Cu    Cu3+1 0.500010 0.500010 0.359340 0.981890
F1    F     F_    0.914641 0.302437 0.610396 -0.612920
F2    F     F_    0.078287 0.461665 0.747091 -0.632446
F3    F     F_    0.624658 0.885247 0.375307 -0.642283
F4    F     F_    0.071854 0.330287 0.341902 -0.627220
F5    F     F_    0.922764 0.523742 0.249905 -0.601124
H1    H     H_    0.927389 0.461225 0.721909 0.206126
H2    H     H_    0.617334 0.671716 0.252680 0.233507
H3    H     H_    0.710122 0.806314 0.130017 0.218086
H4    H     H_    0.616011 0.670801 0.746635 0.222831
H5    H     H_    0.404587 0.359476 0.871174 0.122683
H6    H     H_    0.073152 0.505875 0.271452 0.236787
H7    H     H_    0.922521 0.356252 0.344701 0.232349
H8    H     H_    0.073035 0.669108 0.629088 0.189422
H9    H     H_    0.931256 0.677557 0.618702 0.134465
H10   H     H_    0.770886 0.894279 0.664055 0.372853
H11   H     H_    0.097534 0.802207 0.226694 0.365082
H12   H     H_    0.931465 0.699023 0.434977 0.233002
H13   H     H_    0.609181 0.121972 0.384817 0.167324
H14   H     H_    0.353444 0.219187 0.626418 0.130191
H15   H     H_    0.238801 0.095650 0.733792 0.148754
H16   H     H_    0.239132 0.866440 0.732986 0.155032
H17   H     H_    0.353952 0.759966 0.624830 0.141643
H18   H     H_    0.404515 0.359503 0.128973 0.132858
H19   H     H_    0.066088 0.324172 0.605371 0.237713
N1    N     N_R   0.500800 0.501210 0.147910 -0.245265
N2    N     N_R   0.500820 0.501290 0.852040 -0.242707
O1    O     O_R   0.499990 0.319640 0.618810 -0.495283
O2    O     O_R   0.727816 0.831919 0.704425 -0.690550
O3    O     O_2   0.143246 0.812688 0.464344 -0.505164
O4    O     O_R   0.067169 0.733930 0.282381 -0.646873
O5    O     O_R   0.500000 0.319660 0.381240 -0.498327
O6    O     O_R   0.379430 0.499990 0.618840 -0.511435
O7    O     O_R   0.379440 0.500020 0.381260 -0.492204
O8    O     O_R   0.500000 0.680340 0.618760 -0.534515
O9    O     O_R   0.500010 0.680360 0.381190 -0.493435
O10   O     O_R   0.620560 0.499980 0.618740 -0.507033
O11   O     O_R   0.620570 0.500010 0.381160 -0.510864
O12   O     O_2   0.776025 0.902813 0.913035 -0.454144

loop_
_geom_bond_atom_site_label_1
_geom_bond_atom_site_label_2
_ccdc_geom_bond_type
C13   H2    S    
Cu1   O10   S    
C1    C8    S    
C7    C36   A    
C16   O8    A    
C31   H9    S    
C4    O6    A    
C7    C8    A    
C14   H3    S    
C29   O12   D    
C27   C33   T    
C25   C28   S    
C12   C23   S    
C18   C19   A    
C26   H7    S    
C5    C6    A    
H11   O4    S    
C34   C35   T    
C23   C26   S    
C20   H18   S    
C21   N2    A    
C19   N1    A    
C8    C9    A    
C23   C33   S    
Cu1   O1    S    
C1    O1    A    
C9    C10   A    
C30   O3    D    
C21   H5    S    
Cu2   O5    S    
C28   C34   S    
C13   C14   A    
C10   F3    S    
C22   O11   A    
C26   F5    S    
C15   C29   S    
Cu2   O11   S    
C13   C19   A    
C16   O9    A    
C17   H4    S    
C28   C32   S    
C36   H14   S    
C6    C11   A    
C25   C26   S    
C1    O5    A    
C23   C31   S    
C32   H8    S    
Cu1   Cu2   S    
C11   C16   S    
C31   C32   S    
C17   C18   A    
C9    H13   S    
H10   O2    S    
C22   C27   S    
C22   O10   A    
Cu1   N2    S    
Cu2   N1    S    
C2    C36   A    
C15   C17   A    
Cu2   O7    S    
C24   H19   S    
C5    H17   S    
C24   C28   S    
C3    C5    A    
C25   F4    S    
C2    H15   S    
C6    C7    A    
C12   C24   S    
C12   F1    S    
C2    C3    A    
C12   H1    S    
C30   C32   S    
C18   N2    A    
C20   N1    A    
C24   F2    S    
C25   H6    S    
C4    C35   S    
C10   C11   A    
C29   O2    S    
C20   C21   A    
Cu1   O8    S    
C14   C15   A    
C31   H12   S    
Cu1   O6    S    
C4    O7    A    
C30   O4    S    
Cu2   O9    S    
C3    H16   S    
