data_mof_unit_29357.cif
_audit_creation_date              2012-12-10T17:04:00-0500
_audit_creation_method            fapswitch 2.2
_symmetry_space_group_name_H-M    P1
_symmetry_Int_Tables_number       1
_space_group_crystal_system       triclinic
_cell_length_a                    18.431005
_cell_length_b                    18.923846
_cell_length_c                    18.530435
_cell_angle_alpha                 109.654365
_cell_angle_beta                  107.860876
_cell_angle_gamma                 108.807571
_cell_volume                      5098.7296947

loop_
_atom_site_label
_atom_site_type_symbol
_atom_type_description
_atom_site_fract_x
_atom_site_fract_y
_atom_site_fract_z
_atom_type_partial_charge
C1    C     C_R   0.995623 0.117710 0.619113 0.911637
C2    C     C_R   0.194168 0.195388 0.439466 0.032546
C3    C     C_R   0.336101 0.315754 0.525438 -0.184220
C4    C     C_R   0.328903 0.334511 0.604412 0.012474
C5    C     C_R   0.259483 0.269150 0.601429 0.032395
C6    C     C_R   0.188261 0.201103 0.516330 -0.054330
C7    C     C_R   0.389950 0.411617 0.687059 -0.062291
C8    C     C_R   0.377582 0.425041 0.761234 -0.018103
C9    C     C_R   0.311589 0.361040 0.756864 -0.256395
C10   C     C_R   0.261798 0.280555 0.683596 -0.080518
C11   C     C_R   0.851071 0.101278 0.672496 0.117902
C12   C     C_R   0.119595 0.127185 0.507432 0.897424
C13   C     C_R   0.808139 0.081676 0.720082 0.114688
C14   C     C_R   0.853233 0.125024 0.811157 -0.090498
C15   C     C_R   0.934386 0.199547 0.854260 0.010012
C16   C     C_R   0.967149 0.228238 0.803534 0.031717
C17   C     C_R   0.937194 0.169695 0.717728 -0.044075
C18   C     C_R   0.992214 0.187245 0.680378 -0.056074
C19   C     C_R   0.054545 0.271668 0.711674 -0.024795
C20   C     C_R   0.073399 0.335830 0.791320 -0.073483
C21   C     C_R   0.023494 0.314893 0.833056 -0.208365
C22   C     C_R   0.837816 0.708132 0.396794 -0.177980
C23   C     C_R   0.001727 0.881525 0.379529 0.833390
C24   C     C_R   0.810073 0.625942 0.336373 -0.131505
C25   C     C_R   0.729805 0.561873 0.310637 0.155674
C26   C     C_R   0.678558 0.578650 0.350550 -0.048989
C27   C     C_R   0.714138 0.661166 0.425499 0.064203
C28   C     C_R   0.789486 0.727048 0.439213 0.061346
C29   C     C_R   0.820360 0.811112 0.500524 -0.126776
C30   C     C_R   0.802018 0.829473 0.569328 0.097771
C31   C     C_R   0.730228 0.768664 0.562199 -0.092138
C32   C     C_R   0.684243 0.683359 0.490208 -0.166934
C33   C     C_R   0.160651 0.904205 0.350065 -0.042838
C34   C     C_R   0.881405 0.880083 0.500428 0.892796
C35   C     C_R   0.233868 0.903854 0.338761 -0.079861
C36   C     C_R   0.233392 0.825909 0.298094 -0.033177
C37   C     C_R   0.159212 0.750560 0.265997 -0.148085
C38   C     C_R   0.080933 0.751063 0.258318 0.046896
C39   C     C_R   0.082382 0.825603 0.309513 0.009919
C40   C     C_R   0.003178 0.818101 0.310711 -0.184256
C41   C     C_R   0.922472 0.746235 0.245423 0.123383
C42   C     C_R   0.921865 0.675754 0.188551 -0.108535
C43   C     C_R   0.000978 0.679740 0.194007 -0.193077
C44   C     C_R   0.624576 0.503332 0.618240 0.843053
C45   C     C_R   0.124977 0.145507 0.351313 -0.141731
C46   C     C_R   0.389477 0.381204 0.510437 0.815730
C47   C     C_R   0.377769 0.499424 0.381805 0.972250
C48   C     C_R   0.618096 0.619250 0.495388 0.975692
C49   C     C_R   0.879793 0.499300 0.878604 0.916821
C50   C     C_R   0.010283 0.381074 0.889082 0.852662
C51   C     C_R   0.119667 0.500256 0.121297 0.770197
C52   C     C_R   0.999848 0.618069 0.121755 0.850684
C53   C     C_R   0.808310 0.588915 0.658938 0.153061
C54   C     C_R   0.896654 0.644559 0.696237 -0.246628
C55   C     C_R   0.956061 0.628286 0.746426 -0.073094
C56   C     C_R   0.144958 0.119891 0.281853 0.057916
C57   C     C_R   0.923748 0.561580 0.764077 0.249056
C58   C     C_R   0.839846 0.533183 0.757838 -0.048215
C59   C     C_R   0.778776 0.542377 0.699469 0.044293
C60   C     C_R   0.690694 0.497771 0.678319 -0.151172
C61   C     C_R   0.664826 0.438913 0.707539 -0.130500
C62   C     C_R   0.725815 0.450044 0.782388 0.240376
C63   C     C_R   0.814450 0.493892 0.805512 -0.209626
C64   C     C_R   0.214003 0.469825 0.383969 0.110129
C65   C     C_R   0.130172 0.410863 0.359914 0.055297
C66   C     C_R   0.062304 0.387444 0.281360 -0.111461
C67   C     C_R   0.231184 0.140238 0.299650 -0.108974
C68   C     C_R   0.079193 0.439892 0.242972 -0.004409
C69   C     C_R   0.164305 0.476351 0.250407 -0.053426
C70   C     C_R   0.231708 0.484142 0.319246 -0.031815
C71   C     C_R   0.314217 0.508357 0.322805 -0.096826
C72   C     C_R   0.336688 0.543910 0.272251 -0.100060
C73   C     C_R   0.270230 0.533604 0.201816 -0.055525
C74   C     C_R   0.184850 0.502744 0.191973 -0.134367
C75   C     C_R   0.297834 0.194400 0.385365 0.105503
C76   C     C_R   0.278246 0.234246 0.451471 0.061325
H1    H     H_    0.308579 0.370113 0.816930 0.173283
H2    H     H_    0.899437 0.756798 0.412073 0.145954
H3    H     H_    0.849300 0.613249 0.305765 0.156203
H4    H     H_    0.159811 0.690956 0.235963 0.173511
H5    H     H_    0.918632 0.686420 0.670772 0.174709
O1    O     O_R   0.051710 0.091600 0.643330 -0.581943
O2    O     O_R   0.591640 0.448340 0.539940 -0.608835
O3    O     O_R   0.408370 0.460150 0.551730 -0.601992
O4    O     O_R   0.408410 0.356720 0.448320 -0.599287
O5    O     O_R   0.408360 0.551760 0.460120 -0.587331
O6    O     O_R   0.408400 0.448330 0.356700 -0.600084
O7    O     O_R   0.591600 0.643380 0.551740 -0.616659
O8    O     O_R   0.591640 0.539950 0.448320 -0.644902
O9    O     O_R   0.960070 0.551730 0.908390 -0.602029
O10   O     O_R   0.856640 0.448280 0.908400 -0.583756
O11   O     O_R   0.051720 0.460120 0.908370 -0.601983
O12   O     O_R   0.948270 0.091620 0.539910 -0.562072
O13   O     O_R   0.948290 0.356670 0.908380 -0.594665
O14   O     O_R   0.143340 0.551720 0.091580 -0.587225
O15   O     O_R   0.039910 0.448270 0.091590 -0.629963
O16   O     O_R   0.051690 0.643330 0.091600 -0.607731
O17   O     O_R   0.948270 0.539880 0.091610 -0.634839
O18   O     O_R   0.143340 0.091610 0.551710 -0.638408
O19   O     O_R   0.039890 0.091630 0.448290 -0.585892
O20   O     O_R   0.051730 0.908380 0.460090 -0.604401
O21   O     O_R   0.948290 0.908400 0.356670 -0.605601
O22   O     O_R   0.960110 0.908370 0.551710 -0.612963
O23   O     O_R   0.856660 0.908390 0.448290 -0.587134
O24   O     O_R   0.591600 0.551770 0.643360 -0.583121
Zn1   Zn    Zn3+2 0.069070 0.999990 0.569050 1.053240
Zn2   Zn    Zn3+2 0.930930 0.000010 0.430950 1.103987
Zn3   Zn    Zn3+2 0.499980 0.569110 0.569080 1.126849
Zn4   Zn    Zn3+2 0.500030 0.430990 0.430980 1.050184
Zn5   Zn    Zn3+2 0.069050 0.569070 0.999980 1.094046
Zn6   Zn    Zn3+2 0.930930 0.430930 0.000000 1.110543
I1    I     I_    0.775294 0.042930 0.535050 -0.161092
I2    I     I_    0.674214 0.987894 0.656487 -0.212296
C77   C     C_2   0.813048 0.090947 0.858104 0.505385
H6    H     H_    0.798511 0.026615 0.846708 0.107067
O25   O     O_2   0.790574 0.131818 0.904666 -0.487711
C78   C     C_2   0.991280 0.245980 0.949943 0.144528
H7    H     H_    0.967655 0.238213 0.995040 -0.030426
O26   O     O_2   0.964676 0.237238 0.000752 0.013819
C79   C     C_2   0.147689 0.422997 0.834778 0.438602
H8    H     H_    0.189409 0.454062 0.903942 0.071427
O27   O     O_2   0.160436 0.462409 0.795704 -0.527099
I3    I     I_    0.893321 0.943945 0.690703 -0.291164
I4    I     I_    0.688855 0.441387 0.206335 -0.216465
C80   C     C_2   0.587559 0.510926 0.302562 0.557264
H9    H     H_    0.572191 0.451694 0.305439 0.086621
O28   O     O_2   0.531650 0.516570 0.252318 -0.557117
C81   C     C_2   0.034194 0.129861 0.327232 0.524110
H10   H     H_    0.980050 0.071594 0.270109 0.080128
O29   O     O_2   0.018164 0.181146 0.371330 -0.497736
C82   C     C_2   0.703683 0.798798 0.630172 0.530643
H11   H     H_    0.644348 0.804538 0.612491 0.100165
O30   O     O_2   0.745294 0.813740 0.704304 -0.518809
I5    I     I_    0.798386 0.742686 0.223928 -0.176571
C83   C     C_2   0.164193 0.987445 0.393803 0.374264
H12   H     H_    0.110013 0.997578 0.366212 0.035769
O31   O     O_2   0.228509 0.045480 0.460803 -0.547578
C84   C     C_2   0.307076 0.984734 0.363176 0.472859
H13   H     H_    0.293114 0.033016 0.352997 0.066143
O32   O     O_2   0.382060 0.998724 0.395669 -0.510978
C85   C     C_2   0.302756 0.820174 0.275100 0.515667
H14   H     H_    0.342720 0.870171 0.266731 0.103790
O33   O     O_2   0.313856 0.757653 0.261633 -0.514957
C86   C     C_2   0.838381 0.597380 0.124169 0.499271
H15   H     H_    0.825363 0.539200 0.128503 0.107939
O34   O     O_2   0.785160 0.597001 0.065119 -0.489117
C87   C     C_2   0.578263 0.360859 0.654429 0.465508
H16   H     H_    0.529012 0.353709 0.598395 0.054672
O35   O     O_2   0.562249 0.300947 0.669167 -0.487449
I6    I     I_    0.758081 0.528075 0.523017 -0.314550
I7    I     I_    0.044742 0.046749 0.149012 -0.255456
C88   C     C_2   0.048607 0.673313 0.769276 0.495024
H17   H     H_    0.068817 0.713710 0.741712 0.070115
O36   O     O_2   0.103596 0.667763 0.820667 -0.507520
I8    I     I_    0.967621 0.469206 0.735318 -0.130223
I9    I     I_    0.678383 0.415650 0.864939 -0.067627
C89   C     C_2   0.429107 0.597998 0.296229 0.531857
H18   H     H_    0.445508 0.625534 0.256826 0.143569
O37   O     O_2   0.488615 0.617591 0.363550 -0.600251
I10   I     I_    0.281189 0.573027 0.514317 -0.173076
I11   I     I_    0.105990 0.376509 0.451899 -0.163804
C90   C     C_2   0.975064 0.314312 0.243625 0.561198
H19   H     H_    0.959642 0.281656 0.279267 0.103412
O38   O     O_2   0.920563 0.286207 0.169623 -0.482410
C91   C     C_2   0.025096 0.483566 0.232964 0.554769
H20   H     H_    0.052997 0.546074 0.237983 0.006143
O39   O     O_2   0.950512 0.451665 0.220918 -0.525587
C92   C     C_2   0.288868 0.544280 0.132381 0.435010
H21   H     H_    0.265707 0.488393 0.071808 0.032473
O40   O     O_2   0.326307 0.615142 0.141108 -0.499779
C93   C     C_2   0.252864 0.109406 0.228519 0.504597
H22   H     H_    0.285736 0.070832 0.227931 0.054991
O41   O     O_2   0.235991 0.128562 0.171146 -0.497639
I12   I     I_    0.424429 0.202543 0.416744 -0.223295
C94   C     C_2   0.470918 0.476872 0.702391 0.624271
H23   H     H_    0.514914 0.458380 0.686109 -0.030739
O42   O     O_2   0.487992 0.551840 0.732631 -0.495181
C95   C     C_2   0.439982 0.499055 0.849959 0.513626
H24   H     H_    0.416034 0.522186 0.895048 0.073419
O43   O     O_2   0.518294 0.530444 0.875912 -0.492454
C96   C     C_2   0.236360 0.212749 0.707862 0.472034
H25   H     H_    0.253892 0.162315 0.689104 0.127798
O44   O     O_2   0.205406 0.218266 0.757931 -0.582287
C97   C     C_2   0.093042 0.293812 0.657377 0.454859
H26   H     H_    0.155634 0.348428 0.686359 0.131561
O45   O     O_2   0.052913 0.253558 0.578470 -0.512712

loop_
_geom_bond_atom_site_label_1
_geom_bond_atom_site_label_2
_ccdc_geom_bond_type
C8    C9    A    
C66   C68   A    
C93   H22   S    
C40   C41   A    
C16   C21   A    
C49   C63   S    
C11   C13   A    
C73   C74   A    
O13   Zn6   S    
C87   H16   S    
C51   C74   S    
C49   O9    A    
C36   C85   S    
C44   O2    A    
C81   H10   S    
C77   H6    S    
C53   C59   A    
C7    C8    A    
C94   O42   D    
C96   H25   S    
C57   I8    S    
C1    C18   S    
C91   H20   S    
C5    C6    A    
C28   C29   A    
C87   O35   D    
C37   C38   A    
O4    Zn4   S    
C78   O26   D    
C35   C84   S    
C6    C12   S    
C30   C31   A    
O7    Zn3   S    
C43   C52   S    
C23   O21   A    
C45   C81   S    
C23   C40   S    
O8    Zn4   S    
C52   O16   A    
O20   Zn1   S    
C97   H26   S    
C66   C90   S    
C18   C19   A    
C41   C42   A    
O10   Zn6   S    
C21   C50   S    
C12   O18   A    
C31   C82   S    
O3    Zn3   S    
C89   H18   S    
C11   C17   A    
C35   C36   A    
C45   C56   A    
C62   I9    S    
C16   C17   A    
C7    C94   S    
C48   O7    A    
C70   C71   A    
C64   C70   A    
C9    C10   A    
C3    C4    A    
C61   C62   A    
C51   O15   A    
C46   O4    A    
C68   C91   S    
C92   O40   D    
C27   C32   A    
C59   C60   A    
C91   O39   D    
C22   C28   A    
C13   C14   A    
C75   I12   S    
C50   O13   A    
C32   C48   S    
C2    C6    A    
C49   O10   A    
C73   C92   S    
C5    C10   A    
C41   I5    S    
C37   H4    S    
C79   O27   D    
C95   H24   S    
C90   O38   D    
C96   O44   D    
C2    C45   A    
C38   C39   A    
O15   Zn6   S    
C47   O5    A    
C83   H12   S    
C24   C25   A    
C22   H2    S    
C86   O34   D    
C39   C40   A    
C68   C69   A    
C9    H1    S    
C4    C7    A    
C58   C59   A    
C44   O24   A    
C29   C34   S    
C1    O12   A    
C34   O23   A    
C72   C89   S    
C15   C78   S    
C60   C61   A    
C26   C80   S    
C47   O6    A    
C75   C76   A    
C29   C30   A    
C93   O41   D    
C33   C83   S    
C24   H3    S    
C95   O43   D    
C31   C32   A    
C64   I10   S    
C62   C63   A    
O2    Zn4   S    
C17   C18   A    
C26   C27   A    
C69   C74   A    
C33   C39   A    
O24   Zn3   S    
C30   I3    S    
C56   I7    S    
C3    C76   A    
C47   C71   S    
O23   Zn2   S    
C84   O32   D    
C46   O3    A    
C50   O11   A    
C92   H21   S    
C88   O36   D    
C48   O8    A    
C55   C57   A    
C42   C86   S    
C80   H9    S    
C22   C24   A    
C67   C75   A    
C42   C43   A    
O9    Zn5   S    
C82   H11   S    
O21   Zn2   S    
C20   C79   S    
C2    C76   A    
C79   H8    S    
C90   H19   S    
C58   C63   A    
C83   O31   D    
O18   Zn1   S    
C54   C55   A    
C36   C37   A    
O19   Zn2   S    
O17   Zn6   S    
C11   I1    S    
O5    Zn3   S    
C72   C73   A    
C82   O30   D    
O14   Zn5   S    
C81   O29   D    
C19   C97   S    
C77   O25   D    
C53   C54   A    
O6    Zn4   S    
C56   C67   A    
C3    C46   S    
C34   O22   A    
C53   I6    S    
C86   H15   S    
C67   C93   S    
C64   C65   A    
C19   C20   A    
C85   O33   D    
C25   C26   A    
C38   C43   A    
C94   H23   S    
C14   C77   S    
C85   H14   S    
O12   Zn2   S    
O16   Zn5   S    
C1    O1    A    
O11   Zn5   S    
C57   C58   A    
C23   O20   A    
C44   C60   S    
C52   O17   A    
C33   C35   A    
C97   O45   D    
O22   Zn1   S    
O1    Zn1   S    
C61   C87   S    
C69   C70   A    
C25   I4    S    
C12   O19   A    
C84   H13   S    
C8    C95   S    
C4    C5    A    
C71   C72   A    
C20   C21   A    
C89   O37   D    
C65   C66   A    
C65   I11   S    
C27   C28   A    
C80   O28   D    
C10   C96   S    
C14   C15   A    
C88   H17   S    
C55   C88   S    
C78   H7    S    
C54   H5    S    
C13   I2    S    
C15   C16   A    
C51   O14   A    
