data_mof_unit_19813.cif
_audit_creation_date              2013-03-05T15:45:16-0500
_audit_creation_method            fapswitch 2.2
_symmetry_space_group_name_H-M    P1
_symmetry_Int_Tables_number       1
_space_group_crystal_system       triclinic
_cell_length_a                    8.297008
_cell_length_b                    12.934591
_cell_length_c                    19.116567
_cell_angle_alpha                 95.123568
_cell_angle_beta                  93.947295
_cell_angle_gamma                 97.846556
_cell_volume                      2017.39306985

loop_
_atom_site_label
_atom_site_type_symbol
_atom_site_description
_atom_site_fract_x
_atom_site_fract_y
_atom_site_fract_z
_atom_type_partial_charge
P1    P     P_3+3 0.986780 0.745970 0.554690 0.467441
O1    O     O_2   0.160820 0.763040 0.533820 -0.349305
O2    O     O_3   0.890970 0.628600 0.535400 -0.408897
O3    O     O_3   0.385950 0.698560 0.408070 -0.395003
O4    O     O_2   0.306202 0.883409 0.457522 -0.349489
O5    O     O_3   0.998765 0.762457 0.646762 -0.599596
O6    O     O_3   0.389071 0.875055 0.329800 -0.546494
H1    H     H_    0.281101 0.727778 0.286772 0.181259
C1    C     C_3   0.355219 0.827183 0.206326 -0.463278
H2    H     H_    0.246130 0.868063 0.205762 0.244367
P2    P     P_3+3 0.341450 0.417130 0.341310 0.486798
P3    P     P_3+3 0.927967 0.630575 0.280777 0.439410
O7    O     O_2   0.172860 0.449730 0.330520 -0.337344
O8    O     O_3   0.962080 0.644700 0.373110 -0.342694
O9    O     O_2   0.047853 0.559598 0.251396 -0.411668
O10   O     O_3   0.290308 0.283849 0.311611 -0.564929
O11   O     O_3   0.994067 0.750301 0.248270 -0.538839
C2    C     C_3   0.868795 0.813640 0.244902 0.487635
H3    H     H_    0.746174 0.771222 0.250069 -0.032500
C3    C     C_3   0.863136 0.856353 0.172873 -1.035401
H4    H     H_    0.761430 0.903448 0.167157 0.246460
H5    H     H_    0.979680 0.906433 0.165996 0.247176
C4    C     C_3   0.788212 0.322332 0.321401 0.415110
H6    H     H_    0.665287 0.344563 0.326890 0.038712
H7    H     H_    0.881379 0.388421 0.344019 0.156994
C5    C     C_3   0.815310 0.302527 0.243616 -0.945195
H8    H     H_    0.722245 0.238885 0.217041 0.247871
H9    H     H_    0.807392 0.374419 0.216997 0.232691
H10   H     H_    0.938436 0.279644 0.238067 0.279432
Ba1   Ba    Ba6+2 0.160910 0.552960 0.466220 1.557644
C6    C     C_3   0.044968 0.675773 0.676561 0.397803
H11   H     H_    0.163487 0.660313 0.658224 0.090298
H12   H     H_    0.950009 0.606335 0.663217 0.139391
C7    C     C_3   0.062717 0.702611 0.756254 -0.986866
H13   H     H_    0.160334 0.770415 0.770802 0.265459
H14   H     H_    0.094192 0.635642 0.783840 0.230426
H15   H     H_    0.945886 0.723335 0.774518 0.272551
C8    C     C_3   0.290244 0.217724 0.365057 0.315711
H16   H     H_    0.171249 0.213537 0.388208 0.095991
H17   H     H_    0.392423 0.243825 0.405568 0.145139
C9    C     C_3   0.304302 0.107200 0.332466 -0.476209
H18   H     H_    0.183690 0.070211 0.306721 0.227375
H19   H     H_    0.336391 0.060607 0.376073 0.193045
P4    P     P_3+3 0.823520 0.254020 0.445250 0.485734
O12   O     O_2   0.649470 0.236890 0.466160 -0.390974
O13   O     O_3   0.919320 0.371390 0.464540 -0.398495
O14   O     O_3   0.424350 0.301430 0.591880 -0.386751
O15   O     O_3   0.799664 0.229517 0.353182 -0.556576
P5    P     P_3+3 0.873290 0.365236 0.719826 0.494712
O16   O     O_3   0.382770 0.553920 0.582990 -0.430540
O17   O     O_3   0.848220 0.355290 0.626830 -0.322504
O18   O     O_2   0.756515 0.438911 0.748458 -0.389107
O19   O     O_3   0.791562 0.245018 0.747147 -0.504666
Ba2   Ba    Ba6+2 0.649260 0.447030 0.533730 1.568750
P6    P     P_3+3 0.431780 0.835816 0.413179 0.469812
C10   C     C_3   0.383139 0.789297 0.278923 0.409377
H20   H     H_    0.498334 0.755095 0.282264 -0.002678
H21   H     H_    0.462520 0.883814 0.196451 0.199197
O20   O     O_3   0.427530 0.446070 0.416950 -0.407380
C11   C     C_3   0.583749 0.768738 0.639804 0.423791
H22   H     H_    0.672809 0.721353 0.617128 0.123761
H23   H     H_    0.494651 0.781608 0.596524 0.074127
C12   C     C_3   0.677813 0.873518 0.671716 -0.978925
H24   H     H_    0.781340 0.860271 0.708094 0.283870
H25   H     H_    0.723813 0.920262 0.629590 0.201110
H26   H     H_    0.599242 0.919272 0.702639 0.294195
P7    P     P_3+3 0.463622 0.585293 0.671388 0.431924
O21   O     O_2   0.637430 0.550200 0.669460 -0.359585
O22   O     O_3   0.500389 0.721161 0.692762 -0.566824
H27   H     H_    0.842418 0.790106 0.130573 0.254615
C13   C     C_3   0.887116 0.166604 0.728242 0.301752
H28   H     H_    0.805310 0.099252 0.699019 0.127122
H29   H     H_    0.982422 0.190387 0.692384 0.050564
C14   C     C_3   0.965877 0.130174 0.794842 -0.770189
H30   H     H_    0.029230 0.062014 0.780802 0.146622
H31   H     H_    0.058082 0.194682 0.820937 0.192405
P8    P     P_3+3 0.386945 0.165480 0.594083 0.465651
C15   C     C_3   0.392638 0.222914 0.727090 0.501904
H32   H     H_    0.263752 0.233513 0.714225 0.017414
O23   O     O_2   0.517836 0.119739 0.552007 -0.382775
O24   O     O_3   0.440277 0.143522 0.681220 -0.517062
H33   H     H_    0.472898 0.298336 0.724509 0.155420
H34   H     H_    0.367455 0.253345 0.838788 0.220151
C16   C     C_3   0.409163 0.193050 0.802141 -0.976040
H35   H     H_    0.538341 0.187479 0.818196 0.302515
H36   H     H_    0.334174 0.116171 0.805982 0.251920
C17   C     C_R   0.079565 0.176335 0.522208 -0.509431
C18   C     C_R   0.733979 0.819048 0.479781 -0.489001
C19   C     C_R   0.704063 0.995077 0.452187 -0.082186
C20   C     C_R   0.640651 0.888475 0.451032 0.199369
C21   C     C_R   0.885669 0.853109 0.516341 0.321687
C22   C     C_R   0.948780 0.964553 0.523586 -0.138214
C23   C     C_R   0.858691 0.035688 0.486843 -0.069207
C24   C     C_R   0.924078 0.145574 0.488502 0.196221
C25   C     C_R   0.173444 0.109029 0.554361 0.098735
C26   C     C_R   0.097098 0.008450 0.565350 0.150133
H37   H     H_    0.631221 0.045432 0.425911 0.165399
H38   H     H_    0.684008 0.736750 0.476000 0.162143
C27   C     C_R   0.611688 0.540260 0.298432 -0.504066
C28   C     C_R   0.458157 0.485059 0.276288 0.344335
C29   C     C_R   0.407668 0.467022 0.203804 -0.282314
C30   C     C_R   0.513273 0.502523 0.153157 0.012514
C31   C     C_R   0.671507 0.552962 0.177146 -0.297463
C32   C     C_R   0.719748 0.571001 0.249250 0.232052
C33   C     C_R   0.515996 0.567485 0.032760 -0.181328
C34   C     C_R   0.463105 0.559306 0.961290 -0.164365
C35   C     C_R   0.354709 0.471891 0.929636 0.165319
C36   C     C_R   0.300054 0.392925 0.972332 -0.167193
C37   C     C_R   0.351360 0.401955 0.044537 -0.148483
C38   C     C_R   0.459757 0.489778 0.075927 0.164386
C39   C     C_R   0.137773 0.417974 0.827597 -0.336355
C40   C     C_R   0.083198 0.418813 0.756461 0.263905
C41   C     C_R   0.344271 0.513915 0.734403 0.267389
C42   C     C_R   0.401790 0.511206 0.804685 -0.255568
C43   C     C_R   0.298017 0.465317 0.852953 0.025858
C44   C     C_R   0.185647 0.469833 0.711963 -0.398388
H39   H     H_    0.525709 0.546591 0.821541 0.159692
H40   H     H_    0.504710 0.623554 0.931373 0.128013
H41   H     H_    0.597413 0.637226 0.054506 0.122999
H42   H     H_    0.287308 0.424837 0.187383 0.154398
H43   H     H_    0.218769 0.323456 0.949949 0.138809
H44   H     H_    0.307797 0.339302 0.075447 0.121132
H45   H     H_    0.053854 0.384065 0.863024 0.170543
H46   H     H_    0.758839 0.577007 0.140110 0.150514
H47   H     H_    0.137646 0.482480 0.660228 0.172237
H48   H     H_    0.651858 0.552609 0.354007 0.165450
C45   C     C_3   0.329428 0.736442 0.148072 -0.320368
C46   C     C_3   0.286677 0.774207 0.076661 -0.844338
H49   H     H_    0.388529 0.831564 0.062491 0.257366
H50   H     H_    0.264873 0.706483 0.035568 0.256033
H51   H     H_    0.173898 0.811551 0.077986 0.264836
H52   H     H_    0.229455 0.675402 0.159408 0.248332
H53   H     H_    0.443850 0.701695 0.146129 0.202428
C47   C     C_3   0.433947 0.105869 0.278536 -0.116071
C48   C     C_3   0.363904 0.110014 0.202782 -0.891707
H54   H     H_    0.259353 0.046891 0.188141 0.250433
H55   H     H_    0.322684 0.186790 0.195967 0.285136
H56   H     H_    0.459826 0.099241 0.166146 0.235028
H57   H     H_    0.530521 0.172843 0.292363 0.214781
H58   H     H_    0.493795 0.034845 0.280761 0.229223
C49   C     C_2   0.842149 0.098984 0.845630 1.208375
O25   O     O_2   0.736669 0.023243 0.829494 -0.660976
O26   O     O_R   0.848849 0.156718 0.911423 -0.808296
H59   H     H_    0.758878 0.128648 0.940937 0.314156
C50   C     C_2   0.903958 0.901934 0.302781 0.919260
O27   O     O_2   0.819706 0.972516 0.305266 -0.685034
O28   O     O_R   0.032470 0.902370 0.354007 -0.725202
H60   H     H_    0.048447 0.967346 0.388711 0.309729
C51   C     C_3   0.130339 0.980007 0.639643 -0.363062
C52   C     C_3   0.286371 0.930927 0.652777 -0.576282
H61   H     H_    0.377079 0.952723 0.614817 0.248413
H62   H     H_    0.339529 0.957098 0.707375 0.223010
H63   H     H_    0.265967 0.845276 0.649800 0.249950
H64   H     H_    0.144673 0.053206 0.675472 0.148875
H65   H     H_    0.021693 0.937359 0.658986 0.206748
C53   C     C_2   0.134727 0.285527 0.536916 1.140948
O29   O     O_2   0.124321 0.326472 0.595430 -0.686787
O30   O     O_R   0.220453 0.338567 0.488832 -0.785924
H66   H     H_    0.287036 0.403664 0.513037 0.395480

loop_
_geom_bond_atom_site_label_1
_geom_bond_atom_site_label_2
_geom_bond_distance
_ccdc_geom_bond_type
C48   H56   1.110358 S    
C33   C38   1.407853 A    
C12   H25   1.107256 S    
C23   C24   1.447260 A    
C7    H15   1.110948 S    
C9    H18   1.109942 S    
O28   H60   1.010885 S    
O6    P6    1.743439 S    
C36   H43   1.082344 S    
C2    C50   1.500830 S    
C46   H49   1.110918 S    
H1    C10   1.107841 S    
C42   C43   1.418703 A    
C51   C52   1.533025 S    
C48   H54   1.108967 S    
C10   H20   1.106978 S    
Ba1   Ba2   4.590430 S    
C5    H8    1.108910 S    
O16   Ba2   2.928467 S    
C14   H31   1.108679 S    
C11   C12   1.521859 S    
C53   O29   1.207948 D    
C16   H36   1.109839 S    
P3    C32   1.830800 S    
P6    C20   1.846045 S    
C49   O26   1.397823 S    
C47   H58   1.104966 S    
C8    H16   1.106073 S    
C7    H13   1.110850 S    
O2    Ba2   2.868856 S    
C37   H44   1.082353 S    
Ba2   O21   2.824045 S    
C34   C35   1.406652 A    
O26   H59   1.013889 S    
C17   C24   1.391907 A    
C22   C26   1.437757 A    
C36   C37   1.406002 A    
C11   H23   1.110278 S    
C2    H3    1.103155 S    
C4    C5    1.523472 S    
C45   H52   1.111228 S    
C22   C23   1.459317 A    
C31   C32   1.398455 A    
C39   C40   1.404860 A    
P2    Ba1   3.390296 S    
P5    O17   1.766683 S    
C52   H63   1.093374 S    
C17   C25   1.399000 A    
P3    O11   1.752722 S    
C4    H6    1.106040 S    
C6    H12   1.109363 S    
C1    H2    1.108733 S    
C2    C3    1.528884 S    
C21   C22   1.455850 A    
C41   C44   1.383818 A    
C27   C32   1.389750 A    
Ba1   O16   2.791878 S    
C12   H26   1.104804 S    
P1    C21   1.890998 S    
C34   H40   1.081926 S    
C19   C23   1.413366 A    
C9    H19   1.109946 S    
C3    H27   1.111119 S    
O6    C10   1.401635 S    
O8    Ba1   2.793783 S    
P2    O20   1.558591 S    
C31   H46   1.082327 S    
C9    C47   1.541040 S    
C50   O28   1.396269 S    
P4    O13   1.613282 S    
C50   O27   1.222885 D    
C27   H48   1.082454 S    
Ba2   O20   2.791374 S    
C14   H30   1.108731 S    
C39   H45   1.081860 S    
P7    O21   1.571641 D    
C29   C30   1.415052 A    
O7    Ba1   2.824011 S    
C16   H35   1.108088 S    
C8    C9    1.530340 S    
C47   H57   1.096700 S    
C13   H29   1.111614 S    
C15   H32   1.110253 S    
P8    C25   1.900081 S    
P1    O5    1.748261 S    
C19   H37   1.079785 S    
C11   H22   1.109002 S    
P1    O2    1.613311 S    
O2    Ba1   2.915031 S    
C51   H64   1.105392 S    
C15   C16   1.520798 S    
P2    O10   1.751179 S    
C15   H33   1.110550 S    
H34   C16   1.108267 S    
P3    O9    1.543341 D    
P8    O24   1.751727 S    
C35   C36   1.410139 A    
P5    O18   1.542209 D    
Ba1   O20   2.929439 S    
O13   Ba2   2.915964 S    
O11   C2    1.410090 S    
C6    C7    1.524399 S    
C1    C10   1.525789 S    
C1    C45   1.525992 S    
C35   C43   1.499756 S    
P5    C40   1.849258 S    
C14   C49   1.501110 S    
C18   C20   1.388333 A    
O12   Ba2   2.903612 S    
C44   H47   1.075147 S    
O14   Ba2   2.822173 S    
O3    P6    1.756589 S    
O30   H66   0.998237 S    
C52   H62   1.109602 S    
C30   C38   1.500098 S    
O14   P8    1.748218 S    
C45   C46   1.525703 S    
O19   C13   1.407621 S    
C46   H51   1.110872 S    
C40   C44   1.388634 A    
P4    O12   1.517304 D    
C41   C42   1.399565 A    
O16   P7    1.765635 S    
P8    O23   1.545031 D    
C48   H55   1.108978 S    
C1    H21   1.111113 S    
C4    O15   1.404586 S    
C52   H61   1.107373 S    
C29   H42   1.082131 S    
O4    P6    1.544878 D    
C6    H11   1.103850 S    
C33   H41   1.082062 S    
C45   H53   1.105906 S    
C3    H5    1.110670 S    
C46   H50   1.109700 S    
C13   C14   1.531896 S    
C39   C43   1.419005 A    
C47   C48   1.531096 S    
C33   C34   1.396212 A    
C5    H9    1.106601 S    
C27   C28   1.391085 A    
Ba1   O13   2.868251 S    
O1    Ba1   2.902966 S    
O17   Ba2   2.794312 S    
C53   O30   1.375098 S    
P7    C41   1.843201 S    
C13   H28   1.109574 S    
C49   O25   1.222949 D    
C8    H17   1.103278 S    
P2    O7    1.521127 D    
C15   O24   1.406200 S    
C18   C21   1.392511 A    
C11   O22   1.404788 S    
P5    O19   1.748278 S    
C26   C51   1.515117 S    
P1    O1    1.516933 D    
P1    Ba1   3.427429 S    
O5    C6    1.389229 S    
C7    H14   1.105000 S    
C4    H7    1.105792 S    
C51   H65   1.095523 S    
C30   C31   1.410445 A    
C18   H38   1.082547 S    
C42   H39   1.081657 S    
P4    C24   1.943980 S    
C12   H24   1.109070 S    
P4    Ba2   3.428116 S    
P3    O8    1.757416 S    
C3    H4    1.111149 S    
C5    H10   1.111017 S    
C25   C26   1.407109 A    
C17   C53   1.420615 S    
P2    C28   1.839327 S    
C28   C29   1.409107 A    
P7    O22   1.748330 S    
C19   C20   1.404785 A    
C37   C38   1.408658 A    
O3    Ba1   2.822817 S    
P4    O15   1.752886 S    
O10   C8    1.389772 S    
