data_mof_unit_19530.cif
_audit_creation_date              2012-12-10T19:11:28-0500
_audit_creation_method            fapswitch 2.2
_symmetry_space_group_name_H-M    P1
_symmetry_Int_Tables_number       1
_space_group_crystal_system       triclinic
_cell_length_a                    10.644336
_cell_length_b                    9.801395
_cell_length_c                    10.513008
_cell_angle_alpha                 89.403286
_cell_angle_beta                  90.521446
_cell_angle_gamma                 91.165175
_cell_volume                      1096.48559796

loop_
_atom_site_label
_atom_site_type_symbol
_atom_type_description
_atom_site_fract_x
_atom_site_fract_y
_atom_site_fract_z
_atom_type_partial_charge
C1    C     C_R   0.257724 0.499548 0.504269 0.899369
C2    C     C_3   0.498571 0.501980 0.122090 -0.070758
C3    C     C_3   0.075584 0.625935 0.585469 -0.462799
C4    C     C_3   0.069227 0.370828 0.574145 -0.487659
C5    C     C_3   0.931134 0.633386 0.581225 0.447625
C6    C     C_3   0.925722 0.371962 0.581557 0.434593
C7    C     C_3   0.068165 0.507655 0.371316 -0.399009
C8    C     C_3   0.120606 0.501284 0.508769 0.048622
C9    C     C_3   0.877977 0.503398 0.512746 0.028179
C10   C     C_3   0.924333 0.505706 0.373336 -0.656995
C11   C     C_3   0.394210 0.078671 0.419483 0.473590
C12   C     C_3   0.403638 0.918023 0.406269 0.431409
C13   C     C_3   0.618148 0.083662 0.443569 -0.412037
C14   C     C_3   0.621807 0.921666 0.452047 -0.391609
C15   C     C_3   0.492326 0.078689 0.627986 -0.275953
C16   C     C_3   0.484692 0.917419 0.627092 -0.265004
C17   C     C_R   0.499198 0.500745 0.257384 0.906286
C18   C     C_R   0.741735 0.501209 0.507884 0.911488
C19   C     C_R   0.501496 0.499202 0.742096 0.902318
C20   C     C_3   0.497295 0.628600 0.035751 0.054362
C21   C     C_3   0.398548 0.431650 0.038978 0.026710
C22   C     C_3   0.395352 0.559306 0.952373 -0.258049
C23   C     C_3   0.501469 0.497453 0.876399 0.001401
C24   C     C_3   0.603150 0.568102 0.957077 -0.207014
C25   C     C_3   0.503099 0.368791 0.960076 -0.177377
C26   C     C_3   0.604233 0.439998 0.044420 -0.196673
H1    H     H_    0.310457 0.607282 0.910845 0.151605
H2    H     H_    0.889075 0.597260 0.321672 0.193400
H3    H     H_    0.887654 0.414197 0.321892 0.199503
H4    H     H_    0.408530 0.118616 0.321043 0.095663
H5    H     H_    0.438896 0.898244 0.308315 0.046405
H6    H     H_    0.628652 0.117619 0.342838 0.156332
H7    H     H_    0.645907 0.879480 0.357750 0.153540
H8    H     H_    0.576857 0.111260 0.683724 0.154644
H9    H     H_    0.561015 0.878600 0.689968 0.169072
H10   H     H_    0.414134 0.121546 0.681826 0.164036
H11   H     H_    0.398544 0.875314 0.671946 0.168054
H12   H     H_    0.701040 0.126553 0.495282 0.190930
H13   H     H_    0.699620 0.890846 0.516558 0.180385
H14   H     H_    0.686566 0.623761 0.918741 0.168626
H15   H     H_    0.505267 0.262316 0.925129 0.144453
H16   H     H_    0.689154 0.391722 0.085451 0.141361
H17   H     H_    0.114537 0.723213 0.546056 0.194858
H18   H     H_    0.092745 0.284471 0.513392 0.204952
H19   H     H_    0.110051 0.617270 0.685530 0.190501
H20   H     H_    0.112718 0.357656 0.670104 0.179780
H21   H     H_    0.904438 0.724282 0.522339 0.052837
H22   H     H_    0.888572 0.281315 0.528105 0.055145
H23   H     H_    0.103131 0.600755 0.321357 0.188972
H24   H     H_    0.099963 0.418679 0.316626 0.243805
N1    N     N_3   0.499750 0.138610 0.497240 -0.089902
N2    N     N_3   0.499750 0.861390 0.497240 -0.075968
O1    O     O_R   0.314910 0.616040 0.499970 -0.568841
O2    O     O_R   0.314910 0.383960 0.499970 -0.553265
O3    O     O_R   0.500080 0.616020 0.313900 -0.648002
O4    O     O_R   0.500080 0.383980 0.313900 -0.587210
O5    O     O_R   0.685320 0.616040 0.499930 -0.636867
O6    O     O_R   0.685320 0.383960 0.499930 -0.646427
O7    O     O_R   0.500150 0.616060 0.686000 -0.628648
O8    O     O_R   0.500150 0.383940 0.686000 -0.641567
Zn1   Zn    Zn3+2 0.500150 0.654960 0.499940 0.949908
Zn2   Zn    Zn3+2 0.500150 0.345040 0.499940 0.966255
O9    O     O_3   0.273528 0.129687 0.450557 -0.559705
C27   C     C_3   0.210867 0.071306 0.557343 -0.272122
H25   H     H_    0.212295 0.144393 0.636915 0.138180
H26   H     H_    0.245723 0.975032 0.594431 0.177533
H27   H     H_    0.111248 0.050759 0.530535 0.157014
O10   O     O_3   0.285652 0.850814 0.418071 -0.599241
C28   C     C_3   0.215309 0.859560 0.303444 -0.299092
H28   H     H_    0.246405 0.780730 0.236092 0.197087
H29   H     H_    0.221855 0.962152 0.257345 0.193968
H30   H     H_    0.114747 0.840082 0.325087 0.157656
C29   C     C_2   0.498339 0.775046 0.074566 0.367264
H31   H     H_    0.575444 0.815263 0.131914 0.037970
O11   O     O_2   0.414013 0.849949 0.040487 -0.617394
C30   C     C_2   0.283848 0.351759 0.078512 0.337468
H32   H     H_    0.213037 0.324626 0.007862 0.062448
O12   O     O_2   0.270285 0.314710 0.188609 -0.575107
O13   O     O_3   0.882339 0.641370 0.706203 -0.547382
C31   C     C_3   0.887413 0.777341 0.749473 -0.365570
H33   H     H_    0.865356 0.777352 0.852345 0.186585
H34   H     H_    0.815909 0.839505 0.699581 0.146791
H35   H     H_    0.982425 0.825163 0.738156 0.148296
O14   O     O_3   0.886241 0.369013 0.710325 -0.541412
C32   C     C_3   0.874806 0.233357 0.755802 -0.342420
H36   H     H_    0.963866 0.177288 0.745093 0.135973
H37   H     H_    0.796526 0.178234 0.706684 0.146457
H38   H     H_    0.852478 0.235474 0.858610 0.195416

loop_
_geom_bond_atom_site_label_1
_geom_bond_atom_site_label_2
_ccdc_geom_bond_type
O6    Zn2   S    
C7    C10   S    
C1    C8    S    
C29   H31   S    
C13   H6    S    
C4    C8    S    
C14   H7    S    
C7    C8    S    
C4    H20   S    
C32   H36   S    
C12   O10   S    
C21   C30   S    
C3    H17   S    
C6    H22   S    
C30   O12   D    
C11   O9    S    
N2    Zn1   S    
C16   H9    S    
C15   C16   S    
O8    Zn2   S    
C28   H29   S    
C1    O1    A    
C14   H13   S    
C13   N1    S    
O1    Zn1   S    
C18   O6    A    
C14   N2    S    
C20   C24   S    
C11   H4    S    
O10   C28   S    
C23   C24   S    
C15   N1    S    
C5    O13   S    
C9    C10   S    
C17   O3    A    
C15   H8    S    
C16   H11   S    
C21   C22   S    
C2    C17   S    
C29   O11   D    
N1    Zn2   S    
C6    C9    S    
C31   H35   S    
C12   N2    S    
C32   H37   S    
O7    Zn1   S    
C6    O14   S    
C2    C20   S    
C27   H27   S    
O14   C32   S    
C7    H23   S    
C31   H34   S    
C3    C8    S    
C25   H15   S    
C4    H18   S    
C19   O7    A    
C25   C26   S    
C3    H19   S    
O13   C31   S    
C27   H26   S    
C28   H30   S    
C19   C23   S    
C1    O2    A    
C5    C9    S    
C5    H21   S    
C18   O5    A    
C2    C21   S    
C2    C26   S    
C30   H32   S    
C17   O4    A    
C13   H12   S    
C4    C6    S    
C20   C22   S    
C22   H1    S    
C12   H5    S    
O4    Zn2   S    
C15   H10   S    
C26   H16   S    
C32   H38   S    
C10   H2    S    
C21   C25   S    
C16   N2    S    
C7    H24   S    
C24   C26   S    
C31   H33   S    
C3    C5    S    
C11   C12   S    
O5    Zn1   S    
C19   O8    A    
O2    Zn2   S    
C27   H25   S    
C10   H3    S    
O3    Zn1   S    
C24   H14   S    
C20   C29   S    
C23   C25   S    
C28   H28   S    
C11   N1    S    
O9    C27   S    
C9    C18   S    
C22   C23   S    
C13   C14   S    
