data_mof_unit_35005.cif
_audit_creation_date              2012-12-11T17:36:17-0500
_audit_creation_method            fapswitch 2.2
_symmetry_space_group_name_H-M    P1
_symmetry_Int_Tables_number       1
_space_group_crystal_system       triclinic
_cell_length_a                    26.03945
_cell_length_b                    6.886006
_cell_length_c                    21.592029
_cell_angle_alpha                 90.649655
_cell_angle_beta                  96.160487
_cell_angle_gamma                 90.706305
_cell_volume                      3848.65697882

loop_
_atom_site_label
_atom_site_type_symbol
_atom_type_description
_atom_site_fract_x
_atom_site_fract_y
_atom_site_fract_z
_atom_type_partial_charge
O1    O     O_R   0.208650 0.594520 0.175450 -0.532003
O2    O     O_R   0.791350 0.405480 0.824550 -0.532003
O3    O     O_R   0.291350 0.094520 0.324550 -0.537786
O4    O     O_R   0.708650 0.905480 0.675450 -0.537787
O5    O     O_R   0.192980 0.260780 0.300160 -0.534710
O6    O     O_R   0.807020 0.739220 0.699840 -0.534711
O7    O     O_R   0.307020 0.760780 0.199840 -0.531406
O8    O     O_R   0.692980 0.239220 0.800160 -0.531406
C1    C     C_R   0.180086 0.433309 0.320311 0.737322
C2    C     C_R   0.819913 0.566691 0.679689 0.737322
C3    C     C_R   0.320101 0.933793 0.179969 0.736773
C4    C     C_R   0.679899 0.066207 0.820031 0.736773
O9    O     O_R   0.202550 0.264660 0.174420 -0.538556
O10   O     O_R   0.797450 0.735340 0.825580 -0.538555
O11   O     O_R   0.297450 0.764660 0.325580 -0.531120
O12   O     O_R   0.702550 0.235340 0.674420 -0.531120
O13   O     O_R   0.300990 0.096480 0.197920 -0.517861
O14   O     O_R   0.699010 0.903520 0.802080 -0.517860
O15   O     O_R   0.199010 0.596480 0.302080 -0.518346
O16   O     O_R   0.800990 0.403520 0.697920 -0.518346
C5    C     C_R   0.190569 0.431509 0.151083 0.741929
C6    C     C_R   0.809431 0.568490 0.848917 0.741927
C7    C     C_R   0.309218 0.936074 0.348840 0.743344
C8    C     C_R   0.690782 0.063926 0.651159 0.743345
O17   O     O_3   0.282290 0.427760 0.257860 -0.359175
O18   O     O_3   0.717710 0.572240 0.742140 -0.359175
O19   O     O_3   0.217710 0.927760 0.242140 -0.363419
O20   O     O_3   0.782290 0.072240 0.757860 -0.363419
V1    V     V_3+5 0.244010 0.152080 0.248540 1.507452
V2    V     V_3+5 0.755990 0.847920 0.751460 1.507453
V3    V     V_3+5 0.255990 0.652080 0.251460 1.518413
V4    V     V_3+5 0.744010 0.347920 0.748540 1.518413
C9    C     C_R   0.657640 0.043279 0.591323 -0.093563
C10   C     C_R   0.342360 0.956721 0.408677 -0.093564
C11   C     C_R   0.843459 0.571310 0.908600 -0.099034
C12   C     C_R   0.156541 0.428689 0.091400 -0.099032
C13   C     C_R   0.649097 0.927578 0.483835 0.140052
C14   C     C_R   0.350903 0.072420 0.516166 0.140053
C15   C     C_R   0.859234 0.698831 0.014629 0.142755
C16   C     C_R   0.140765 0.301152 0.985372 0.142755
C17   C     C_R   0.679497 0.972230 0.539635 -0.116052
C18   C     C_R   0.320503 0.027768 0.460365 -0.116053
C19   C     C_R   0.826697 0.668875 0.959460 -0.121644
C20   C     C_R   0.173302 0.331111 0.040541 -0.121642
C21   C     C_R   0.603956 0.066638 0.587850 -0.233644
C22   C     C_R   0.396044 0.933363 0.412149 -0.233644
C23   C     C_R   0.894390 0.503803 0.912593 -0.234398
C24   C     C_R   0.105610 0.496204 0.087406 -0.234399
C25   C     C_R   0.571009 0.016227 0.532682 0.060574
C26   C     C_R   0.428991 0.983772 0.467318 0.060574
C27   C     C_R   0.929734 0.536677 0.967230 0.058807
C28   C     C_R   0.070266 0.463323 0.032769 0.058806
C29   C     C_R   0.594614 0.947549 0.480192 0.119985
C30   C     C_R   0.405386 0.052449 0.519808 0.119985
C31   C     C_R   0.911110 0.634797 0.018636 0.121086
C32   C     C_R   0.088889 0.365195 0.981365 0.121084
C33   C     C_R   0.515501 0.027855 0.528295 0.070004
C34   C     C_R   0.484499 0.972145 0.471705 0.070004
C35   C     C_R   0.983110 0.479549 0.972078 0.069828
C36   C     C_R   0.016890 0.520452 0.027921 0.069828
C37   C     C_R   0.510060 0.907884 0.421144 -0.188560
C38   C     C_R   0.489940 0.092115 0.578855 -0.188560
C39   C     C_R   0.996089 0.616118 0.077302 -0.190409
C40   C     C_R   0.003911 0.383877 0.922698 -0.190410
C41   C     C_R   0.563414 0.896492 0.425297 -0.190656
C42   C     C_R   0.436586 0.103506 0.574703 -0.190657
C43   C     C_R   0.944800 0.670796 0.072801 -0.191617
C44   C     C_R   0.055200 0.329194 0.927200 -0.191615
H1    H     H_    0.579892 0.844638 0.384385 0.144359
H2    H     H_    0.420108 0.155359 0.615615 0.144359
H3    H     H_    0.932048 0.744378 0.112831 0.144035
H4    H     H_    0.067951 0.255606 0.887170 0.144034
H5    H     H_    0.410696 0.882925 0.370165 0.101840
H6    H     H_    0.589304 0.117077 0.629835 0.101840
H7    H     H_    0.094456 0.565900 0.128687 0.105370
H8    H     H_    0.905546 0.434119 0.871311 0.105369
H9    H     H_    0.279307 0.052173 0.456664 0.167662
H10   H     H_    0.720693 0.947824 0.543336 0.167661
H11   H     H_    0.212021 0.274224 0.044415 0.167209
H12   H     H_    0.787978 0.725754 0.955587 0.167210
H13   H     H_    0.489965 0.863769 0.377004 0.126354
H14   H     H_    0.510035 0.136228 0.622996 0.126354
H15   H     H_    0.018534 0.652584 0.120725 0.126167
H16   H     H_    0.981466 0.347407 0.879275 0.126168
C45   C     C_R   0.436765 0.815103 0.094011 -0.107974
C46   C     C_R   0.563235 0.184897 0.905989 -0.107974
C47   C     C_R   0.062487 0.313649 0.405188 -0.110198
C48   C     C_R   0.937513 0.686350 0.594812 -0.110198
H17   H     H_    0.464133 0.698110 0.093222 0.181583
H18   H     H_    0.535867 0.301891 0.906778 0.181583
H19   H     H_    0.034197 0.196861 0.404917 0.177238
H20   H     H_    0.965803 0.803138 0.595082 0.177238
C49   C     C_R   0.397007 0.800919 0.132810 -0.163022
C50   C     C_R   0.602993 0.199081 0.867190 -0.163022
C51   C     C_R   0.102231 0.299185 0.366344 -0.170413
C52   C     C_R   0.897769 0.700814 0.633656 -0.170413
H21   H     H_    0.394946 0.673074 0.161234 0.169149
H22   H     H_    0.605054 0.326926 0.838766 0.169150
H23   H     H_    0.103323 0.171641 0.336723 0.161934
H24   H     H_    0.896677 0.828358 0.663277 0.161934
C53   C     C_R   0.361091 0.950863 0.136086 -0.157698
C54   C     C_R   0.638909 0.049137 0.863914 -0.157698
C55   C     C_R   0.139439 0.448565 0.364639 -0.159500
C56   C     C_R   0.860561 0.551435 0.635361 -0.159500
C57   C     C_R   0.365781 0.117023 0.097753 0.219554
C58   C     C_R   0.634218 0.882977 0.902247 0.219554
C59   C     C_R   0.136489 0.612866 0.405020 0.228298
C60   C     C_R   0.863511 0.387134 0.594980 0.228298
C61   C     C_R   0.405761 0.128982 0.058407 0.272797
C62   C     C_R   0.594238 0.871018 0.941592 0.272797
C63   C     C_R   0.096081 0.626857 0.443673 0.271899
C64   C     C_R   0.903919 0.373143 0.556327 0.271899
C65   C     C_R   0.441444 0.978408 0.056800 -0.012244
C66   C     C_R   0.558556 0.021593 0.943200 -0.012244
C67   C     C_R   0.058899 0.477346 0.443615 -0.011628
C68   C     C_R   0.941101 0.522653 0.556385 -0.011628
C69   C     C_1   0.482900 0.992209 0.016860 0.102442
C70   C     C_1   0.517099 0.007791 0.983140 0.102442
C71   C     C_1   0.017195 0.492019 0.483261 0.100081
C72   C     C_1   0.982805 0.507981 0.516738 0.100081
C73   C     C_3   0.675765 0.853744 0.429587 -0.741403
H25   H     H_    0.667855 0.951712 0.389292 0.213885
H26   H     H_    0.718344 0.847919 0.441022 0.234484
H27   H     H_    0.661720 0.704532 0.416331 0.210126
C74   C     C_3   0.324235 0.146252 0.570413 -0.741402
H28   H     H_    0.332145 0.048283 0.610708 0.213885
H29   H     H_    0.338280 0.295463 0.583669 0.210126
H30   H     H_    0.281656 0.152077 0.558979 0.234484
C75   C     C_3   0.837904 0.804649 0.067757 -0.750751
H31   H     H_    0.860117 0.941623 0.078828 0.208588
H32   H     H_    0.796707 0.843198 0.056226 0.231308
H33   H     H_    0.840390 0.711022 0.109472 0.216079
C76   C     C_3   0.162094 0.195320 0.932245 -0.750748
H34   H     H_    0.139880 0.058347 0.921177 0.208587
H35   H     H_    0.159609 0.288940 0.890529 0.216079
H36   H     H_    0.203290 0.156763 0.943777 0.231306
Br1   Br    Br    0.318057 0.330139 0.095314 -0.527903
Br2   Br    Br    0.681943 0.669860 0.904686 -0.527905
Br3   Br    Br    0.188210 0.817262 0.412000 -0.527046
Br4   Br    Br    0.811790 0.182738 0.588000 -0.527045
Br5   Br    Br    0.412022 0.351742 0.005842 -0.493851
Br6   Br    Br    0.587977 0.648258 0.994158 -0.493853
Br7   Br    Br    0.091262 0.851277 0.497259 -0.493173
Br8   Br    Br    0.908737 0.148722 0.502741 -0.493173

loop_
_geom_bond_atom_site_label_1
_geom_bond_atom_site_label_2
_ccdc_geom_bond_type
O17   V3    S    
C48   C52   A    
O1    C5    A    
C47   H19   S    
O19   V1    S    
C9    C21   A    
C4    C54   S    
O3    C7    A    
C10   C18   A    
C56   C60   A    
O15   V3    S    
C25   C33   A    
C33   C38   A    
C5    C12   S    
C42   H2    S    
O7    C3    A    
C6    C11   S    
C35   C40   A    
C26   C30   A    
C36   C39   A    
C40   C44   A    
O9    V1    S    
C23   H8    S    
C14   C18   A    
C58   C62   A    
O4    C8    A    
C51   H23   S    
C58   Br2   S    
C43   H3    S    
C50   H22   S    
O1    V3    S    
O13   V1    S    
O2    V4    S    
O3    V1    S    
C40   H16   S    
C73   H27   S    
C46   C50   A    
C45   C49   A    
C1    O15   A    
C15   C31   A    
C48   H20   S    
C2    O16   A    
C16   C32   A    
C47   C51   A    
O2    C6    A    
C74   H30   S    
C54   C58   A    
C10   C22   A    
C11   C19   A    
C62   C66   A    
C16   C20   A    
C47   C67   A    
C63   Br7   S    
C75   H33   S    
C13   C29   A    
C34   C37   A    
O11   C7    A    
C38   H14   S    
C11   C23   A    
C35   C36   A    
O12   C8    A    
O17   V1    S    
C24   H7    S    
O10   V2    S    
C51   C55   A    
O5    V1    S    
C53   C57   A    
C39   C43   A    
O7    V3    S    
C38   C42   A    
O19   V3    S    
C26   C34   A    
O20   V4    S    
C44   H4    S    
C46   H18   S    
C49   C53   A    
C17   H10   S    
C60   Br4   S    
C45   H17   S    
O18   V4    S    
C15   C19   A    
C15   C75   S    
C19   H12   S    
C32   C44   A    
C68   C72   S    
C39   H15   S    
C21   H6    S    
O8    V4    S    
C48   C68   A    
O5    C1    A    
C37   C41   A    
C76   H36   S    
C62   Br6   S    
C31   C43   A    
C14   C30   A    
C21   C25   A    
O8    C4    A    
C7    C10   S    
O9    C5    A    
C3    C53   S    
C73   H25   S    
C66   C70   S    
C65   C69   S    
O6    V2    S    
O18   V2    S    
C67   C71   S    
C52   C56   A    
C74   H28   S    
C13   C73   S    
C12   C20   A    
C27   C35   A    
C49   H21   S    
C64   C68   A    
C14   C74   S    
C29   C41   A    
C74   H29   S    
C75   H31   S    
O16   V4    S    
C57   C61   A    
C3    O13   A    
C61   Br5   S    
C59   C63   A    
C20   H11   S    
O6    C2    A    
C23   C27   A    
C71   C72   T    
O11   V3    S    
C30   C42   A    
C61   C65   A    
O12   V4    S    
C16   C76   S    
C22   C26   A    
C8    C9    S    
C46   C66   A    
C55   C59   A    
C9    C17   A    
C64   Br8   S    
C45   C65   A    
O20   V2    S    
C37   H13   S    
C69   C70   T    
O10   C6    A    
C33   C34   A    
C76   H34   S    
C41   H1    S    
C52   H24   S    
C2    C56   S    
C1    C55   S    
C12   C24   A    
C27   C31   A    
C22   H5    S    
C13   C17   A    
C73   H26   S    
C25   C29   A    
O14   V2    S    
C57   Br1   S    
C60   C64   A    
C24   C28   A    
C50   C54   A    
C18   H9    S    
C28   C36   A    
C4    O14   A    
C76   H35   S    
C63   C67   A    
C59   Br3   S    
O4    V2    S    
C28   C32   A    
C75   H32   S    
