data_mof_unit_49537.cif
_audit_creation_date              2012-12-10T19:42:33-0500
_audit_creation_method            fapswitch 2.2
_symmetry_space_group_name_H-M    P1
_symmetry_Int_Tables_number       1
_space_group_crystal_system       triclinic
_cell_length_a                    10.946294
_cell_length_b                    10.93046
_cell_length_c                    9.842766
_cell_angle_alpha                 99.157522
_cell_angle_beta                  97.648052
_cell_angle_gamma                 94.257251
_cell_volume                      1146.82308905

loop_
_atom_site_label
_atom_site_type_symbol
_atom_type_description
_atom_site_fract_x
_atom_site_fract_y
_atom_site_fract_z
_atom_type_partial_charge
C1    C     C_R   0.501213 0.262083 0.498948 0.825394
C2    C     C_R   0.498786 0.737917 0.501051 0.825395
C3    C     C_R   0.871896 0.494290 0.502859 -0.047308
C4    C     C_R   0.128104 0.505709 0.497141 -0.047308
C5    C     C_R   0.956098 0.516119 0.629600 0.085711
C6    C     C_R   0.043902 0.483879 0.370400 0.085711
C7    C     C_R   0.315882 0.081734 0.020725 -0.127078
C8    C     C_R   0.684123 0.918262 0.979270 -0.127083
C9    C     C_R   0.337437 0.048658 0.152345 -0.140522
C10   C     C_R   0.662566 0.951338 0.847649 -0.140517
C11   C     C_R   0.455529 0.075002 0.231453 0.112000
C12   C     C_R   0.544471 0.924997 0.768545 0.112003
C13   C     C_R   0.552236 0.133156 0.176641 -0.055289
C14   C     C_R   0.447764 0.866847 0.823360 -0.055290
C15   C     C_R   0.529433 0.168488 0.046114 -0.104927
C16   C     C_R   0.470569 0.831514 0.953887 -0.104928
C17   C     C_R   0.411422 0.142735 0.968271 -0.164257
C18   C     C_R   0.588583 0.857265 0.031727 -0.164255
C19   C     C_R   0.473409 0.913890 0.376838 -0.189712
C20   C     C_R   0.526591 0.086109 0.623161 -0.189712
C21   C     C_R   0.497008 0.872170 0.503850 -0.069321
C22   C     C_R   0.502992 0.127830 0.496149 -0.069321
C23   C     C_R   0.262308 0.502616 0.500019 0.825748
C24   C     C_R   0.737692 0.497383 0.499982 0.825746
C25   C     C_R   0.522101 0.959873 0.629150 -0.016831
C26   C     C_R   0.477899 0.040127 0.370849 -0.016829
C27   C     C_2   0.509782 0.511814 0.078533 -0.082297
C28   C     C_2   0.490218 0.488186 0.921467 -0.082296
C29   C     C_R   0.187637 0.551644 0.055662 -0.208109
C30   C     C_R   0.812364 0.448355 0.944339 -0.208111
C31   C     C_R   0.147494 0.570126 0.185314 0.463555
C32   C     C_R   0.852506 0.429873 0.814686 0.463554
C33   C     C_R   0.082620 0.470564 0.229663 -0.034615
C34   C     C_R   0.917380 0.529435 0.770338 -0.034614
C35   C     C_R   0.055102 0.355595 0.139163 -0.261491
C36   C     C_R   0.944899 0.644404 0.860837 -0.261492
C37   C     C_R   0.093970 0.336499 0.007835 0.581710
C38   C     C_R   0.906032 0.663500 0.992165 0.581708
C39   C     C_R   0.163388 0.436209 0.968695 -0.363777
C40   C     C_R   0.836614 0.563790 0.031306 -0.363774
C41   C     C_R   0.917330 0.474454 0.376060 -0.281529
C42   C     C_R   0.082670 0.525544 0.623940 -0.281530
Cu1   Cu    Cu3+1 0.521120 0.521140 0.639640 0.962233
Cu2   Cu    Cu3+1 0.478880 0.478860 0.360360 0.962232
H1    H     H_    0.201340 0.426001 0.872587 0.142382
H2    H     H_    0.798664 0.573998 0.127415 0.142383
H3    H     H_    0.644338 0.152417 0.235866 0.118414
H4    H     H_    0.355661 0.847589 0.764139 0.118412
H5    H     H_    0.603487 0.214154 0.004398 0.127918
H6    H     H_    0.396515 0.785851 0.995606 0.127917
H7    H     H_    0.451928 0.847757 0.280557 0.176575
H8    H     H_    0.548073 0.152243 0.719442 0.176577
H9    H     H_    0.421562 0.414145 0.866397 0.149581
H10   H     H_    0.578438 0.585854 0.133603 0.149581
H11   H     H_    0.617681 0.622407 0.903904 0.218877
H12   H     H_    0.382319 0.377593 0.096095 0.218878
H13   H     H_    0.240080 0.626578 0.022730 0.168636
H14   H     H_    0.759921 0.373421 0.977271 0.168635
H15   H     H_    0.003769 0.279391 0.171612 0.164195
H16   H     H_    0.996232 0.720608 0.828388 0.164195
H17   H     H_    0.853568 0.452182 0.279998 0.159052
H18   H     H_    0.146432 0.547816 0.720002 0.159052
H19   H     H_    0.394979 0.168138 0.866359 0.113296
H20   H     H_    0.605027 0.831863 0.133639 0.113296
H21   H     H_    0.225668 0.057840 0.958816 0.180477
H22   H     H_    0.774339 0.942152 0.041175 0.180482
H23   H     H_    0.262603 0.001961 0.192284 0.175575
H24   H     H_    0.737401 0.998030 0.807707 0.175572
N1    N     N_2   0.447120 0.447110 0.150550 -0.278750
N2    N     N_2   0.552880 0.552890 0.849450 -0.278750
O1    O     O_R   0.517830 0.337490 0.617920 -0.567711
O2    O     O_R   0.482170 0.662510 0.382080 -0.567711
O3    O     O_R   0.482150 0.301790 0.382070 -0.577847
O4    O     O_R   0.517850 0.698210 0.617930 -0.577846
O5    O     O_R   0.337480 0.517860 0.617920 -0.600899
O6    O     O_R   0.662520 0.482140 0.382080 -0.600899
O7    O     O_R   0.301810 0.482160 0.382070 -0.557766
O8    O     O_R   0.698190 0.517840 0.617930 -0.557766
Cl1   Cl    Cl    0.188831 0.716295 0.292942 -0.698271
Cl2   Cl    Cl    0.811169 0.283704 0.707059 -0.698271
O9    O     O_3   0.060365 0.219301 0.925485 -0.575660
C43   C     C_3   0.098099 0.207096 0.792542 -0.276706
H25   H     H_    0.200229 0.214577 0.800433 0.118929
H26   H     H_    0.060370 0.276678 0.731981 0.206839
H27   H     H_    0.062249 0.113381 0.733641 0.203575
O10   O     O_3   0.939638 0.780697 0.074515 -0.575661
C44   C     C_3   0.901903 0.792904 0.207458 -0.276703
H28   H     H_    0.939632 0.723324 0.268022 0.206841
H29   H     H_    0.799772 0.785423 0.199566 0.118927
H30   H     H_    0.937751 0.886620 0.266359 0.203573

loop_
_geom_bond_atom_site_label_1
_geom_bond_atom_site_label_2
_ccdc_geom_bond_type
C30   C32   A    
C5    C42   A    
C8    H22   S    
C41   H17   S    
C44   H28   S    
O9    C43   S    
C27   H10   S    
Cu1   O8    S    
C40   H2    S    
C1    O1    A    
C38   O10   S    
Cu2   O7    S    
C19   C21   A    
C16   H6    S    
C32   Cl2   S    
C20   C25   A    
C35   H15   S    
Cu2   O6    S    
C19   C26   A    
C7    C17   A    
C6    C41   A    
C31   C33   A    
C42   H18   S    
C27   N1    D    
C39   H1    S    
Cu1   O4    S    
C1    C22   S    
C37   O9    S    
C3    C24   S    
C2    O2    A    
Cu1   O5    S    
C29   H13   S    
C4    C6    A    
C23   O5    A    
C13   H3    S    
C4    C23   S    
O10   C44   S    
C24   O6    A    
C14   H4    S    
C11   C26   S    
C36   H16   S    
C8    C18   A    
C32   C34   A    
Cu1   Cu2   S    
C9    H23   S    
C7    H21   S    
C29   C31   A    
C5    C34   S    
C29   C39   A    
C2    C21   S    
C30   C40   A    
Cu2   N1    S    
C16   C18   A    
C23   O7    A    
C9    C11   A    
C10   C12   A    
C24   O8    A    
C12   C14   A    
H12   N1    S    
Cu1   N2    S    
C43   H26   S    
C13   C15   A    
C14   C16   A    
C7    C9    A    
C21   C25   A    
C3    C41   A    
Cu1   O1    S    
C35   C37   A    
C8    C10   A    
C28   N2    D    
C20   C22   A    
C3    C5    A    
C2    O4    A    
C28   H9    S    
C31   Cl1   S    
C10   H24   S    
C43   H27   S    
C6    C33   S    
C12   C25   S    
C1    O3    A    
C36   C38   A    
C20   H8    S    
C17   H19   S    
C38   C40   A    
C11   C13   A    
C18   H20   S    
C4    C42   A    
C30   H14   S    
C33   C35   A    
Cu2   O2    S    
C34   C36   A    
C15   H5    S    
Cu2   O3    S    
H11   N2    S    
C19   H7    S    
C37   C39   A    
C43   H25   S    
C22   C26   A    
C44   H30   S    
C27   C28   S    
C44   H29   S    
C15   C17   A    
