data_mof_unit_56121.cif
_audit_creation_date              2012-12-11T15:30:39-0500
_audit_creation_method            fapswitch 2.2
_symmetry_space_group_name_H-M    P1
_symmetry_Int_Tables_number       1
_space_group_crystal_system       triclinic
_cell_length_a                    6.975713
_cell_length_b                    20.484063
_cell_length_c                    24.373936
_cell_angle_alpha                 89.762867
_cell_angle_beta                  90.604334
_cell_angle_gamma                 89.312876
_cell_volume                      3482.33888433

loop_
_atom_site_label
_atom_site_type_symbol
_atom_type_description
_atom_site_fract_x
_atom_site_fract_y
_atom_site_fract_z
_atom_type_partial_charge
O1    O     O_R   0.507310 0.423620 0.460450 -0.537353
O2    O     O_R   0.170760 0.556060 0.437190 -0.538098
O3    O     O_R   0.004040 0.576380 0.539550 -0.533296
C1    C     C_R   0.338500 0.576097 0.421204 0.720858
O4    O     O_R   0.177350 0.422870 0.454070 -0.537662
O5    O     O_R   0.010680 0.442240 0.556560 -0.531411
C2    C     C_R   0.346174 0.398876 0.443568 0.719111
O6    O     O_R   0.500670 0.557760 0.443440 -0.535985
O7    O     O_3   0.340380 0.506510 0.533610 -0.363032
V1    V     V_3+5 0.064130 0.498790 0.493770 1.430993
O8    O     O_R   0.681170 0.443940 0.562810 -0.536176
C3    C     C_R   0.851356 0.424164 0.578754 0.717403
O9    O     O_R   0.674570 0.577130 0.545930 -0.536528
C4    C     C_R   0.842613 0.601105 0.556411 0.690715
V2    V     V_3+5 0.564560 0.501210 0.506230 1.433511
O10   O     O_3   0.838170 0.493490 0.466390 -0.369557
C5    C     C_R   0.979788 0.837653 0.911822 -0.046608
C6    C     C_R   0.848987 0.661746 0.588654 -0.064329
C7    C     C_R   0.083045 0.725051 0.904830 -0.138331
C8    C     C_R   0.057180 0.781201 0.935846 -0.164964
C9    C     C_R   0.925562 0.837238 0.856068 -0.196883
C10   C     C_R   0.956013 0.780811 0.822843 0.084471
C11   C     C_R   0.036365 0.724670 0.848627 0.083641
C12   C     C_R   0.916639 0.778887 0.764936 0.005380
C13   C     C_R   0.950205 0.719829 0.734303 -0.031383
C14   C     C_R   0.042699 0.665982 0.761459 0.401930
C15   C     C_R   0.081740 0.669507 0.817987 -0.289510
C16   C     C_R   0.852157 0.835149 0.736222 -0.158939
C17   C     C_R   0.820887 0.834611 0.679993 -0.199237
C18   C     C_R   0.840758 0.777241 0.650157 0.135037
C19   C     C_R   0.897287 0.718284 0.676897 0.106802
C20   C     C_R   0.799131 0.778353 0.593641 -0.163027
C21   C     C_R   0.805642 0.721176 0.563059 -0.165867
C22   C     C_R   0.889516 0.660150 0.645236 -0.159051
H1    H     H_    0.159642 0.630047 0.838137 0.122834
H2    H     H_    0.901414 0.612743 0.663794 0.144063
H3    H     H_    0.772001 0.723032 0.519575 0.105349
H4    H     H_    0.775619 0.879566 0.659792 0.117003
H5    H     H_    0.145905 0.682248 0.924568 0.111611
H6    H     H_    0.101966 0.781180 0.978538 0.108187
H7    H     H_    0.866923 0.882272 0.839847 0.091138
H8    H     H_    0.829122 0.881540 0.755749 0.117060
H9    H     H_    0.758913 0.823608 0.573128 0.112056
C23   C     C_3   0.770758 0.259807 0.802830 -0.346244
C24   C     C_3   0.122721 0.243757 0.784413 -0.410412
C25   C     C_3   0.104972 0.295188 0.736443 0.347622
H10   H     H_    0.782126 0.359991 0.770975 0.136146
H11   H     H_    0.802890 0.285839 0.841778 0.146649
H12   H     H_    0.240124 0.207519 0.778968 0.126018
H13   H     H_    0.159105 0.269668 0.823156 0.119317
H14   H     H_    0.114998 0.343522 0.756871 0.067707
C26   C     C_1   0.865985 0.379239 0.624760 -0.179696
C27   C     C_3   0.929579 0.207858 0.791675 0.256810
C28   C     C_3   0.755382 0.310135 0.754830 -0.428155
C29   C     C_3   0.901649 0.293575 0.709088 0.215374
C30   C     C_3   0.860423 0.223386 0.688906 -0.348835
C31   C     C_3   0.877333 0.173208 0.737018 -0.348685
C32   C     C_1   0.881923 0.341139 0.662897 -0.027015
C33   C     C_1   0.945211 0.160004 0.837738 -0.074275
C34   C     C_1   0.959025 0.121424 0.875619 -0.198460
H15   H     H_    0.738446 0.147634 0.741430 0.140097
H16   H     H_    0.986779 0.135171 0.727471 0.133456
H17   H     H_    0.717443 0.221435 0.670209 0.151342
H18   H     H_    0.630196 0.235483 0.807941 0.149773
H19   H     H_    0.607391 0.311204 0.737837 0.205782
H20   H     H_    0.951542 0.209559 0.653863 0.144651
C35   C     C_3   0.578449 0.693197 0.260044 -0.332335
C36   C     C_3   0.221268 0.702339 0.248368 -0.371661
C37   C     C_3   0.245754 0.752348 0.200204 0.354426
H21   H     H_    0.619492 0.715424 0.172773 0.170431
H22   H     H_    0.578512 0.642597 0.243600 0.147157
H23   H     H_    0.082316 0.712066 0.269000 0.099468
H24   H     H_    0.215274 0.651687 0.232128 0.163228
H25   H     H_    0.124534 0.788575 0.201407 0.013921
C38   C     C_1   0.476386 0.878023 0.124515 -0.191825
C39   C     C_3   0.388213 0.707066 0.290661 0.241927
C40   C     C_3   0.605640 0.742513 0.212015 -0.324655
C41   C     C_3   0.434424 0.791558 0.208240 0.239361
C42   C     C_3   0.422182 0.827526 0.264078 -0.427666
C43   C     C_3   0.393663 0.778261 0.312071 -0.340571
C44   C     C_1   0.460528 0.839345 0.162308 -0.058118
C45   C     C_1   0.363460 0.659798 0.337002 -0.076921
C46   C     C_1   0.347958 0.621507 0.375109 -0.195199
H26   H     H_    0.512499 0.783366 0.342517 0.151498
H27   H     H_    0.257697 0.790161 0.333530 0.144922
H28   H     H_    0.555642 0.855555 0.271439 0.162831
H29   H     H_    0.701820 0.696579 0.289178 0.139812
H30   H     H_    0.741626 0.769443 0.218439 0.119623
H31   H     H_    0.300989 0.863356 0.263130 0.142537
C47   C     C_R   0.472610 0.161902 0.088678 -0.099116
C48   C     C_R   0.351560 0.337807 0.411734 -0.089762
C49   C     C_R   0.540546 0.277538 0.094193 0.414745
C50   C     C_R   0.531377 0.219715 0.064090 -0.252726
C51   C     C_R   0.425750 0.161356 0.144569 -0.221206
C52   C     C_R   0.440872 0.218689 0.177258 0.036626
C53   C     C_R   0.500362 0.276977 0.150900 0.044029
C54   C     C_R   0.402062 0.219999 0.235142 0.090222
C55   C     C_R   0.424548 0.279307 0.265648 0.089428
C56   C     C_R   0.484114 0.335467 0.237151 -0.203874
C57   C     C_R   0.520288 0.334226 0.181318 -0.176343
C58   C     C_R   0.341683 0.163940 0.263543 -0.212712
C59   C     C_R   0.303583 0.165321 0.319249 -0.162755
C60   C     C_R   0.322657 0.222609 0.349766 0.059015
C61   C     C_R   0.385151 0.280640 0.323522 0.030120
C62   C     C_R   0.278683 0.222024 0.406304 0.424759
C63   C     C_R   0.287590 0.280560 0.436138 -0.271178
C64   C     C_R   0.402124 0.337836 0.356196 -0.222629
H32   H     H_    0.565389 0.379107 0.161919 0.165323
H33   H     H_    0.447606 0.383850 0.339627 0.105994
H34   H     H_    0.241840 0.282037 0.478432 0.106705
H35   H     H_    0.257317 0.120437 0.338395 0.170346
H36   H     H_    0.571817 0.219950 0.021270 0.119402
H37   H     H_    0.384393 0.114966 0.161337 0.105755
H38   H     H_    0.504377 0.381877 0.256736 0.122224
H39   H     H_    0.320958 0.117597 0.243878 0.122422
O11   O     O_R   0.323590 0.942280 0.056590 -0.534445
O12   O     O_R   0.647030 0.077140 0.045940 -0.536817
O13   O     O_R   0.813570 0.057750 0.943430 -0.535233
C65   C     C_R   0.478200 0.101074 0.056553 0.718384
O14   O     O_R   0.653510 0.943950 0.062820 -0.538405
O15   O     O_R   0.820100 0.923600 0.960440 -0.536268
C66   C     C_R   0.485798 0.923810 0.078718 0.723478
O16   O     O_R   0.317060 0.076430 0.039590 -0.536712
O17   O     O_3   0.483830 0.993520 0.966410 -0.368067
V3    V     V_3+5 0.760140 0.001200 0.006230 1.419158
O18   O     O_R   0.149560 0.922820 0.954030 -0.536843
C67   C     C_R   0.981734 0.898780 0.943597 0.692206
O19   O     O_R   0.143080 0.056020 0.937150 -0.538114
C68   C     C_R   0.972972 0.075978 0.921321 0.726827
V4    V     V_3+5 0.259690 0.998730 0.993720 1.420064
O20   O     O_3   0.986120 0.006480 0.033580 -0.367466
O21   O     O_3   0.255213 0.295907 0.697401 -0.556844
C69   C     C_3   0.323259 0.233895 0.680815 0.118690
H40   H     H_    0.224439 0.193189 0.686550 0.111389
H41   H     H_    0.448391 0.220424 0.706494 0.113032
C70   C     C_3   0.375433 0.237183 0.620409 -0.761244
H42   H     H_    0.482159 0.276084 0.613460 0.231556
H43   H     H_    0.436413 0.189582 0.607058 0.167150
H44   H     H_    0.245102 0.248592 0.595474 0.213722
O22   O     O_3   0.251925 0.718982 0.149288 -0.551003
C71   C     C_3   0.065202 0.711192 0.127495 0.087271
H45   H     H_    0.002268 0.759461 0.115531 0.118393
H46   H     H_    0.970296 0.686902 0.157609 0.110158
C72   C     C_3   0.075546 0.668716 0.076574 -0.706210
H47   H     H_    0.131412 0.619356 0.087688 0.220482
H48   H     H_    0.930332 0.664005 0.058006 0.177221
H49   H     H_    0.172173 0.691002 0.046014 0.218303
O23   O     O_3   0.604341 0.333751 0.068974 -0.558297
C73   C     C_3   0.451682 0.361468 0.037946 0.082253
H50   H     H_    0.324333 0.370973 0.064163 0.124029
H51   H     H_    0.410247 0.328902 0.003423 0.118674
C74   C     C_3   0.515102 0.426254 0.013921 -0.711979
H52   H     H_    0.640551 0.418432 0.986927 0.221238
H53   H     H_    0.396139 0.448544 0.989370 0.172913
H54   H     H_    0.555224 0.460205 0.047443 0.221777
O24   O     O_3   0.209431 0.164953 0.429708 -0.560332
C75   C     C_3   0.295202 0.152123 0.481521 0.088865
H55   H     H_    0.215570 0.178755 0.513858 0.125810
H56   H     H_    0.449562 0.165817 0.482958 0.119406
C76   C     C_3   0.283034 0.079494 0.493932 -0.718404
H57   H     H_    0.361862 0.051175 0.462420 0.220582
H58   H     H_    0.347796 0.068931 0.534884 0.171325
H59   H     H_    0.130805 0.064196 0.493972 0.225024
O25   O     O_3   0.130399 0.616787 0.731186 -0.550047
C77   C     C_3   0.075810 0.554174 0.749872 0.050197
H60   H     H_    0.917617 0.551340 0.755356 0.108506
H61   H     H_    0.150076 0.541232 0.789000 0.123732
C78   C     C_3   0.135563 0.503169 0.707870 -0.667339
H62   H     H_    0.293450 0.503741 0.702492 0.227064
H63   H     H_    0.093466 0.454014 0.722271 0.169362
H64   H     H_    0.064656 0.512885 0.667657 0.203927

loop_
_geom_bond_atom_site_label_1
_geom_bond_atom_site_label_2
_ccdc_geom_bond_type
C13   C19   A    
C18   C20   A    
C29   C30   S    
O18   C67   A    
C49   O23   S    
C38   C66   S    
C4    C6    S    
O2    C1    A    
C7    C8    A    
C35   C40   S    
C1    O6    A    
O19   C68   A    
C56   H38   S    
C54   C55   A    
C59   H35   S    
C31   H16   S    
C28   H19   S    
C24   C25   S    
C23   H18   S    
C14   C15   A    
C75   H55   S    
O11   C66   A    
C7    H5    S    
C9    C10   A    
O25   C77   S    
O15   C67   A    
O12   C65   A    
O5    C3    A    
C18   C19   A    
C8    H6    S    
C30   H20   S    
O18   V4    S    
V2    O10   S    
C49   C53   A    
C5    C8    A    
C30   C31   S    
O13   C68   A    
C16   H8    S    
C36   C37   S    
O8    V2    S    
C23   C27   S    
C78   H64   S    
C52   C53   A    
C40   H30   S    
O21   C69   S    
C25   C29   S    
C69   C70   S    
O1    V2    S    
O13   V3    S    
C11   C15   A    
C17   C18   A    
O7    V1    S    
C22   H2    S    
C43   H26   S    
C37   O22   S    
C78   H63   S    
C24   C27   S    
C33   C34   T    
C77   H61   S    
O9    C4    A    
H21   C40   S    
C64   H33   S    
C48   C63   A    
C37   C41   S    
C59   C60   A    
C72   H49   S    
C3    C26   S    
C51   H37   S    
O14   C66   A    
C47   C51   A    
C27   C33   S    
C57   H32   S    
C58   C59   A    
C48   C64   A    
C12   C13   A    
C72   H48   S    
C73   C74   S    
C39   C45   S    
O4    C2    A    
C27   C31   S    
C41   C42   S    
C38   C44   T    
C15   H1    S    
C36   H24   S    
C40   C41   S    
C25   H14   S    
C21   H3    S    
C71   H46   S    
C70   H44   S    
C17   H4    S    
C7    C11   A    
C76   H59   S    
O15   V3    S    
C43   H27   S    
V3    O20   S    
C56   C57   A    
C74   H54   S    
C24   H12   S    
C36   H23   S    
C2    C48   S    
C30   H17   S    
O17   V4    S    
C37   H25   S    
C60   C62   A    
C36   C39   S    
O22   C71   S    
C6    C22   A    
O3    C4    A    
C26   C32   T    
H10   C28   S    
C9    H7    S    
C70   H43   S    
C78   H62   S    
C74   H53   S    
C55   C56   A    
O6    V2    S    
O9    V2    S    
O16   V4    S    
C69   H40   S    
C58   H39   S    
C10   C12   A    
C71   C72   S    
C39   C43   S    
C6    C21   A    
O2    V1    S    
O11   V4    S    
C19   C22   A    
C47   C50   A    
C63   H34   S    
C28   C29   S    
C16   C17   A    
O1    C2    A    
C5    C67   S    
C12   C16   A    
C70   H42   S    
O19   V4    S    
C34   C68   S    
O5    V1    S    
O8    C3    A    
C52   C54   A    
C31   H15   S    
C65   O16   A    
C75   C76   S    
C77   C78   S    
C62   C63   A    
C35   H29   S    
C72   H47   S    
C20   C21   A    
C73   H51   S    
V4    O20   S    
C13   C14   A    
O4    V1    S    
O3    V1    S    
V1    O10   S    
C71   H45   S    
C47   C65   S    
C25   O21   S    
C41   C44   S    
C1    C46   S    
C24   H13   S    
C55   C61   A    
C53   C57   A    
C14   O25   S    
C49   C50   A    
O14   V3    S    
C20   H9    S    
C35   H22   S    
O23   C73   S    
C42   H28   S    
O7    V2    S    
C51   C52   A    
C76   H57   S    
C5    C9    A    
C42   H31   S    
C50   H36   S    
C42   C43   S    
C23   C28   S    
C77   H60   S    
C62   O24   S    
O24   C75   S    
C74   H52   S    
C75   H56   S    
C45   C46   T    
C29   C32   S    
C60   C61   A    
C69   H41   S    
C10   C11   A    
C35   C39   S    
C73   H50   S    
O12   V3    S    
C61   C64   A    
C54   C58   A    
C23   H11   S    
C76   H58   S    
O17   V3    S    
