data_mof_unit_32519.cif
_audit_creation_date              2012-12-11T16:53:28-0500
_audit_creation_method            fapswitch 2.2
_symmetry_space_group_name_H-M    P1
_symmetry_Int_Tables_number       1
_space_group_crystal_system       triclinic
_cell_length_a                    15.045779
_cell_length_b                    14.836124
_cell_length_c                    17.09219
_cell_angle_alpha                 108.583406
_cell_angle_beta                  106.278457
_cell_angle_gamma                 108.100609
_cell_volume                      3117.9394949

loop_
_atom_site_label
_atom_site_type_symbol
_atom_type_description
_atom_site_fract_x
_atom_site_fract_y
_atom_site_fract_z
_atom_type_partial_charge
C1    C     C_R   0.088854 0.289530 0.079334 -0.103796
C2    C     C_R   0.025866 0.539138 0.731549 0.068793
C3    C     C_R   0.760552 0.198489 0.727962 0.103549
C4    C     C_R   0.286268 0.459595 0.964191 0.046294
C5    C     C_R   0.270938 0.693199 0.253827 -0.025738
C6    C     C_R   0.710714 0.511881 0.925428 -0.147391
C7    C     C_R   0.891954 0.470962 0.187269 -0.056521
C8    C     C_R   0.079978 0.806305 0.020715 -0.126536
C9    C     C_R   0.909594 0.722365 0.946160 -0.060132
C10   C     C_R   0.063210 0.544967 0.264442 -0.004667
C11   C     C_R   0.275567 0.786174 0.174605 -0.108766
C12   C     C_R   0.935717 0.498906 0.739803 -0.120143
C13   C     C_R   0.699192 0.411767 0.998559 0.347764
C14   C     C_R   0.326923 0.786471 0.254579 0.001073
C15   C     C_R   0.647205 0.452799 0.951352 -0.048131
C16   C     C_R   0.972348 0.539110 0.272025 -0.005710
C17   C     C_R   0.992845 0.821632 0.987400 0.129370
C18   C     C_R   0.450906 0.541533 0.965277 0.037131
C19   C     C_R   0.368912 0.448586 0.944347 -0.042207
C20   C     C_R   0.368798 0.350085 0.902714 0.396341
C21   C     C_R   0.460038 0.348994 0.898975 -0.170259
C22   C     C_R   0.547453 0.445678 0.936184 0.001708
C23   C     C_R   0.777352 0.202148 0.812518 -0.028691
C24   C     C_R   0.539436 0.540353 0.961924 0.039357
C25   C     C_3   0.605353 0.644990 0.045308 0.168773
C26   C     C_3   0.505228 0.646152 0.048011 -0.514320
C27   C     C_R   0.961397 0.561182 0.356390 0.032113
C28   C     C_R   0.028493 0.527895 0.645910 0.028244
C29   C     C_R   0.963611 0.410202 0.487656 -0.221332
C30   C     C_R   0.994353 0.425461 0.577143 -0.112011
C31   C     C_R   0.036348 0.613468 0.626129 -0.211361
C32   C     C_R   0.005486 0.598435 0.536005 0.113696
C33   C     C_R   0.968276 0.494933 0.467121 0.177199
C34   C     C_R   0.252902 0.529688 0.945781 -0.043549
C35   C     C_R   0.941882 0.477065 0.378069 -0.197363
C36   C     C_R   0.992663 0.664877 0.421394 -0.106967
C37   C     C_R   0.012449 0.683432 0.512625 -0.186410
C38   C     C_R   0.695123 0.106707 0.642418 -0.001865
C39   C     C_R   0.413079 0.875243 0.332129 0.033385
C40   C     C_R   0.465575 0.045145 0.451207 -0.154595
C41   C     C_R   0.398340 0.965664 0.366018 -0.091295
C42   C     C_R   0.499482 0.865596 0.379724 0.279707
C43   C     C_R   0.567891 0.946123 0.467253 0.011075
C44   C     C_R   0.547624 0.034108 0.502667 0.133863
C45   C     C_R   0.783274 0.299183 0.736589 -0.127118
C46   C     C_R   0.609101 0.110904 0.589899 -0.253451
C47   C     C_R   0.718551 0.021779 0.609566 0.320387
C48   C     C_R   0.654057 0.940842 0.521718 -0.169918
C49   C     C_R   0.083629 0.086294 0.104980 0.087415
C50   C     C_R   0.014797 0.132490 0.105309 -0.015502
C51   C     C_R   0.972568 0.133993 0.170533 0.337293
C52   C     C_R   0.005212 0.097255 0.234943 -0.205586
C53   C     C_R   0.084586 0.066092 0.240569 0.110611
C54   C     C_R   0.119001 0.056620 0.172284 0.000159
C55   C     C_3   0.225676 0.092055 0.177119 -0.306031
C56   C     C_R   0.259176 0.443382 0.031716 -0.074363
C57   C     C_3   0.185983 0.120153 0.099694 -0.438459
C58   C     C_R   0.107636 0.582645 0.814902 -0.027227
C59   C     C_R   0.919609 0.202337 0.003607 -0.066841
C60   C     C_R   0.007024 0.196621 0.054518 0.039599
H1    H     H_    0.161332 0.322352 0.136755 0.155673
H2    H     H_    0.690194 0.545155 0.879197 0.147011
H3    H     H_    0.811816 0.446568 0.172578 0.174967
H4    H     H_    0.157938 0.864985 0.049025 0.121799
H5    H     H_    0.830350 0.703210 0.907505 0.139069
H6    H     H_    0.464200 0.274486 0.872158 0.188388
H7    H     H_    0.859020 0.473109 0.690242 0.107105
H8    H     H_    0.492335 0.639937 0.107474 0.225925
H9    H     H_    0.488613 0.708058 0.032597 0.238830
H10   H     H_    0.917183 0.398327 0.326241 0.186617
H11   H     H_    0.936890 0.332139 0.433563 0.194436
H12   H     H_    0.062469 0.690099 0.681546 0.155426
H13   H     H_    0.590980 0.176422 0.616951 0.140769
H14   H     H_    0.762586 0.134852 0.826624 0.125996
H15   H     H_    0.451257 0.113344 0.478138 0.155235
H16   H     H_    0.672401 0.875366 0.497026 0.215266
H17   H     H_    0.330851 0.971648 0.328575 0.166642
H18   H     H_    0.976400 0.103164 0.286808 0.192251
H19   H     H_    0.248028 0.026725 0.157696 0.141221
H20   H     H_    0.224493 0.204778 0.116304 0.226054
H21   H     H_    0.272383 0.568108 0.905074 0.120781
H22   H     H_    0.180630 0.066193 0.034295 0.219500
H23   H     H_    0.770157 0.321658 0.681945 0.112036
H24   H     H_    0.187001 0.632450 0.833075 0.110065
H25   H     H_    0.298725 0.664337 0.301149 0.169172
N1    N     N_R   0.055640 0.348550 0.045600 -0.052874
N2    N     N_R   0.798340 0.505430 0.954400 -0.065209
N3    N     N_R   0.931580 0.439470 0.128350 -0.041247
N4    N     N_R   0.051950 0.704140 0.002340 -0.039704
N5    N     N_R   0.944360 0.651450 0.954400 -0.060776
N6    N     N_R   0.039170 0.492150 0.176290 -0.069205
N7    N     N_R   0.188710 0.696600 0.128350 -0.061496
N8    N     N_R   0.794820 0.447010 0.002340 -0.080831
N9    N     N_R   0.960830 0.507850 0.823710 -0.045746
N10   N     N_R   0.811290 0.303400 0.871650 -0.045084
N11   N     N_R   0.205180 0.552990 0.997660 -0.046347
N12   N     N_R   0.814810 0.361830 0.823710 -0.057477
N13   N     N_R   0.201660 0.494570 0.045600 -0.065589
N14   N     N_R   0.068420 0.560530 0.871650 -0.036152
N15   N     N_R   0.948050 0.295860 0.997660 -0.065284
N16   N     N_R   0.185190 0.638170 0.176290 -0.060513
Ni1   Ni    Ni4+2 0.119330 0.493420 0.109950 0.294167
Ni2   Ni    Ni4+2 0.880670 0.506580 0.890050 0.225047
Ni3   Ni    Ni4+2 0.872590 0.372590 0.000000 0.307272
Ni4   Ni    Ni4+2 0.127410 0.627410 0.000000 0.272564
C61   C     C_2   0.157825 0.566606 0.338209 0.960738
O1    O     O_2   0.188359 0.635232 0.415147 -0.614730
O2    O     O_R   0.210883 0.505860 0.319858 -0.786154
H26   H     H_    0.274163 0.526970 0.375571 0.345909
C62   C     C_2   0.324602 0.846227 0.131842 0.974538
O3    O     O_2   0.396311 0.934705 0.178762 -0.611038
O4    O     O_R   0.291162 0.799680 0.037403 -0.826778
H27   H     H_    0.331137 0.847644 0.015911 0.335469
Br1   Br    Br    0.636360 0.302391 0.029348 -0.450415
Br2   Br    Br    0.250183 0.218642 0.856673 -0.438045
C63   C     C_2   0.672763 0.638899 0.126205 1.043266
O5    O     O_2   0.634795 0.576208 0.153292 -0.600010
O6    O     O_R   0.778921 0.703855 0.169099 -0.744131
H28   H     H_    0.815804 0.691047 0.220988 0.331485
Br3   Br    Br    0.678826 0.754073 0.016249 -0.450403
C64   C     C_2   0.002584 0.751577 0.393221 1.058659
O7    O     O_2   0.969596 0.814789 0.421620 -0.596421
O8    O     O_R   0.048282 0.760378 0.333467 -0.797321
H29   H     H_    0.049574 0.821918 0.319147 0.337453
C65   C     C_2   0.047575 0.791930 0.583437 1.079173
O9    O     O_2   0.000566 0.807774 0.630219 -0.589770
O10   O     O_R   0.133643 0.875941 0.595605 -0.759337
H30   H     H_    0.149645 0.945969 0.645402 0.360199
C66   C     C_2   0.986705 0.332639 0.596231 1.027584
O11   O     O_2   0.038799 0.345364 0.671589 -0.616053
O12   O     O_R   0.920691 0.229972 0.527113 -0.779677
H31   H     H_    0.921795 0.173653 0.548332 0.357159
Br4   Br    Br    0.838908 0.016164 0.680290 -0.443401
Br5   Br    Br    0.521461 0.743544 0.324294 -0.498809
Br6   Br    Br    0.887954 0.204640 0.189913 -0.529419
C67   C     C_2   0.305524 0.184244 0.267238 1.129521
O13   O     O_2   0.352791 0.270716 0.271816 -0.622176
O14   O     O_R   0.327009 0.168786 0.345653 -0.820634
H32   H     H_    0.382329 0.235220 0.402014 0.325443
C68   C     C_2   0.315388 0.416893 0.099879 1.007659
O15   O     O_2   0.351700 0.354710 0.078600 -0.574155
O16   O     O_R   0.331052 0.467525 0.190289 -0.767719
H33   H     H_    0.372402 0.445080 0.231522 0.375527
C69   C     C_2   0.812832 0.128092 0.977172 1.046582
O17   O     O_2   0.792461 0.036996 0.965408 -0.580931
O18   O     O_R   0.735312 0.161593 0.966067 -0.768095
H34   H     H_    0.665439 0.102798 0.946882 0.362859

loop_
_geom_bond_atom_site_label_1
_geom_bond_atom_site_label_2
_ccdc_geom_bond_type
N11   Ni4   S    
N16   Ni1   S    
C21   H6    S    
C48   H16   S    
C3    C23   A    
C19   C20   A    
C18   C26   S    
C56   N13   A    
C2    C12   A    
O8    H29   S    
C39   C41   A    
C53   C54   A    
C63   O5    D    
C18   C24   A    
C36   C37   A    
C68   O16   S    
O18   H34   S    
C41   H17   S    
C56   C68   S    
C11   C14   A    
C61   O1    D    
C55   C67   S    
C29   C33   A    
N15   Ni3   S    
C49   C57   S    
O2    H26   S    
C18   C19   A    
O6    H28   S    
C14   C39   S    
C62   O3    D    
C4    C19   S    
C51   Br6   S    
C11   N7    A    
C15   C22   S    
C7    N3    A    
C35   H10   S    
C23   N10   A    
N11   N13   A    
C34   H21   S    
N1    N15   A    
C43   C48   A    
C13   Br1   S    
C5    H25   S    
C16   C27   S    
C6    C15   A    
C59   C60   A    
C21   C22   A    
C4    C56   A    
C11   C62   S    
C59   N15   A    
C57   H20   S    
C12   N9    A    
C45   H23   S    
C52   H18   S    
N8    Ni3   S    
O4    H27   S    
N3    Ni3   S    
C44   C46   A    
C39   C42   A    
C37   C65   S    
C28   C31   A    
N14   Ni4   S    
C12   H7    S    
C5    N16   A    
C38   C46   A    
C51   C52   A    
C24   C25   S    
C3    C38   S    
C67   O14   S    
C1    C60   A    
C10   C16   A    
C69   O17   D    
C27   C35   A    
C25   C26   S    
N13   Ni1   S    
C3    C45   A    
C6    N2    A    
C13   N8    A    
C43   C44   A    
C29   C30   A    
C58   H24   S    
C55   H19   S    
C47   C48   A    
N3    N6    A    
C9    H5    S    
C38   C47   A    
C50   C51   A    
C64   O7    D    
C32   C37   A    
C68   O15   D    
C7    H3    S    
C5    C14   A    
N12   Ni2   S    
N7    N16   A    
C8    H4    S    
N2    Ni2   S    
C69   O18   S    
C40   C41   A    
C10   N6    A    
C55   C57   S    
C65   O9    D    
C22   C24   A    
C25   C63   S    
C42   C43   A    
C23   H14   S    
O12   H31   S    
N1    Ni1   S    
C25   Br3   S    
N10   Ni3   S    
C66   O11   D    
C9    C17   A    
C1    N1    A    
C54   C55   S    
C31   H12   S    
N9    Ni2   S    
O16   H33   S    
C31   C32   A    
C7    C16   A    
C58   N14   A    
C34   N11   A    
C67   O13   D    
C1    H1    S    
C9    N5    A    
C59   C69   S    
C20   Br2   S    
N10   N12   A    
O10   H30   S    
C27   C36   A    
C30   C66   S    
C8    C17   A    
C40   H15   S    
C42   Br5   S    
C50   C60   S    
C32   C33   A    
C6    H2    S    
C13   C15   A    
C36   C64   S    
C26   H8    S    
C45   N12   A    
C61   O2    S    
N9    N14   A    
N2    N8    A    
C28   C30   A    
C33   C35   A    
C63   O6    S    
C4    C34   A    
C2    C58   A    
C62   O4    S    
N5    Ni2   S    
C64   O8    S    
C10   C61   S    
O14   H32   S    
N7    Ni4   S    
C40   C44   A    
C20   C21   A    
C49   C50   A    
N4    Ni4   S    
C65   O10   S    
C26   H9    S    
C57   H22   S    
C2    C28   S    
C8    N4    A    
N6    Ni1   S    
C29   H11   S    
N4    N5    A    
C46   H13   S    
C47   Br4   S    
C49   C54   A    
C52   C53   A    
C66   O12   S    
