data_mof_unit_12164.cif
_audit_creation_date              2012-12-10T18:05:43-0500
_audit_creation_method            fapswitch 2.2
_symmetry_space_group_name_H-M    P1
_symmetry_Int_Tables_number       1
_space_group_crystal_system       triclinic
_cell_length_a                    10.878274
_cell_length_b                    10.879266
_cell_length_c                    9.573003
_cell_angle_alpha                 90.339667
_cell_angle_beta                  89.443983
_cell_angle_gamma                 91.742541
_cell_volume                      1132.34705209

loop_
_atom_site_label
_atom_site_type_symbol
_atom_type_description
_atom_site_fract_x
_atom_site_fract_y
_atom_site_fract_z
_atom_type_partial_charge
C1    C     C_R   0.499641 0.262230 0.499107 0.858480
C2    C     C_R   0.500359 0.737770 0.500893 0.858480
C3    C     C_R   0.871465 0.496539 0.500285 -0.287231
C4    C     C_R   0.128535 0.503461 0.499715 -0.287232
C5    C     C_R   0.935335 0.447441 0.614189 -0.054861
C6    C     C_R   0.064665 0.552560 0.385811 -0.054860
C7    C     C_R   0.504266 0.061444 0.370452 0.510816
C8    C     C_R   0.495735 0.938556 0.629548 0.510816
C9    C     C_R   0.505514 0.933598 0.375154 -0.279274
C10   C     C_R   0.494487 0.066402 0.624846 -0.279273
C11   C     C_R   0.500619 0.871797 0.502860 -0.153799
C12   C     C_R   0.499381 0.128203 0.497140 -0.153799
C13   C     C_R   0.434330 0.412946 0.076154 0.720277
C14   C     C_R   0.565670 0.587054 0.923846 0.720273
C15   C     C_R   0.433613 0.412038 0.928731 0.246441
C16   C     C_R   0.566387 0.587962 0.071269 0.246441
C17   C     C_R   0.262450 0.501827 0.500171 0.882570
C18   C     C_R   0.737550 0.498173 0.499828 0.882570
C19   C     C_R   0.234938 0.787308 0.160122 0.614191
C20   C     C_R   0.765061 0.212695 0.839880 0.614189
C21   C     C_R   0.179615 0.730351 0.276363 -0.390543
C22   C     C_R   0.820384 0.269651 0.723639 -0.390540
C23   C     C_R   0.127611 0.611127 0.264354 -0.010486
C24   C     C_R   0.872388 0.388875 0.735646 -0.010486
C25   C     C_R   0.132554 0.549075 0.135249 0.710361
C26   C     C_R   0.867447 0.450927 0.864751 0.710362
C27   C     C_R   0.188872 0.606081 0.019789 -0.376310
C28   C     C_R   0.811130 0.393921 0.980212 -0.376306
C29   C     C_R   0.239715 0.725051 0.032025 0.513709
C30   C     C_R   0.760286 0.274952 0.967977 0.513705
C31   C     C_R   0.936894 0.548720 0.387313 0.615757
C32   C     C_R   0.063106 0.451280 0.612687 0.615759
Cu1   Cu    Cu3+1 0.500000 0.500020 0.640660 1.057441
Cu2   Cu    Cu3+1 0.500000 0.499980 0.359340 1.057442
H1    H     H_    0.175908 0.779333 0.375092 0.212068
H2    H     H_    0.824089 0.220669 0.624910 0.212067
H3    H     H_    0.192784 0.558203 0.920553 0.261203
H4    H     H_    0.807219 0.441800 0.079448 0.261204
H5    H     H_    0.510258 0.882415 0.277952 0.229298
H6    H     H_    0.489742 0.117585 0.722048 0.229299
N1    N     N_R   0.500030 0.500030 0.852070 -0.368727
N2    N     N_R   0.499970 0.499970 0.147930 -0.368727
O1    O     O_R   0.499990 0.319660 0.618740 -0.628730
O2    O     O_R   0.500010 0.680340 0.381260 -0.628730
O3    O     O_R   0.499990 0.319630 0.381170 -0.462963
O4    O     O_R   0.500010 0.680370 0.618830 -0.462964
O5    O     O_R   0.319650 0.500020 0.618780 -0.565306
O6    O     O_R   0.680350 0.499980 0.381220 -0.565306
O7    O     O_R   0.319640 0.500000 0.381210 -0.568604
O8    O     O_R   0.680360 0.500000 0.618790 -0.568605
F1    F     F_    0.292508 0.780317 0.919095 -0.580739
F2    F     F_    0.707493 0.219687 0.080907 -0.580745
O9    O     O_3   0.364504 0.318999 0.867636 -0.602515
H7    H     H_    0.340965 0.345300 0.774495 0.408261
O10   O     O_3   0.635496 0.681000 0.132364 -0.602518
H8    H     H_    0.659035 0.654700 0.225504 0.408261
F3    F     F_    0.281980 0.903727 0.171090 -0.600423
F4    F     F_    0.718018 0.096276 0.828914 -0.600430
F5    F     F_    0.083733 0.433377 0.121744 -0.577614
F6    F     F_    0.916269 0.566625 0.878255 -0.577615
F7    F     F_    0.876931 0.601160 0.280084 -0.634713
F8    F     F_    0.123069 0.398841 0.719917 -0.634711
O11   O     O_3   0.507528 0.121711 0.243713 -0.566769
H9    H     H_    0.509495 0.060772 0.166302 0.390422
O12   O     O_3   0.492471 0.878289 0.756287 -0.566769
H10   H     H_    0.490518 0.939229 0.833699 0.390423
F9    F     F_    0.365064 0.327869 0.146826 -0.521680
F10   F     F_    0.634936 0.672131 0.853173 -0.521683

loop_
_geom_bond_atom_site_label_1
_geom_bond_atom_site_label_2
_ccdc_geom_bond_type
C7    O11   S    
C2    O2    A    
O10   H8    S    
C21   H1    S    
C25   C27   A    
C22   H2    S    
C31   F7    S    
C26   C28   A    
Cu2   N2    S    
C28   H4    S    
C5    C32   A    
Cu1   N1    S    
C18   O6    A    
C13   C15   A    
Cu1   Cu2   S    
C16   O10   S    
C32   F8    S    
C8    O12   S    
Cu2   O3    S    
C20   C30   A    
O9    H7    S    
C19   F3    S    
C3    C31   A    
Cu1   O4    S    
C9    C11   A    
C1    O3    A    
C4    C32   A    
C1    C12   S    
C10   C12   A    
C27   H3    S    
C8    C11   A    
C2    C11   S    
C15   O9    S    
C4    C6    A    
C13   N2    A    
C19   C21   A    
C24   C26   A    
C6    C31   A    
C14   C16   A    
C23   C25   A    
C21   C23   A    
C29   F1    S    
C7    C12   A    
Cu1   O5    S    
C14   N1    A    
C22   C24   A    
C27   C29   A    
C4    C17   S    
C15   N1    A    
C20   F4    S    
O11   H9    S    
C19   C29   A    
C16   N2    A    
C9    H5    S    
Cu2   O6    S    
C18   O8    A    
C3    C18   S    
C8    C10   A    
O12   H10   S    
C13   F9    S    
C17   O7    A    
C7    C9    A    
Cu2   O2    S    
C14   F10   S    
C5    C24   S    
C10   H6    S    
C30   F2    S    
C25   F5    S    
C3    C5    A    
Cu1   O8    S    
C6    C23   S    
C26   F6    S    
C1    O1    A    
C2    O4    A    
C17   O5    A    
C20   C22   A    
C28   C30   A    
Cu2   O7    S    
Cu1   O1    S    
