data_mof_unit_52983.cif
_audit_creation_date              2012-12-11T14:45:24-0500
_audit_creation_method            fapswitch 2.2
_symmetry_space_group_name_H-M    P1
_symmetry_Int_Tables_number       1
_space_group_crystal_system       triclinic
_cell_length_a                    25.028116
_cell_length_b                    7.235396
_cell_length_c                    14.834169
_cell_angle_alpha                 89.997403
_cell_angle_beta                  103.72831
_cell_angle_gamma                 89.996973
_cell_volume                      2609.55275979

loop_
_atom_site_label
_atom_site_type_symbol
_atom_type_description
_atom_site_fract_x
_atom_site_fract_y
_atom_site_fract_z
_atom_type_partial_charge
O1    O     O_R   0.319150 0.364170 0.330530 -0.566087
O2    O     O_R   0.680850 0.635830 0.669470 -0.516177
O3    O     O_R   0.180850 0.864170 0.169470 -0.566064
O4    O     O_R   0.819150 0.135830 0.830530 -0.516272
O5    O     O_R   0.210330 0.696850 0.354180 -0.561983
O6    O     O_R   0.789670 0.303150 0.645820 -0.518296
O7    O     O_R   0.289670 0.196850 0.145820 -0.561922
O8    O     O_R   0.710330 0.803150 0.854180 -0.518407
C1    C     C_R   0.197758 0.523477 0.378415 0.756055
C2    C     C_R   0.802972 0.473064 0.622363 0.769535
C3    C     C_R   0.302233 0.023475 0.121578 0.755788
C4    C     C_R   0.697018 0.973063 0.877625 0.769775
O9    O     O_R   0.320550 0.694110 0.341970 -0.525867
O10   O     O_R   0.679450 0.305890 0.658030 -0.569141
O11   O     O_R   0.179450 0.194110 0.158030 -0.525755
O12   O     O_R   0.820550 0.805890 0.841970 -0.569192
O13   O     O_R   0.291860 0.861000 0.157170 -0.509593
O14   O     O_R   0.708140 0.139000 0.842830 -0.561285
O15   O     O_R   0.208140 0.361000 0.342830 -0.509681
O16   O     O_R   0.791860 0.639000 0.657170 -0.561263
C5    C     C_R   0.342185 0.527264 0.360563 0.772986
C6    C     C_R   0.658307 0.476110 0.638000 0.754847
C7    C     C_R   0.157821 0.027269 0.139419 0.772722
C8    C     C_R   0.841700 0.976106 0.861980 0.755053
O17   O     O_3   0.240460 0.529330 0.189380 -0.390515
O18   O     O_3   0.759540 0.470670 0.810620 -0.390398
O19   O     O_3   0.259540 0.029330 0.310620 -0.390650
O20   O     O_3   0.740460 0.970670 0.689380 -0.390288
V1    V     V_3+5 0.251770 0.805510 0.261240 1.473347
V2    V     V_3+5 0.748230 0.194490 0.738760 1.472437
V3    V     V_3+5 0.248230 0.305510 0.238760 1.473585
V4    V     V_3+5 0.751770 0.694490 0.761240 1.472353
C9    C     C_R   0.102154 0.026527 0.076224 -0.258686
C10   C     C_R   0.897079 0.992960 0.925402 -0.260981
C11   C     C_R   0.397856 0.526547 0.423744 -0.258381
C12   C     C_R   0.602928 0.492906 0.574569 -0.261280
C13   C     C_R   0.953904 0.013080 0.082885 0.673904
C14   C     C_R   0.044951 0.023151 0.918777 0.673034
C15   C     C_R   0.546074 0.511229 0.417051 0.674206
C16   C     C_R   0.455082 0.524861 0.581194 0.672773
C17   C     C_R   0.902425 0.993761 0.020976 -0.394943
C18   C     C_R   0.096768 0.023315 0.980614 -0.399957
C19   C     C_R   0.597547 0.492094 0.478990 -0.395171
C20   C     C_R   0.403256 0.524843 0.519374 -0.399899
C21   C     C_R   0.944167 0.024419 0.891414 0.632416
C22   C     C_R   0.054438 0.043944 0.110034 0.619053
C23   C     C_R   0.555869 0.525303 0.608507 0.632694
C24   C     C_R   0.445572 0.542985 0.389867 0.618891
C25   C     C_R   0.996954 0.023152 0.952365 -0.249874
C26   C     C_R   0.001829 0.025920 0.049332 -0.250762
C27   C     C_R   0.503070 0.523806 0.547584 -0.249961
C28   C     C_R   0.498175 0.525189 0.450604 -0.250721
H1    H     H_    0.133271 0.027280 0.954750 0.169047
H2    H     H_    0.865894 0.987071 0.046482 0.169279
H3    H     H_    0.366761 0.529894 0.545252 0.168928
H4    H     H_    0.634055 0.484217 0.453484 0.169425
C29   C     C_R   0.664926 0.973646 0.950560 -0.275012
C30   C     C_R   0.333253 0.007766 0.047750 -0.273065
C31   C     C_R   0.835053 0.473671 0.549413 -0.274800
C32   C     C_R   0.166723 0.507736 0.452231 -0.273312
C33   C     C_R   0.658549 0.003962 0.110210 0.583024
C34   C     C_R   0.339794 0.040206 0.888533 0.582295
C35   C     C_R   0.841441 0.504875 0.389811 0.583130
C36   C     C_R   0.160209 0.539103 0.611523 0.582213
C37   C     C_R   0.690665 0.000525 0.044887 -0.167502
C38   C     C_R   0.307730 0.039979 0.953892 -0.162485
C39   C     C_R   0.809318 0.500958 0.455117 -0.167541
C40   C     C_R   0.192252 0.539526 0.546128 -0.162579
C41   C     C_R   0.608345 0.926855 0.927533 0.542782
C42   C     C_R   0.388696 0.948378 0.070051 0.543497
C43   C     C_R   0.891611 0.426586 0.572383 0.542460
C44   C     C_R   0.111263 0.448551 0.429873 0.543923
C45   C     C_R   0.573764 0.966932 0.989274 -0.117879
C46   C     C_R   0.423798 0.982908 0.008729 -0.118698
C47   C     C_R   0.926211 0.466934 0.510710 -0.117934
C48   C     C_R   0.076181 0.482712 0.491274 -0.118630
C49   C     C_R   0.601055 0.993508 0.082979 -0.081908
C50   C     C_R   0.397000 0.018255 0.915590 -0.083281
C51   C     C_R   0.898933 0.494186 0.417045 -0.081826
C52   C     C_R   0.102998 0.517308 0.584473 -0.083417
C53   C     C_R   0.514058 0.981474 0.963139 0.073332
C54   C     C_R   0.483597 0.984619 0.034988 0.073556
C55   C     C_R   0.985925 0.481139 0.536877 0.073074
C56   C     C_R   0.016386 0.484723 0.465031 0.073712
C57   C     C_R   0.514430 0.008626 0.128956 0.034033
C58   C     C_R   0.483550 0.012775 0.869540 0.030906
C59   C     C_R   0.985563 0.509443 0.371109 0.034217
C60   C     C_R   0.016446 0.511685 0.630540 0.030905
C61   C     C_R   0.571464 0.008535 0.150402 -0.181145
C62   C     C_R   0.426746 0.028820 0.848425 -0.187814
C63   C     C_R   0.928533 0.509568 0.349656 -0.180958
C64   C     C_R   0.073262 0.527400 0.651679 -0.187921
H5    H     H_    0.593268 0.028471 0.221973 0.150715
H6    H     H_    0.405383 0.056348 0.777274 0.152797
H7    H     H_    0.906741 0.529909 0.278113 0.150708
H8    H     H_    0.094641 0.554411 0.722880 0.152797
F1    F     F_    0.059331 0.085324 0.200909 -0.618153
F2    F     F_    0.938342 0.062587 0.799965 -0.611844
F3    F     F_    0.440693 0.583699 0.298920 -0.618551
F4    F     F_    0.561733 0.564093 0.699899 -0.611357
F5    F     F_    0.956906 0.011834 0.175340 -0.675901
F6    F     F_    0.041799 0.015729 0.826376 -0.673805
F7    F     F_    0.543044 0.508733 0.324590 -0.675940
F8    F     F_    0.458243 0.518623 0.673620 -0.673727
F9    F     F_    0.406251 0.845036 0.147733 -0.629627
F10   F     F_    0.589145 0.826837 0.849220 -0.627398
F11   F     F_    0.093669 0.345673 0.352053 -0.629364
F12   F     F_    0.910767 0.326107 0.650562 -0.627725
C65   C     C_R   0.247856 0.019805 0.916419 0.101967
C66   C     C_R   0.224879 0.842937 0.917782 -0.145264
C67   C     C_R   0.175516 0.797838 0.855285 -0.056697
C68   C     C_R   0.148752 0.928754 0.790807 -0.006698
C69   C     C_R   0.169519 0.108365 0.792734 -0.106254
C70   C     C_R   0.218829 0.154375 0.855515 -0.042910
H9    H     H_    0.247164 0.735828 0.962358 0.130744
H10   H     H_    0.158732 0.660276 0.855958 0.135800
H11   H     H_    0.111410 0.892290 0.740475 0.167952
H12   H     H_    0.148256 0.210072 0.743717 0.162788
H13   H     H_    0.236553 0.289941 0.851733 0.168969
C71   C     C_R   0.750478 0.979223 0.082642 0.101950
C72   C     C_R   0.773322 0.801830 0.082885 -0.133778
C73   C     C_R   0.823011 0.758723 0.145022 -0.068144
C74   C     C_R   0.850057 0.891851 0.207966 -0.017817
C75   C     C_R   0.829131 0.071384 0.204940 -0.090871
C76   C     C_R   0.779630 0.115553 0.142243 -0.048990
H14   H     H_    0.750841 0.693235 0.039704 0.130426
H15   H     H_    0.839895 0.621135 0.145135 0.139164
H16   H     H_    0.887857 0.857595 0.257639 0.164167
H17   H     H_    0.850604 0.174816 0.252712 0.168254
H18   H     H_    0.761948 0.251548 0.144942 0.164032
C77   C     C_R   0.252151 0.520004 0.583541 0.102244
C78   C     C_R   0.275334 0.343493 0.582046 -0.144566
C79   C     C_R   0.324763 0.298838 0.644485 -0.056302
C80   C     C_R   0.351385 0.429848 0.709031 -0.006215
C81   C     C_R   0.330405 0.609150 0.707237 -0.106222
C82   C     C_R   0.281030 0.654712 0.644516 -0.043311
H19   H     H_    0.253164 0.236269 0.537419 0.130487
H20   H     H_    0.341703 0.161520 0.643728 0.134913
H21   H     H_    0.388782 0.393714 0.759313 0.167863
H22   H     H_    0.351556 0.710943 0.756307 0.162721
H23   H     H_    0.263144 0.789987 0.648404 0.168629
C83   C     C_R   0.749527 0.479155 0.417328 0.101837
C84   C     C_R   0.726866 0.301452 0.416911 -0.134417
C85   C     C_R   0.677240 0.258007 0.354698 -0.068608
C86   C     C_R   0.650066 0.391120 0.291864 -0.018395
C87   C     C_R   0.670794 0.570940 0.295089 -0.090956
C88   C     C_R   0.720243 0.615432 0.357846 -0.048526
H24   H     H_    0.749450 0.192925 0.460017 0.130582
H25   H     H_    0.660489 0.120212 0.354479 0.140023
H26   H     H_    0.612314 0.356611 0.242132 0.164440
H27   H     H_    0.649212 0.674350 0.247414 0.168312
H28   H     H_    0.737784 0.751684 0.355287 0.164140
F13   F     F_    0.684063 0.010518 0.201941 -0.722874
F14   F     F_    0.314444 0.053074 0.796887 -0.722147
F15   F     F_    0.815940 0.512055 0.298082 -0.722451
F16   F     F_    0.185584 0.551284 0.703177 -0.722550
C89   C     C_R   0.490365 0.062150 0.206866 0.108349
C90   C     C_R   0.451945 0.205387 0.195907 -0.022349
C91   C     C_R   0.418091 0.218931 0.257289 -0.008255
C92   C     C_R   0.428398 0.113063 0.338439 -0.109061
C93   C     C_R   0.472575 0.990560 0.356875 -0.053834
C94   C     C_R   0.502982 0.961828 0.290521 0.026942
H29   H     H_    0.443458 0.290414 0.133999 0.120151
H30   H     H_    0.384187 0.313658 0.240588 0.159906
H31   H     H_    0.402763 0.127088 0.387363 0.111940
H32   H     H_    0.481503 0.911682 0.420273 0.082387
H33   H     H_    0.534459 0.856329 0.302357 0.153236
C95   C     C_R   0.508201 0.057216 0.791501 0.111998
C96   C     C_R   0.549019 0.191995 0.801785 -0.022912
C97   C     C_R   0.582382 0.196340 0.739539 -0.004803
C98   C     C_R   0.569587 0.090272 0.658348 -0.108756
C99   C     C_R   0.523284 0.977174 0.640805 -0.053239
C100  C     C_R   0.493034 0.957498 0.707930 0.025186
H34   H     H_    0.559431 0.276873 0.863682 0.120715
H35   H     H_    0.617773 0.284495 0.755976 0.152947
H36   H     H_    0.594808 0.096755 0.608535 0.115220
H37   H     H_    0.512358 0.898995 0.577328 0.081236
H38   H     H_    0.459335 0.860190 0.696589 0.146438
C101  C     C_R   0.009646 0.563382 0.293286 0.107850
C102  C     C_R   0.048083 0.706579 0.304422 -0.024004
C103  C     C_R   0.081951 0.720426 0.243071 -0.007978
C104  C     C_R   0.071696 0.614663 0.161882 -0.108994
C105  C     C_R   0.027509 0.492232 0.143287 -0.053453
C106  C     C_R   0.997037 0.463416 0.209532 0.026977
H39   H     H_    0.056559 0.791343 0.366414 0.120061
H40   H     H_    0.115840 0.815222 0.259844 0.159889
H41   H     H_    0.097368 0.628715 0.113023 0.112320
H42   H     H_    0.018620 0.413475 0.079847 0.082536
H43   H     H_    0.965522 0.358077 0.197553 0.153884
C107  C     C_R   0.991800 0.555910 0.708624 0.112266
C108  C     C_R   0.951040 0.690897 0.698443 -0.021764
C109  C     C_R   0.917660 0.695187 0.760665 -0.004898
C110  C     C_R   0.930430 0.589039 0.841824 -0.108988
C111  C     C_R   0.976680 0.475662 0.859286 -0.053721
C112  C     C_R   0.006899 0.455848 0.792112 0.025237
H44   H     H_    0.940674 0.776009 0.636620 0.120848
H45   H     H_    0.882293 0.783455 0.744264 0.153117
H46   H     H_    0.905219 0.595675 0.891653 0.114958
H47   H     H_    0.987586 0.397405 0.922745 0.081179
H48   H     H_    0.040519 0.358207 0.803361 0.146141

loop_
_geom_bond_atom_site_label_1
_geom_bond_atom_site_label_2
_ccdc_geom_bond_type
C99   H37   S    
O17   V3    S    
C43   C47   A    
C98   C99   A    
O1    C5    A    
C107  C108  A    
C59   C63   A    
O19   V1    S    
O13   V1    S    
C96   C97   A    
O3    C7    A    
C67   C68   A    
C56   C59   A    
O1    V3    S    
C44   C48   A    
O15   V3    S    
C48   C56   A    
C53   C54   A    
C74   C75   A    
C14   C25   A    
C35   C51   A    
C103  C104  A    
C50   C62   A    
C60   C107  S    
C49   C61   A    
O5    C1    A    
C89   C90   A    
C9    C18   A    
C36   C40   A    
O9    V1    S    
C99   C100  A    
O10   V2    S    
C14   C18   A    
C21   F2    S    
C18   H1    S    
C86   C87   A    
C68   H11   S    
O4    C8    A    
C97   C98   A    
C32   C44   A    
C110  H46   S    
C37   C71   S    
C64   H8    S    
C12   C23   A    
O2    V4    S    
C73   H15   S    
O3    V1    S    
C66   C67   A    
C31   C39   A    
C108  H44   S    
C76   H18   S    
C1    O15   A    
C91   C92   A    
C2    O16   A    
C78   C79   A    
C7    C9    S    
O2    C6    A    
C96   H34   S    
C44   F11   S    
C41   C45   A    
C67   H10   S    
O14   V2    S    
C3    C30   S    
C16   C20   A    
C51   C63   A    
C70   H13   S    
C101  C106  A    
C69   H12   S    
O11   C7    A    
C55   C60   A    
C79   H20   S    
O12   C8    A    
C43   F12   S    
C61   H5    S    
C9    C22   A    
C36   C52   A    
C84   H24   S    
C10   C17   A    
C57   C89   S    
C46   C54   A    
C11   C24   A    
C45   C53   A    
C68   C69   A    
C30   C38   A    
C62   H6    S    
O5    V1    S    
C97   H35   S    
C81   H22   S    
C35   C39   A    
O7    V3    S    
C34   C38   A    
C27   C28   A    
O8    V4    S    
C60   C64   A    
C81   C82   A    
C58   C95   S    
C77   C82   A    
C58   C62   A    
C33   C49   A    
C80   H21   S    
C57   C61   A    
C71   C76   A    
C30   C42   A    
C15   C19   A    
C78   H19   S    
C92   H31   S    
C59   C101  S    
C8    C10   S    
C23   F4    S    
C108  C109  A    
C87   H27   S    
C52   C64   A    
C40   C77   S    
O7    C3    A    
C105  C106  A    
C42   C46   A    
C85   H25   S    
C16   F8    S    
C55   C56   A    
C95   C100  A    
C21   C25   A    
O8    C4    A    
C53   C58   A    
O9    C5    A    
C10   C21   A    
C109  H45   S    
O11   V3    S    
C11   C20   A    
C72   C73   A    
C87   C88   A    
C107  C112  A    
C4    C29   S    
C90   H29   S    
C111  C112  A    
C95   C96   A    
O6    V2    S    
C22   F1    S    
C110  C111  A    
C104  C105  A    
C90   C91   A    
C48   C52   A    
C77   C78   A    
C54   C57   A    
C71   C72   A    
C69   C70   A    
O16   V4    S    
C24   F3    S    
C22   C26   A    
C3    O13   A    
C41   F10   S    
C83   C84   A    
C83   C88   A    
C34   C50   A    
C86   H26   S    
C29   C37   A    
C85   C86   A    
C42   F9    S    
C33   F13   S    
O6    C2    A    
C23   C27   A    
C103  H40   S    
C15   F7    S    
C80   C81   A    
C5    C11   S    
C101  C102  A    
O12   V4    S    
C16   C27   A    
C6    C12   S    
C98   H36   S    
C36   F16   S    
C1    C32   S    
C109  C110  A    
O10   C6    A    
O20   V2    S    
C88   H28   S    
C35   F15   S    
C72   H14   S    
C14   F6    S    
C93   C94   A    
C105  H42   S    
C92   C93   A    
C13   F5    S    
C13   C26   A    
C20   H3    S    
C47   C55   A    
C74   H16   S    
C79   C80   A    
C47   C51   A    
C100  H38   S    
C65   C70   A    
C66   H9    S    
C82   H23   S    
C75   H17   S    
C15   C28   A    
C104  H41   S    
C38   C65   S    
C13   C17   A    
C112  H48   S    
C17   H2    S    
C102  H39   S    
C93   H32   S    
C63   H7    S    
C94   H33   S    
C111  H47   S    
C33   C37   A    
C19   H4    S    
C24   C28   A    
C32   C40   A    
C25   C26   A    
C46   C50   A    
C4    O14   A    
C45   C49   A    
C91   H30   S    
C12   C19   A    
C34   F14   S    
C29   C41   A    
C73   C74   A    
C65   C66   A    
C39   C83   S    
C2    C31   S    
C89   C94   A    
C106  H43   S    
O18   V4    S    
O4    V2    S    
C102  C103  A    
C84   C85   A    
C31   C43   A    
C75   C76   A    
