data_mof_unit_63327.cif
_audit_creation_date              2012-10-26T18:03:58-0400
_audit_creation_method            fapswitch 2.2
_symmetry_space_group_name_H-M    P1
_symmetry_Int_Tables_number       1
_space_group_crystal_system       triclinic
_cell_length_a                    38.88712
_cell_length_b                    32.228887
_cell_length_c                    21.574717
_cell_angle_alpha                 90.006033
_cell_angle_beta                  55.961501
_cell_angle_gamma                 90.014411
_cell_volume                      22406.4688431

loop_
_atom_site_label
_atom_site_type_symbol
_atom_type_description
_atom_site_fract_x
_atom_site_fract_y
_atom_site_fract_z
_atom_type_partial_charge
C1    C     C_R   0.920377 0.499985 0.579489 0.561938
C2    C     C_3   0.999678 0.500046 0.689586 0.006287
C3    C     C_R   0.488464 0.228317 0.958174 -0.104505
C4    C     C_R   0.000018 0.706452 0.999971 0.038869
C5    C     C_R   0.500018 0.206452 0.999972 0.038752
C6    C     C_1   0.500007 0.338483 0.999981 -0.056760
C7    C     C_1   0.000007 0.838483 0.999980 -0.056732
C8    C     C_1   0.000017 0.661662 0.999976 -0.062751
C9    C     C_1   0.500017 0.161661 0.999976 -0.062829
C10   C     C_1   0.000013 0.624179 0.999983 -0.018981
C11   C     C_1   0.500013 0.124178 0.999983 -0.019021
C12   C     C_1   0.499947 0.623978 0.000113 0.002544
C13   C     C_3   0.500323 0.000037 0.310413 0.006983
C14   C     C_1   0.999934 0.123978 0.000121 0.002495
C15   C     C_1   0.500003 0.375983 0.999987 -0.020899
C16   C     C_1   0.000004 0.875983 0.999987 -0.020886
C17   C     C_R   0.530301 0.728161 0.003282 0.246712
C18   C     C_R   0.468118 0.728167 0.001720 0.246916
C19   C     C_R   0.026293 0.228160 0.014125 0.246638
C20   C     C_R   0.971783 0.228170 0.990807 0.247032
C21   C     C_R   0.499582 0.706295 0.001302 0.051708
C22   C     C_R   0.999490 0.206296 0.001291 0.051533
C23   C     C_R   0.999525 0.293554 0.001271 -0.053735
C24   C     C_3   0.499676 0.000045 0.689588 0.006180
C25   C     C_R   0.499602 0.793554 0.001316 -0.054008
C26   C     C_R   0.972377 0.271774 0.989856 -0.106223
C27   C     C_R   0.026528 0.271766 0.013019 -0.106148
C28   C     C_R   0.468658 0.771771 0.000700 -0.106274
C29   C     C_R   0.530433 0.771767 0.002250 -0.106166
C30   C     C_3   0.029984 0.534207 0.255383 -0.205776
C31   C     C_3   0.970065 0.534244 0.744583 -0.205700
C32   C     C_3   0.529945 0.034242 0.255417 -0.205736
C33   C     C_3   0.470108 0.034282 0.744543 -0.205711
C34   C     C_3   0.028986 0.535542 0.184603 0.159792
C35   C     C_3   0.999618 0.500900 0.189568 0.059499
C36   C     C_3   0.971062 0.535575 0.815364 0.159739
C37   C     C_3   0.528947 0.035573 0.184639 0.159831
C38   C     C_3   0.471108 0.035609 0.815322 0.159652
C39   C     C_3   0.015127 0.457555 0.269023 -0.250312
C40   C     C_3   0.984808 0.457578 0.731027 -0.249657
C41   C     C_3   0.515181 0.957572 0.268970 -0.250328
C42   C     C_3   0.484750 0.957596 0.731083 -0.249662
C43   C     C_3   0.553398 0.706602 0.073799 -0.120960
C44   C     C_3   0.401253 0.706423 0.070094 -0.122352
C45   C     C_3   0.039058 0.206623 0.099391 -0.120350
C46   C     C_3   0.000383 0.500904 0.810432 0.058772
C47   C     C_3   0.905664 0.206454 0.042463 -0.122214
C48   C     C_3   0.047957 0.601817 0.133086 -0.133659
C49   C     C_3   0.952183 0.601864 0.866825 -0.133669
C50   C     C_3   0.547842 0.101868 0.133193 -0.133783
C51   C     C_3   0.452316 0.101921 0.866704 -0.133533
C52   C     C_1   0.924169 0.481435 0.389725 0.177314
C53   C     C_1   0.075803 0.481368 0.610297 0.177855
C54   C     C_1   0.424195 0.981341 0.389698 0.177177
C55   C     C_1   0.575777 0.981266 0.610321 0.178087
C56   C     C_3   0.499618 0.000897 0.189568 0.059542
C57   C     C_3   0.500383 0.000900 0.810431 0.058660
C58   C     C_3   0.015298 0.458385 0.197500 -0.295589
C59   C     C_3   0.984642 0.458404 0.802544 -0.295047
C60   C     C_3   0.515347 0.958400 0.197453 -0.295601
C61   C     C_R   0.079623 0.499993 0.420511 0.561722
C62   C     C_3   0.484587 0.958421 0.802597 -0.294938
C63   C     C_3   0.955028 0.508025 0.260573 -0.203964
C64   C     C_3   0.044983 0.507988 0.739419 -0.204098
C65   C     C_3   0.455020 0.007972 0.260582 -0.203961
C66   C     C_3   0.544992 0.007926 0.739408 -0.204101
C67   C     C_R   0.727910 0.499771 0.827578 -0.103828
C68   C     C_R   0.272088 0.500519 0.172433 -0.104894
C69   C     C_R   0.227912 0.996032 0.827269 -0.103729
C70   C     C_R   0.772092 0.003898 0.172722 -0.105475
C71   C     C_R   0.706283 0.499940 0.793016 0.038131
C72   C     C_R   0.420377 0.999984 0.579488 0.561916
C73   C     C_R   0.293717 0.500007 0.206983 0.036703
C74   C     C_R   0.206283 0.999912 0.793012 0.038064
C75   C     C_R   0.793717 0.000018 0.206989 0.036675
C76   C     C_R   0.728404 0.500108 0.714736 -0.103976
C77   C     C_R   0.271599 0.499500 0.285254 -0.106286
C78   C     C_R   0.228401 0.003789 0.715033 -0.103722
C79   C     C_R   0.771595 0.996148 0.284973 -0.106263
C80   C     C_R   0.771866 0.500112 0.671310 -0.099597
C81   C     C_R   0.228137 0.499502 0.328679 -0.100508
C82   C     C_R   0.271863 0.003793 0.671605 -0.099293
C83   C     C_R   0.579623 0.999994 0.420511 0.561713
C84   C     C_R   0.728133 0.996153 0.328398 -0.100766
C85   C     C_R   0.793483 0.499952 0.705893 0.038136
C86   C     C_R   0.206517 0.500017 0.294109 0.037790
C87   C     C_R   0.293483 0.999927 0.705884 0.038370
C88   C     C_R   0.706517 0.000031 0.294111 0.037556
C89   C     C_R   0.001190 0.499970 0.378503 0.552056
C90   C     C_R   0.998807 0.499973 0.621501 0.551938
C91   C     C_R   0.501194 0.999970 0.378499 0.552012
C92   C     C_R   0.498804 0.999973 0.621503 0.551970
C93   C     C_R   0.771362 0.499778 0.784162 -0.107833
C94   C     C_3   0.955700 0.509741 0.331582 -0.117410
C95   C     C_R   0.228636 0.500525 0.215848 -0.108669
C96   C     C_R   0.271365 0.996041 0.783852 -0.107581
C97   C     C_R   0.728640 0.003905 0.216138 -0.109036
C98   C     C_1   0.661490 0.499945 0.837833 -0.053998
C99   C     C_1   0.338511 0.499993 0.162167 -0.057486
C100  C     C_1   0.161490 0.999930 0.837833 -0.053820
C101  C     C_1   0.838510 0.999996 0.162169 -0.057930
C102  C     C_1   0.838268 0.499973 0.661195 -0.050604
C103  C     C_1   0.161732 0.500020 0.338806 -0.051253
C104  C     C_1   0.338267 0.999962 0.661189 -0.050439
C105  C     C_3   0.044312 0.509704 0.668407 -0.117928
C106  C     C_1   0.661733 0.000026 0.338807 -0.051504
C107  C     C_1   0.875749 0.499987 0.623881 -0.011979
C108  C     C_1   0.124251 0.500017 0.376119 -0.012524
C109  C     C_1   0.375749 0.999985 0.623878 -0.011956
C110  C     C_1   0.624251 0.000019 0.376119 -0.012665
C111  C     C_1   0.624000 0.499952 0.875491 -0.017500
C112  C     C_1   0.376000 0.499981 0.124509 -0.021317
C113  C     C_1   0.124000 0.999945 0.875491 -0.017286
C114  C     C_1   0.876000 0.999980 0.124510 -0.021943
C115  C     C_1   0.499839 0.661434 0.000453 0.032929
C116  C     C_3   0.455691 0.009686 0.331592 -0.117526
C117  C     C_1   0.999802 0.161435 0.000459 0.032889
C118  C     C_R   0.000004 0.579548 0.999995 0.583554
C119  C     C_R   0.500004 0.079548 0.999995 0.583548
C120  C     C_R   0.999813 0.500591 0.120502 0.583525
C121  C     C_R   0.000187 0.500592 0.879498 0.583919
C122  C     C_R   0.499813 0.000588 0.120502 0.583523
C123  C     C_R   0.500188 0.000587 0.879497 0.583970
C124  C     C_1   0.999804 0.338307 0.000588 -0.052496
C125  C     C_1   0.499833 0.838307 0.000623 -0.052598
C126  C     C_R   0.999993 0.420366 0.000007 0.548887
C127  C     C_3   0.544323 0.009643 0.668395 -0.117841
C128  C     C_R   0.499993 0.920366 0.000008 0.548966
C129  C     C_1   0.999946 0.375768 0.000217 -0.023399
C130  C     C_1   0.499952 0.875768 0.000239 -0.023404
C131  C     C_R   0.500000 0.420649 0.999997 0.550110
C132  C     C_R   0.000000 0.920649 0.999997 0.550067
C133  C     C_R   0.579354 0.499966 0.920500 0.553212
C134  C     C_R   0.420646 0.499973 0.079500 0.550486
C135  C     C_R   0.079354 0.999965 0.920500 0.553227
C136  C     C_R   0.920646 0.999971 0.079500 0.549890
C137  C     C_R   0.500007 0.579383 0.999999 0.548668
C138  C     C_3   0.000320 0.500038 0.310416 0.006902
C139  C     C_R   0.000007 0.079383 0.999998 0.548091
C140  C     C_R   0.488461 0.271777 0.958177 -0.104382
C141  C     C_R   0.511565 0.271793 0.041772 -0.104491
C142  C     C_R   0.987380 0.771777 0.959816 -0.104359
C143  C     C_R   0.012649 0.771793 0.040130 -0.104433
C144  C     C_R   0.500011 0.293671 0.999976 0.037424
C145  C     C_R   0.000012 0.793671 0.999975 0.037440
C146  C     C_R   0.012651 0.728333 0.040130 -0.104389
C147  C     C_R   0.987383 0.728317 0.959813 -0.104442
C148  C     C_R   0.511569 0.228333 0.041770 -0.104532
Cu1   Cu    Cu3+1 0.000000 0.540990 0.500000 0.927646
Cu2   Cu    Cu3+1 0.500030 0.500020 0.062450 0.948935
Cu3   Cu    Cu3+1 0.999970 0.000020 0.937550 0.963816
Cu4   Cu    Cu3+1 0.000030 0.000020 0.062450 0.950251
Cu5   Cu    Cu3+1 0.500000 0.040990 0.500000 0.927492
Cu6   Cu    Cu3+1 0.000000 0.458960 0.500000 0.963280
Cu7   Cu    Cu3+1 0.500000 0.958960 0.500000 0.963318
Cu8   Cu    Cu3+1 0.958960 0.499950 0.041020 0.928737
Cu9   Cu    Cu3+1 0.041040 0.499950 0.958980 0.932469
Cu10  Cu    Cu3+1 0.458960 0.999950 0.041020 0.929281
Cu11  Cu    Cu3+1 0.541040 0.999950 0.958980 0.931853
Cu12  Cu    Cu3+1 0.499970 0.500020 0.937550 0.964276
H1    H     H_    0.062239 0.527972 0.238808 0.070100
H2    H     H_    0.005434 0.432071 0.694145 0.163234
H3    H     H_    0.494550 0.932062 0.305851 0.160913
H4    H     H_    0.505340 0.932062 0.694234 0.163273
H5    H     H_    0.995142 0.433051 0.199793 0.123547
H6    H     H_    0.004764 0.433052 0.800273 0.127177
H7    H     H_    0.495218 0.933043 0.199722 0.123637
H8    H     H_    0.504677 0.933042 0.800355 0.127358
H9    H     H_    0.787690 0.499651 0.811589 0.106263
H10   H     H_    0.212307 0.500922 0.188430 0.106359
H11   H     H_    0.287694 0.993029 0.811042 0.106688
H12   H     H_    0.937800 0.528043 0.761163 0.070318
H13   H     H_    0.712314 0.006919 0.188941 0.105970
H14   H     H_    0.711199 0.499638 0.888014 0.112544
H15   H     H_    0.288798 0.500911 0.112004 0.113245
H16   H     H_    0.211203 0.993013 0.887471 0.112864
H17   H     H_    0.788804 0.006908 0.112516 0.112629
H18   H     H_    0.712074 0.500239 0.687317 0.115957
H19   H     H_    0.287931 0.499101 0.312665 0.114383
H20   H     H_    0.212069 0.006808 0.687851 0.116070
H21   H     H_    0.787924 0.993128 0.312161 0.114635
H22   H     H_    0.788589 0.500241 0.610869 0.124160
H23   H     H_    0.562209 0.028047 0.238836 0.069924
H24   H     H_    0.211416 0.499102 0.389113 0.124109
H25   H     H_    0.288583 0.006810 0.611399 0.122949
H26   H     H_    0.711408 0.993135 0.388608 0.125192
H27   H     H_    0.977545 0.711784 0.928546 0.103792
H28   H     H_    0.022490 0.711814 0.071398 0.103773
H29   H     H_    0.479468 0.211783 0.925631 0.104091
H30   H     H_    0.520566 0.211812 0.074314 0.103955
H31   H     H_    0.479464 0.288285 0.925631 0.112588
H32   H     H_    0.520559 0.288314 0.074320 0.112249
H33   H     H_    0.977539 0.788284 0.928550 0.112510
H34   H     H_    0.437835 0.028125 0.761131 0.070591
H35   H     H_    0.022487 0.788313 0.071400 0.112238
H36   H     H_    0.047933 0.288525 0.021001 0.132538
H37   H     H_    0.951760 0.288536 0.979878 0.132220
H38   H     H_    0.554724 0.788527 0.001839 0.132942
H39   H     H_    0.445012 0.788533 0.999094 0.132662
H40   H     H_    0.021055 0.565077 0.283301 0.166930
H41   H     H_    0.979040 0.565106 0.716632 0.167034
H42   H     H_    0.520979 0.065102 0.283370 0.166871
H43   H     H_    0.479126 0.065133 0.716553 0.167077
H44   H     H_    0.060980 0.528514 0.135041 0.109574
H45   H     H_    0.934252 0.482747 0.264737 0.127739
H46   H     H_    0.939059 0.528574 0.864932 0.109472
H47   H     H_    0.560948 0.028580 0.135069 0.109452
H48   H     H_    0.439096 0.028649 0.864900 0.109594
H49   H     H_    0.046938 0.450487 0.254049 0.121521
H50   H     H_    0.952987 0.450543 0.746011 0.122023
H51   H     H_    0.547002 0.950544 0.253985 0.121372
H52   H     H_    0.452919 0.950605 0.746078 0.122109
H53   H     H_    0.047324 0.452366 0.148062 0.122162
H54   H     H_    0.952608 0.452414 0.851990 0.122283
H55   H     H_    0.547379 0.952416 0.148006 0.121960
H56   H     H_    0.065723 0.482692 0.735282 0.129107
H57   H     H_    0.452546 0.952471 0.852051 0.122641
H58   H     H_    0.947064 0.541675 0.355158 0.124637
H59   H     H_    0.052994 0.541630 0.644795 0.124075
H60   H     H_    0.447017 0.041610 0.355210 0.124472
H61   H     H_    0.553047 0.041558 0.644740 0.124112
H62   H     H_    0.942077 0.537620 0.255407 0.162312
H63   H     H_    0.057974 0.537571 0.744552 0.161981
H64   H     H_    0.442036 0.037553 0.255452 0.162298
H65   H     H_    0.558022 0.037493 0.744501 0.162029
H66   H     H_    0.522837 0.691929 0.114760 0.111326
H67   H     H_    0.434273 0.982671 0.264716 0.127771
H68   H     H_    0.554660 0.738461 0.092316 0.109416
H69   H     H_    0.577593 0.687869 0.072919 0.150164
H70   H     H_    0.388379 0.738241 0.088645 0.110884
H71   H     H_    0.405788 0.691576 0.111650 0.109373
H72   H     H_    0.377957 0.687750 0.067998 0.149711
H73   H     H_    0.007798 0.191969 0.133655 0.111310
H74   H     H_    0.038206 0.238486 0.120071 0.109389
H75   H     H_    0.060418 0.187886 0.106851 0.150553
H76   H     H_    0.892373 0.238277 0.058265 0.110431
H77   H     H_    0.905193 0.191623 0.089569 0.109097
H78   H     H_    0.565700 0.982603 0.735304 0.129015
H79   H     H_    0.885397 0.187780 0.032096 0.149500
H80   H     H_    0.066229 0.590955 0.074035 0.130863
H81   H     H_    0.068285 0.605082 0.153991 0.104031
H82   H     H_    0.035430 0.632959 0.134356 0.143120
H83   H     H_    0.933898 0.591014 0.925886 0.130954
H84   H     H_    0.931857 0.605150 0.845921 0.104477
H85   H     H_    0.964753 0.632993 0.865528 0.143081
H86   H     H_    0.566126 0.091025 0.074129 0.130836
H87   H     H_    0.568166 0.105158 0.154101 0.103792
H88   H     H_    0.535279 0.132995 0.134496 0.143016
H89   H     H_    0.994463 0.432070 0.305932 0.160865
H90   H     H_    0.434020 0.091093 0.925778 0.131124
H91   H     H_    0.431993 0.105236 0.845800 0.104769
H92   H     H_    0.464927 0.133033 0.865367 0.143027
N1    N     N_1   0.899498 0.459312 0.435299 -0.298423
N2    N     N_1   0.100441 0.459220 0.564748 -0.295264
N3    N     N_1   0.399552 0.959187 0.435243 -0.297330
N4    N     N_1   0.600386 0.959086 0.564801 -0.296101
O1    O     O_R   0.940150 0.534620 0.559830 -0.506971
O2    O     O_R   0.440170 0.499950 0.007050 -0.501442
O3    O     O_R   0.059830 0.999950 0.992950 -0.502151
O4    O     O_R   0.940170 0.999950 0.007050 -0.501888
O5    O     O_R   0.500010 0.559860 0.947320 -0.494498
O6    O     O_R   0.499990 0.559860 0.052680 -0.507188
O7    O     O_R   0.000010 0.059860 0.947320 -0.494802
O8    O     O_R   0.999990 0.059860 0.052680 -0.505955
O9    O     O_R   0.940110 0.465340 0.559870 -0.494367
O10   O     O_R   0.059890 0.465340 0.440130 -0.493888
O11   O     O_R   0.440110 0.965340 0.559870 -0.494271
O12   O     O_R   0.059850 0.534620 0.440170 -0.507771
O13   O     O_R   0.559890 0.965340 0.440130 -0.493963
O14   O     O_R   0.999990 0.534620 0.408860 -0.521712
O15   O     O_R   0.000010 0.534620 0.591140 -0.521800
O16   O     O_R   0.499990 0.034620 0.408860 -0.521801
O17   O     O_R   0.500010 0.034620 0.591140 -0.521747
O18   O     O_R   0.999950 0.465340 0.408890 -0.505691
O19   O     O_R   0.000050 0.465340 0.591110 -0.504972
O20   O     O_R   0.499950 0.965340 0.408890 -0.505660
O21   O     O_R   0.500050 0.965340 0.591110 -0.504940
O22   O     O_R   0.965330 0.559800 0.034660 -0.501426
O23   O     O_R   0.440150 0.034620 0.559830 -0.507004
O24   O     O_R   0.034670 0.559800 0.965340 -0.501656
O25   O     O_R   0.465330 0.059800 0.034660 -0.501347
O26   O     O_R   0.534670 0.059800 0.965340 -0.501683
O27   O     O_R   0.965350 0.499950 0.125800 -0.515207
O28   O     O_R   0.034650 0.499950 0.874200 -0.514480
O29   O     O_R   0.465350 0.999950 0.125800 -0.515153
O30   O     O_R   0.534650 0.999950 0.874200 -0.514470
O31   O     O_R   0.034620 0.500000 0.056540 -0.522897
O32   O     O_R   0.965380 0.500000 0.943460 -0.523019
O33   O     O_R   0.534620 0.000000 0.056540 -0.523017
O34   O     O_R   0.559850 0.034620 0.440170 -0.507789
O35   O     O_R   0.465380 1.000000 0.943460 -0.522918
O36   O     O_R   0.965350 0.440100 0.034640 -0.507889
O37   O     O_R   0.034650 0.440100 0.965360 -0.504820
O38   O     O_R   0.465350 0.940100 0.034640 -0.507688
O39   O     O_R   0.534650 0.940100 0.965360 -0.505221
O40   O     O_R   0.499940 0.440170 0.947210 -0.503127
O41   O     O_R   0.500060 0.440170 0.052790 -0.502856
O42   O     O_R   0.999940 0.940170 0.947210 -0.502999
O43   O     O_R   0.000060 0.940170 0.052790 -0.502944
O44   O     O_3   0.561774 0.706856 0.001221 -0.555421
O45   O     O_R   0.559820 0.500010 0.887440 -0.501077
O46   O     O_3   0.438412 0.706879 0.998135 -0.555041
O47   O     O_3   0.054180 0.206854 0.022825 -0.555283
O48   O     O_3   0.946037 0.206883 0.976580 -0.554616
O49   O     O_3   0.014429 0.574797 0.178629 -0.575111
O50   O     O_3   0.985673 0.574815 0.821302 -0.575300
O51   O     O_3   0.514345 0.074811 0.178706 -0.575128
O52   O     O_3   0.485771 0.074829 0.821211 -0.575411
O53   O     O_R   0.440180 0.500010 0.112560 -0.503941
O54   O     O_R   0.059820 0.000010 0.887440 -0.501134
O55   O     O_R   0.940180 0.000010 0.112560 -0.503988
O56   O     O_R   0.559830 0.499950 0.992950 -0.502658

loop_
_geom_bond_atom_site_label_1
_geom_bond_atom_site_label_2
_ccdc_geom_bond_type
C120  O31   A    
C30   C138  S    
C132  O43   A    
C143  C146  A    
C18   C21   A    
C50   O51   S    
C128  O38   A    
Cu3   O42   S    
C60   H55   S    
Cu11  O39   S    
Cu12  O40   S    
C31   H12   S    
C82   C87   A    
C17   C29   A    
C39   H49   S    
C34   C35   S    
C2    C90   S    
C26   H37   S    
C37   C56   S    
C90   O15   A    
C54   C116  S    
C136  O4    A    
C24   C127  S    
C121  O28   A    
Cu12  O45   S    
C81   C86   A    
C12   C115  T    
C137  O6    A    
C17   O44   S    
C5    C148  A    
C13   C91   S    
C63   H62   S    
C50   H88   S    
C25   C29   A    
C68   C95   A    
C97   H13   S    
C82   H25   S    
C60   H7    S    
C45   H75   S    
C45   H74   S    
C49   O50   S    
C141  C144  A    
C118  O22   A    
C74   C100  S    
C126  C129  S    
C33   H43   S    
C17   C21   A    
C64   H63   S    
C52   N1    T    
C40   H2    S    
C57   C123  S    
C38   C57   S    
C78   C82   A    
Cu5   O34   S    
C134  O2    A    
C69   C74   A    
C36   H46   S    
Cu1   O15   S    
C33   H34   S    
Cu10  Cu11  S    
C53   N2    T    
Cu2   O56   S    
C44   H71   S    
C84   C88   A    
C112  C134  S    
Cu7   O20   S    
Cu8   O27   S    
C33   C38   S    
C3    H29   S    
C68   C73   A    
C66   H65   S    
C86   C95   A    
C2    C40   S    
C8    C10   T    
C89   C138  S    
C113  C135  S    
C75   C101  S    
C114  C136  S    
C31   C36   S    
Cu5   O17   S    
C27   H36   S    
C50   H86   S    
C75   C79   A    
C65   H64   S    
C62   H8    S    
C139  O7    A    
C13   C32   S    
C57   C66   S    
C119  O25   A    
Cu8   O22   S    
C63   C94   S    
C20   O48   S    
C132  O42   A    
C35   C58   S    
C91   O20   A    
Cu1   O14   S    
C79   C84   A    
C42   H4    S    
C67   H14   S    
Cu11  O26   S    
C65   H67   S    
C58   H5    S    
Cu4   O43   S    
C85   C93   A    
C120  O27   A    
C34   H44   S    
C105  H59   S    
C36   C46   S    
C80   H22   S    
C116  H60   S    
C42   C62   S    
C133  O56   A    
C39   C138  S    
C66   H78   S    
C35   C120  S    
C141  H32   S    
C24   C92   S    
C49   H83   S    
C148  H30   S    
C28   H39   S    
C30   C34   S    
C89   O14   A    
C62   H57   S    
C18   C28   A    
C48   H82   S    
C91   O16   A    
C39   C58   S    
C121  O32   A    
C56   C122  S    
C5    C9    S    
C123  O30   A    
C14   C117  T    
C83   C110  S    
C102  C107  T    
C32   C37   S    
C51   H92   S    
Cu1   O1    S    
C1    C107  S    
C126  O36   A    
C55   C127  S    
C74   C78   A    
C37   O51   S    
C47   H79   S    
C38   O52   S    
C6    C144  S    
C42   H52   S    
C43   H68   S    
C72   C109  S    
C73   C77   A    
C133  O45   A    
C142  C147  A    
C76   C80   A    
C41   C60   S    
C35   C63   S    
C70   C97   A    
C70   H17   S    
C135  O3    A    
C30   H1    S    
C88   C97   A    
Cu7   O21   S    
Cu4   O3    S    
C44   O46   S    
C131  O40   A    
C45   O47   S    
C32   H42   S    
C95   H10   S    
C61   O10   A    
C51   O52   S    
C53   C105  S    
C15   C131  S    
C29   H38   S    
C70   C75   A    
C67   C93   A    
C140  H31   S    
C81   H24   S    
C92   O17   A    
C49   H85   S    
C85   C102  S    
C7    C145  S    
C137  O5    A    
Cu10  O29   S    
C43   O44   S    
C22   C117  S    
C24   C42   S    
C32   H23   S    
C84   H26   S    
C47   O48   S    
C21   C115  S    
Cu6   O9    S    
C13   C41   S    
C25   C28   A    
C93   H9    S    
C77   H19   S    
Cu2   Cu12  S    
C78   H20   S    
C146  H28   S    
C122  O29   A    
C45   H73   S    
C76   H18   S    
C71   C76   A    
C40   H50   S    
C36   O50   S    
Cu8   O36   S    
C143  C145  A    
C23   C26   A    
Cu9   O37   S    
Cu6   O18   S    
C51   H90   S    
C25   C125  S    
C47   H77   S    
C96   H11   S    
Cu3   Cu4   S    
Cu5   Cu7   S    
C123  O35   A    
C43   H66   S    
Cu3   O7    S    
Cu4   O8    S    
C101  C114  T    
C37   H47   S    
C142  C145  A    
Cu10  O35   S    
C48   H80   S    
C68   H15   S    
C1    O1    A    
Cu2   O41   S    
Cu11  O30   S    
C64   C105  S    
C147  H27   S    
C4    C147  A    
C56   C60   S    
Cu1   Cu6   S    
C61   O12   A    
C80   C85   A    
C77   C81   A    
C143  H35   S    
Cu12  O2    S    
Cu2   O6    S    
Cu9   O28   S    
C136  O55   A    
C7    C16   T    
C20   C22   A    
C41   H3    S    
C89   O18   A    
C94   C138  S    
C19   O47   S    
Cu5   O16   S    
C50   H87   S    
C47   H76   S    
C48   O49   S    
C140  C144  A    
C3    C5    A    
C128  C130  S    
C43   H69   S    
C24   C33   S    
Cu5   O23   S    
C142  H33   S    
C124  C129  T    
C67   C71   A    
C16   C132  S    
C13   C116  S    
C134  O53   A    
C87   C104  S    
C58   H53   S    
C79   H21   S    
C63   H45   S    
C131  O41   A    
Cu1   O12   S    
C128  O39   A    
C46   C59   S    
C54   N3    T    
C4    C8    S    
C69   C96   A    
C11   C119  S    
C59   H54   S    
C57   C62   S    
Cu9   O31   S    
C66   C127  S    
C38   H48   S    
Cu8   Cu9   S    
C104  C109  T    
C56   C65   S    
C94   H58   S    
C55   N4    T    
C92   O21   A    
C83   O13   A    
C61   C108  S    
C44   H70   S    
C34   O49   S    
C135  O54   A    
C6    C15   T    
C125  C130  T    
Cu10  O25   S    
C46   C121  S    
C52   C94   S    
C90   O19   A    
C69   H16   S    
C23   C27   A    
C19   C27   A    
C141  C148  A    
C126  O37   A    
C40   C59   S    
C139  O8    A    
Cu4   O55   S    
C122  O33   A    
C86   C103  S    
Cu7   O13   S    
C83   O34   A    
Cu3   O4    S    
C119  O26   A    
C71   C98   S    
C19   C22   A    
Cu10  O38   S    
C111  C133  S    
C30   H40   S    
C72   O11   A    
C46   C64   S    
C2    C31   S    
Cu11  O33   S    
C10   C118  S    
C88   C106  S    
C39   H89   S    
C4    C146  A    
C87   C96   A    
C9    C11   T    
C103  C108  T    
C59   H6    S    
Cu2   O53   S    
Cu12  O5    S    
C65   C116  S    
Cu8   O32   S    
C49   H84   S    
C51   H91   S    
C106  C110  T    
C73   C99   S    
C98   C111  T    
C64   H56   S    
C100  C113  T    
C48   H81   S    
Cu6   O10   S    
C23   C124  S    
C2    C105  S    
C72   O23   A    
C44   H72   S    
Cu9   O24   S    
C118  O24   A    
C20   C26   A    
C99   C112  T    
C18   O46   S    
Cu6   O19   S    
C31   H41   S    
C127  H61   S    
C41   H51   S    
C1    O9    A    
C14   C139  S    
Cu3   O54   S    
C12   C137  S    
C3    C140  A    
Cu7   O11   S    
