data_mof_unit_11383.cif
_audit_creation_date              2013-03-05T15:49:06-0500
_audit_creation_method            fapswitch 2.2
_symmetry_space_group_name_H-M    P1
_symmetry_Int_Tables_number       1
_space_group_crystal_system       triclinic
_cell_length_a                    22.287359
_cell_length_b                    7.233575
_cell_length_c                    19.246526
_cell_angle_alpha                 89.996542
_cell_angle_beta                  99.133422
_cell_angle_gamma                 89.99647
_cell_volume                      3063.53247436

loop_
_atom_site_label
_atom_site_type_symbol
_atom_site_description
_atom_site_fract_x
_atom_site_fract_y
_atom_site_fract_z
_atom_type_partial_charge
O1    O     O_R   0.448470 0.506130 0.415700 -0.577606
O2    O     O_R   0.551530 0.006130 0.584300 -0.577600
O3    O     O_R   0.436320 0.174490 0.555800 -0.577095
O4    O     O_R   0.563680 0.674490 0.444200 -0.577095
C1    C     C_R   0.421263 0.344283 0.575240 0.942801
C2    C     C_R   0.578737 0.844282 0.424760 0.942798
O5    O     O_R   0.441350 0.176340 0.414480 -0.583253
O6    O     O_R   0.558650 0.676340 0.585520 -0.583274
O7    O     O_R   0.556600 0.007100 0.441970 -0.583298
O8    O     O_R   0.443400 0.507100 0.558030 -0.583268
C3    C     C_R   0.427278 0.344715 0.388992 0.933056
C4    C     C_R   0.572724 0.844695 0.611008 0.933034
O9    O     O_3   0.537810 0.339550 0.509190 -0.282934
O10   O     O_3   0.462190 0.839550 0.490810 -0.282908
V1    V     V_3+5 0.492990 0.064280 0.498300 1.193076
V2    V     V_3+5 0.507010 0.564280 0.501700 1.193081
C5    C     C_R   0.866666 0.979570 0.695396 -0.173871
C6    C     C_R   0.133271 0.478422 0.304644 -0.173821
H1    H     H_    0.954026 0.007058 0.759568 0.123226
H2    H     H_    0.045907 0.505884 0.240472 0.123229
H3    H     H_    0.784167 0.975756 0.580142 0.134811
H4    H     H_    0.215742 0.474059 0.419920 0.134792
H5    H     H_    0.884892 0.007620 0.647498 0.122077
H6    H     H_    0.115014 0.505918 0.352563 0.122074
C7    C     C_R   0.884539 0.942315 0.821905 -0.097613
C8    C     C_R   0.115456 0.442195 0.178094 -0.097547
C9    C     C_R   0.589575 0.816283 0.739935 -0.248565
C10   C     C_R   0.410470 0.317079 0.260042 -0.248713
C11   C     C_R   0.625883 0.813961 0.806314 0.411229
C12   C     C_R   0.374181 0.315107 0.193651 0.411266
C13   C     C_R   0.688635 0.845295 0.811665 -0.293788
C14   C     C_R   0.311412 0.346134 0.188307 -0.293785
C15   C     C_R   0.716218 0.879599 0.751582 0.046339
C16   C     C_R   0.283793 0.379779 0.248412 0.046312
C17   C     C_R   0.678018 0.883326 0.684309 0.109885
C18   C     C_R   0.321971 0.383123 0.315701 0.109876
C19   C     C_R   0.780477 0.910335 0.756106 0.119563
C20   C     C_R   0.219519 0.410234 0.243895 0.119568
C21   C     C_R   0.804336 0.946073 0.693161 0.175451
C22   C     C_R   0.195621 0.445274 0.306867 0.175426
C23   C     C_R   0.765995 0.948967 0.628181 -0.231412
C24   C     C_R   0.233943 0.447801 0.371862 -0.231398
C25   C     C_R   0.703998 0.917702 0.623696 -0.185445
C26   C     C_R   0.295956 0.416837 0.376337 -0.185320
C27   C     C_R   0.822191 0.907697 0.820548 -0.227125
C28   C     C_R   0.177826 0.407958 0.179437 -0.227094
C29   C     C_R   0.906220 0.978886 0.759153 -0.155850
C30   C     C_R   0.093733 0.478051 0.240874 -0.155936
C31   C     C_R   0.614527 0.850940 0.679053 -0.218036
C32   C     C_R   0.385480 0.351062 0.320946 -0.218005
H7    H     H_    0.807925 0.881416 0.870546 0.116247
H8    H     H_    0.192119 0.382193 0.129419 0.116193
H9    H     H_    0.541189 0.790720 0.735315 0.177075
H10   H     H_    0.458872 0.291795 0.264653 0.177098
H11   H     H_    0.714872 0.842222 0.863594 0.173507
H12   H     H_    0.285190 0.343359 0.136368 0.173510
H13   H     H_    0.676445 0.921138 0.572036 0.105345
H14   H     H_    0.323494 0.419971 0.428009 0.105182
C33   C     C_3   0.775579 0.819086 0.310545 -0.293191
C34   C     C_3   0.224420 0.319123 0.689452 -0.293200
C35   C     C_3   0.795047 0.004278 0.279571 -0.121623
C36   C     C_3   0.204952 0.504309 0.720429 -0.121610
H15   H     H_    0.832693 0.094485 0.304480 0.164869
H16   H     H_    0.167306 0.594540 0.695522 0.164880
H17   H     H_    0.797176 0.755945 0.360923 0.165578
H18   H     H_    0.202824 0.256010 0.639073 0.165572
H19   H     H_    0.708881 0.200945 0.272037 0.186393
H20   H     H_    0.291119 0.700941 0.727966 0.186402
C37   C     C_1   0.875000 0.940727 0.120692 -0.242374
C38   C     C_1   0.124999 0.440724 0.879308 -0.242382
C39   C     C_1   0.624545 0.853297 0.378970 -0.249503
C40   C     C_1   0.375454 0.353301 0.621030 -0.249478
C41   C     C_3   0.771601 0.728896 0.236833 0.276953
C42   C     C_3   0.228398 0.228901 0.763163 0.276939
C43   C     C_3   0.790565 0.912725 0.206401 0.052123
C44   C     C_3   0.209434 0.412723 0.793598 0.052090
C45   C     C_3   0.704931 0.788811 0.219405 0.294705
C46   C     C_3   0.295068 0.288783 0.780592 0.294764
C47   C     C_3   0.708184 0.877991 0.292096 -0.008429
C48   C     C_3   0.291815 0.377995 0.707902 -0.008447
C49   C     C_3   0.723256 0.971678 0.187572 -0.200058
C50   C     C_3   0.276743 0.471643 0.812428 -0.200025
C51   C     C_3   0.727189 0.062775 0.261515 -0.094266
C52   C     C_3   0.272810 0.562774 0.738486 -0.094267
C53   C     C_1   0.836820 0.929813 0.159144 0.146289
C54   C     C_1   0.163179 0.429808 0.840855 0.146297
C55   C     C_1   0.662394 0.863172 0.340062 0.123720
C56   C     C_1   0.337605 0.363178 0.659937 0.123750
H21   H     H_    0.701363 0.032867 0.136949 0.206571
H22   H     H_    0.298636 0.532803 0.863052 0.206612
O11   O     O_R   0.056650 0.288730 0.942060 -0.577210
O12   O     O_R   0.943350 0.788730 0.057940 -0.577210
O13   O     O_R   0.058660 0.616870 0.085540 -0.584707
O14   O     O_R   0.941340 0.116870 0.914460 -0.584717
C57   C     C_R   0.072824 0.448738 0.111007 0.909498
C58   C     C_R   0.927175 0.948758 0.888992 0.909511
O15   O     O_R   0.063700 0.618520 0.944220 -0.575512
O16   O     O_R   0.936300 0.118520 0.055780 -0.575510
O17   O     O_R   0.948460 0.787610 0.915680 -0.583196
O18   O     O_R   0.051540 0.287610 0.084320 -0.583188
C59   C     C_R   0.078921 0.450081 0.924751 0.944382
C60   C     C_R   0.921079 0.950082 0.075249 0.944407
O19   O     O_3   0.962230 0.453430 0.990860 -0.277651
O20   O     O_3   0.037770 0.953430 0.009140 -0.277645
V3    V     V_3+5 0.007010 0.728750 0.001700 1.200410
V4    V     V_3+5 0.992990 0.228750 0.998300 1.200422
N1    N     N_R   0.656522 0.669235 0.185006 0.262600
O21   O     O_R   0.658911 0.604902 0.122421 -0.283818
O22   O     O_R   0.610940 0.625779 0.216395 -0.354872
N2    N     N_R   0.343477 0.169176 0.814989 0.262615
O23   O     O_R   0.341086 0.104810 0.877572 -0.283948
O24   O     O_R   0.389061 0.125728 0.783602 -0.354887
Br1   Br    Br    0.803635 0.488180 0.218261 -0.563745
Br2   Br    Br    0.196363 0.988190 0.781731 -0.563758
N3    N     N_R   0.599005 0.779005 0.868430 0.257019
O25   O     O_R   0.540818 0.750618 0.863641 -0.303454
O26   O     O_R   0.632356 0.775458 0.930408 -0.325294
N4    N     N_R   0.401096 0.280851 0.131511 0.257039
O27   O     O_R   0.459300 0.252768 0.136293 -0.303312
O28   O     O_R   0.367764 0.277651 0.069519 -0.325391

loop_
_geom_bond_atom_site_label_1
_geom_bond_atom_site_label_2
_geom_bond_distance
_ccdc_geom_bond_type
C12   C14   1.404397 A    
H19   C51   1.110250 S    
C7    C27   1.408147 A    
C9    C11   1.399658 A    
C23   C25   1.389235 A    
C49   H21   1.110077 S    
O1    C3    1.331795 A    
C48   C52   1.546484 S    
O2    C4    1.331831 A    
C2    O7    1.338693 A    
C47   C55   1.484695 S    
C4    C31   1.482517 S    
C38   C59   1.452375 S    
C18   C32   1.421988 A    
C21   C23   1.398375 A    
C37   C60   1.452377 S    
C35   C43   1.545073 S    
O5    C3    1.331711 A    
C5    H5    1.083910 S    
C42   C44   1.538972 S    
C6    H6    1.083910 S    
C1    C40   1.452218 S    
C46   C48   1.531881 S    
C27   H7    1.077184 S    
N3    O25   1.301740 A    
C42   Br2   1.936580 S    
C58   O17   1.330480 A    
C28   H8    1.077187 S    
C41   Br1   1.936583 S    
C34   C36   1.555719 S    
C5    C21   1.404089 A    
C35   H15   1.109943 S    
C6    C22   1.404093 A    
N2    O23   1.300293 A    
C36   H16   1.109941 S    
C40   C56   1.215722 T    
N4    O27   1.301741 A    
C10   C32   1.397115 A    
C43   C53   1.484242 S    
O14   V4    1.998611 S    
C26   H14   1.082809 S    
N3    O26   1.301759 A    
C17   C31   1.421994 A    
N1    O21   1.300287 A    
C13   C15   1.415067 A    
C17   C25   1.404437 A    
C7    C29   1.395501 A    
O12   C60   1.331188 A    
O13   V3    1.998478 S    
O5    V1    1.998628 S    
C11   N3    1.442010 S    
C34   H18   1.110027 S    
O6    V2    1.998763 S    
C48   C56   1.484694 S    
N1    O22   1.300264 A    
O11   V4    1.964815 S    
C36   C44   1.545074 S    
C24   C26   1.389236 A    
O11   C59   1.331196 A    
O20   V3    1.760937 S    
C49   C51   1.558130 S    
N4    O28   1.301760 A    
C45   C47   1.531879 S    
C2    C39   1.452219 S    
O17   V3    1.984705 S    
C33   C35   1.555720 S    
H20   C52   1.110251 S    
C45   N1    1.457375 S    
O4    C2    1.341993 A    
C35   C51   1.555681 S    
C44   C50   1.546252 S    
C10   H10   1.083808 S    
C57   O18   1.330447 A    
C43   C49   1.546252 S    
C12   N4    1.442009 S    
O16   C60   1.334302 A    
C15   C19   1.438238 A    
C14   C16   1.415071 A    
O4    V2    1.974657 S    
C37   C53   1.215709 T    
C46   C50   1.539909 S    
C45   C49   1.539914 S    
O6    C4    1.331677 A    
C25   H13   1.082807 S    
H1    C29   1.083577 S    
C46   N2    1.457376 S    
O1    V2    1.983290 S    
C50   H22   1.110076 S    
O14   C58   1.330303 A    
O2    V1    1.983215 S    
H2    C30   1.083571 S    
H3    C23   1.084102 S    
C50   C52   1.558131 S    
C39   C55   1.215721 T    
C18   C26   1.404439 A    
C41   C43   1.538974 S    
C33   C47   1.547388 S    
C38   C54   1.215711 T    
C44   C54   1.484243 S    
O3    V1    1.974648 S    
C8    C57   1.477395 S    
C36   C52   1.555681 S    
C34   C48   1.547390 S    
C16   C20   1.438235 A    
C5    C29   1.392662 A    
C22   C24   1.398373 A    
O3    C1    1.342002 A    
C6    C30   1.392667 A    
C9    H9    1.083807 S    
C8    C30   1.395492 A    
O18   V4    1.984783 S    
O16   V4    1.974785 S    
C10   C12   1.399660 A    
O7    V1    1.960681 S    
O15   V3    1.974776 S    
C1    O8    1.338702 A    
C11   C13   1.404389 A    
C3    C32   1.482484 S    
O8    V2    1.960692 S    
C33   H17   1.110028 S    
C20   C22   1.421903 A    
H4    C24   1.084101 S    
C34   C42   1.551257 S    
C15   C17   1.432501 A    
O19   V4    1.760842 S    
C16   C18   1.432483 A    
C33   C41   1.551256 S    
N2    O24   1.300256 A    
C20   C28   1.427186 A    
C8    C28   1.408131 A    
C47   C51   1.546485 S    
O12   V3    1.964803 S    
C19   C21   1.421897 A    
C7    C58   1.477423 S    
O13   C57   1.330335 A    
C42   C46   1.532933 S    
O9    V2    1.761530 S    
C41   C45   1.532934 S    
O10   V1    1.761624 S    
C13   H11   1.075077 S    
C19   C27   1.427204 A    
C14   H12   1.075076 S    
O15   C59   1.334310 A    
C9    C31   1.397128 A    
