data_mof_unit_46015.cif
_audit_creation_date              2012-12-10T17:31:07-0500
_audit_creation_method            fapswitch 2.2
_symmetry_space_group_name_H-M    P1
_symmetry_Int_Tables_number       1
_space_group_crystal_system       triclinic
_cell_length_a                    11.992458
_cell_length_b                    12.941526
_cell_length_c                    15.441555
_cell_angle_alpha                 86.888539
_cell_angle_beta                  115.590603
_cell_angle_gamma                 93.291745
_cell_volume                      2156.7249825

loop_
_atom_site_label
_atom_site_type_symbol
_atom_type_description
_atom_site_fract_x
_atom_site_fract_y
_atom_site_fract_z
_atom_type_partial_charge
C1    C     C_R   0.476066 0.299522 0.496437 0.937463
C2    C     C_R   0.523934 0.700478 0.503562 0.937465
C3    C     C_R   0.641531 0.478392 0.113749 -0.144255
C4    C     C_R   0.358469 0.521610 0.886251 -0.144256
C5    C     C_R   0.729452 0.463060 0.080147 -0.184196
C6    C     C_R   0.270548 0.536941 0.919853 -0.184196
C7    C     C_R   0.540182 0.811743 0.507968 -0.254518
C8    C     C_R   0.459817 0.188257 0.492031 -0.254520
C9    C     C_R   0.342232 0.029336 0.487346 0.307900
C10   C     C_R   0.657767 0.970664 0.512651 0.307897
C11   C     C_R   0.347407 0.136960 0.479647 0.416295
C12   C     C_R   0.652592 0.863040 0.520351 0.416296
C13   C     C_R   0.561045 0.132819 0.501639 -0.263327
C14   C     C_R   0.438954 0.867181 0.498359 -0.263328
C15   C     C_R   0.554995 0.026131 0.503025 -0.025054
C16   C     C_R   0.445004 0.973869 0.496973 -0.025055
C17   C     C_R   0.005884 0.605668 0.415694 0.407316
C18   C     C_R   0.994116 0.394332 0.584305 0.407318
C19   C     C_R   0.126448 0.593914 0.423224 -0.132989
C20   C     C_R   0.873552 0.406086 0.576776 -0.132991
C21   C     C_R   0.158725 0.453706 0.535199 0.015289
C22   C     C_R   0.841275 0.546294 0.464801 0.015291
C23   C     C_R   0.575289 0.487875 0.680142 0.938667
C24   C     C_R   0.424710 0.512125 0.319858 0.938666
C25   C     C_R   0.038732 0.461680 0.530481 -0.106335
C26   C     C_R   0.961268 0.538320 0.469519 -0.106333
C27   C     C_R   0.620238 0.468327 0.783572 -0.210093
C28   C     C_R   0.379762 0.531674 0.216428 -0.210093
C29   C     C_R   0.783254 0.452406 0.945200 0.485949
C30   C     C_R   0.216746 0.547595 0.054800 0.485950
C31   C     C_R   0.746578 0.465572 0.846012 -0.352715
C32   C     C_R   0.253422 0.534429 0.153988 -0.352715
C33   C     C_R   0.533549 0.450386 0.820894 0.301781
C34   C     C_R   0.466451 0.549615 0.179106 0.301781
C35   C     C_R   0.568348 0.470287 0.917030 -0.040070
C36   C     C_R   0.431652 0.529714 0.082970 -0.040070
C37   C     C_R   0.694968 0.462930 0.981547 -0.022562
C38   C     C_R   0.305032 0.537071 0.018453 -0.022562
C39   C     C_R   0.480944 0.496573 0.950150 0.109010
C40   C     C_R   0.519056 0.503428 0.049850 0.109010
H1    H     H_    0.824098 0.450657 0.131668 0.185213
H2    H     H_    0.175902 0.549344 0.868332 0.185213
H3    H     H_    0.839637 0.356405 0.619507 0.146891
H4    H     H_    0.160363 0.643594 0.380493 0.146891
H5    H     H_    0.184306 0.530318 0.181751 0.205296
H6    H     H_    0.815694 0.469682 0.818249 0.205296
H7    H     H_    0.671193 0.470460 0.190438 0.195106
H8    H     H_    0.328807 0.529541 0.809562 0.195106
H9    H     H_    0.353934 0.826474 0.490376 0.233650
H10   H     H_    0.646065 0.173526 0.509622 0.233650
H11   H     H_    0.782119 0.606692 0.421092 0.243224
H12   H     H_    0.217881 0.393308 0.578908 0.243224
N1    N     N_R   0.799120 0.480200 0.517090 -0.133911
N2    N     N_R   0.200880 0.519800 0.482910 -0.133910
O1    O     O_R   0.580150 0.341050 0.504560 -0.637733
O2    O     O_R   0.419850 0.658950 0.495440 -0.637733
O3    O     O_R   0.388090 0.353760 0.493600 -0.566056
O4    O     O_R   0.611910 0.646240 0.506400 -0.566055
O5    O     O_R   0.650890 0.490020 0.640860 -0.635969
O6    O     O_R   0.349110 0.509980 0.359140 -0.635970
O7    O     O_R   0.458830 0.502730 0.629890 -0.575238
O8    O     O_R   0.541170 0.497270 0.370110 -0.575238
Zn1   Zn    Zn3+2 0.628240 0.491510 0.507320 0.972816
Zn2   Zn    Zn3+2 0.371760 0.508490 0.492680 0.972816
O9    O     O_3   0.928189 0.677430 0.351369 -0.602153
C41   C     C_3   0.975661 0.778507 0.380230 0.102719
H13   H     H_    0.049594 0.800193 0.356672 0.167407
H14   H     H_    0.013116 0.786107 0.459602 0.175874
C42   C     C_3   0.872119 0.854212 0.333009 -0.618496
H15   H     H_    0.797443 0.834758 0.356172 0.292809
H16   H     H_    0.908527 0.934278 0.354327 0.238275
H17   H     H_    0.833300 0.850414 0.253600 0.241375
O10   O     O_3   0.071810 0.322569 0.648630 -0.602153
C43   C     C_3   0.024339 0.221493 0.619768 0.102719
H18   H     H_    0.986885 0.213894 0.540396 0.175874
H19   H     H_    0.950405 0.199806 0.643325 0.167407
C44   C     C_3   0.127880 0.145788 0.666990 -0.618497
H20   H     H_    0.166698 0.149585 0.746399 0.241375
H21   H     H_    0.091472 0.065721 0.645671 0.238275
H22   H     H_    0.202558 0.165242 0.643828 0.292809
Cl1   Cl    Cl    0.597287 0.632691 0.240150 -0.626986
Cl2   Cl    Cl    0.402713 0.367310 0.759850 -0.626986
O11   O     O_3   0.905971 0.437063 0.006067 -0.564834
C45   C     C_3   0.923245 0.329263 0.018280 0.124994
H23   H     H_    0.902331 0.293950 0.948398 0.147550
H24   H     H_    0.863345 0.290576 0.050018 0.123383
C46   C     C_3   0.057189 0.309181 0.086410 -0.812257
H25   H     H_    0.082988 0.347660 0.155359 0.247189
H26   H     H_    0.069379 0.224627 0.101108 0.196080
H27   H     H_    0.119138 0.339226 0.053557 0.273311
O12   O     O_3   0.094029 0.562937 0.993933 -0.564834
C47   C     C_3   0.076755 0.670738 0.981720 0.124992
H28   H     H_    0.136655 0.709424 0.949982 0.123383
H29   H     H_    0.097669 0.706051 0.051601 0.147550
C48   C     C_3   0.942811 0.690819 0.913591 -0.812254
H30   H     H_    0.880862 0.660774 0.946443 0.273310
H31   H     H_    0.930620 0.775374 0.898892 0.196080
H32   H     H_    0.917011 0.652340 0.844641 0.247190
O13   O     O_3   0.756021 0.808594 0.535880 -0.563658
C49   C     C_3   0.828689 0.797839 0.636141 0.148831
H33   H     H_    0.777174 0.751540 0.671078 0.117278
H34   H     H_    0.856760 0.874805 0.669780 0.157720
C50   C     C_3   0.945820 0.742172 0.655316 -0.793495
H35   H     H_    0.996503 0.783931 0.617676 0.269074
H36   H     H_    0.006885 0.739143 0.733612 0.197596
H37   H     H_    0.922093 0.661848 0.629971 0.248409
O14   O     O_3   0.243979 0.191406 0.464118 -0.563658
C51   C     C_3   0.171311 0.202163 0.363858 0.148832
H38   H     H_    0.143246 0.125197 0.330216 0.157714
H39   H     H_    0.222825 0.248468 0.328923 0.117282
C52   C     C_3   0.054175 0.257822 0.344683 -0.793488
H40   H     H_    0.077896 0.338145 0.370033 0.248407
H41   H     H_    0.993113 0.260855 0.266387 0.197596
H42   H     H_    0.003492 0.216055 0.382320 0.269076
Cl3   Cl    Cl    0.206606 0.967700 0.487224 -0.704842
Cl4   Cl    Cl    0.793392 0.032300 0.512773 -0.704844

loop_
_geom_bond_atom_site_label_1
_geom_bond_atom_site_label_2
_ccdc_geom_bond_type
C41   H14   S    
C46   H25   S    
C8    C13   A    
C5    C37   A    
O7    Zn2   S    
C1    C8    S    
C32   H5    S    
C48   H30   S    
C45   C46   S    
C48   H32   S    
C44   H20   S    
C27   C33   A    
C23   O5    A    
C43   H19   S    
O11   C45   S    
C17   C26   A    
C35   C37   A    
C9    C16   A    
C45   H24   S    
C29   O11   S    
C10   C15   A    
C21   N2    A    
C41   C42   S    
C15   C16   A    
C51   H38   S    
C30   C38   A    
O10   C43   S    
C42   H16   S    
C49   H33   S    
C12   O13   S    
C21   C25   A    
C17   C19   A    
C6    H2    S    
C50   H36   S    
C7    C14   A    
C2    C7    S    
C43   C44   S    
O1    Zn1   S    
O14   C51   S    
C6    C38   A    
C34   Cl1   S    
C23   C27   S    
C52   H42   S    
C33   Cl2   S    
C18   C20   A    
C41   H13   S    
C28   C34   A    
C2    O4    A    
C18   C25   A    
C49   H34   S    
C22   N1    A    
C44   H21   S    
C7    C12   A    
C43   H18   S    
C27   C31   A    
C9    Cl3   S    
C28   C32   A    
C45   H23   S    
C4    C6    A    
C39   C40   A    
C30   O12   S    
C25   C26   A    
C31   H6    S    
C49   C50   S    
C42   H17   S    
C35   C39   A    
O8    Zn1   S    
C1    O3    A    
O13   C49   S    
C4    C39   A    
C36   C40   A    
C24   O6    A    
C47   H29   S    
C52   H41   S    
C9    C11   A    
C10   C12   A    
C19   N2    A    
C3    C40   A    
C18   O10   S    
C13   C15   A    
C11   O14   S    
C14   C16   A    
C36   C38   A    
O12   C47   S    
C20   H3    S    
C10   Cl4   S    
C19   H4    S    
O3    Zn2   S    
C4    H8    S    
C44   H22   S    
O4    Zn1   S    
C5    H1    S    
C24   O8    A    
C52   H40   S    
O5    Zn1   S    
C24   C28   S    
C20   N1    A    
C3    C5    A    
C48   H31   S    
C17   O9    S    
C51   C52   S    
O6    Zn2   S    
C46   H26   S    
C1    O1    A    
C29   C31   A    
C2    O2    A    
C30   C32   A    
N1    Zn1   S    
O2    Zn2   S    
N2    Zn2   S    
C8    C11   A    
C3    H7    S    
C47   H28   S    
C33   C35   A    
C51   H39   S    
C50   H37   S    
C34   C36   A    
C47   C48   S    
C42   H15   S    
C13   H10   S    
C14   H9    S    
C23   O7    A    
O9    C41   S    
C22   C26   A    
C46   H27   S    
C29   C37   A    
C50   H35   S    
C21   H12   S    
C22   H11   S    
