data_mof_unit_18467.cif
_audit_creation_date              2012-12-10T19:12:17-0500
_audit_creation_method            fapswitch 2.2
_symmetry_space_group_name_H-M    P1
_symmetry_Int_Tables_number       1
_space_group_crystal_system       triclinic
_cell_length_a                    7.785857
_cell_length_b                    9.095774
_cell_length_c                    17.116518
_cell_angle_alpha                 89.574109
_cell_angle_beta                  93.320969
_cell_angle_gamma                 90.006879
_cell_volume                      1210.0952458

loop_
_atom_site_label
_atom_site_type_symbol
_atom_type_description
_atom_site_fract_x
_atom_site_fract_y
_atom_site_fract_z
_atom_type_partial_charge
C1    C     C_R   0.499977 0.220024 0.500014 0.848113
C2    C     C_R   0.500025 0.779976 0.499998 0.847322
C3    C     C_R   0.520291 0.497144 0.651098 0.823460
C4    C     C_R   0.479695 0.502583 0.348824 0.827371
C5    C     C_R   0.530323 0.490084 0.736461 -0.093371
C6    C     C_R   0.469532 0.506988 0.263274 -0.078349
C7    C     C_R   0.397959 0.549057 0.778164 -0.204626
C8    C     C_R   0.609300 0.459994 0.222177 -0.238467
C9    C     C_R   0.406569 0.541533 0.859311 -0.128081
C10   C     C_R   0.599941 0.463430 0.140963 -0.165507
C11   C     C_R   0.546614 0.471160 0.900541 0.283117
C12   C     C_R   0.450870 0.516688 0.099039 0.294997
C13   C     C_R   0.677372 0.407507 0.857940 0.338093
C14   C     C_R   0.312046 0.568108 0.140671 0.377401
C15   C     C_R   0.669710 0.420303 0.776439 -0.286928
C16   C     C_R   0.321270 0.560421 0.222362 -0.286911
C17   C     C_1   0.499990 0.065368 0.500014 -0.157327
C18   C     C_1   0.500015 0.934632 0.500008 -0.157651
Cu1   Cu    Cu3+1 0.669080 0.500010 0.500000 1.018201
Cu2   Cu    Cu3+1 0.330920 0.499990 0.500000 1.020042
H1    H     H_    0.725250 0.418644 0.252820 0.182478
H2    H     H_    0.288962 0.603139 0.748016 0.182967
H3    H     H_    0.709869 0.424320 0.111359 0.237650
H4    H     H_    0.303185 0.591397 0.889435 0.230168
H5    H     H_    0.770946 0.372476 0.743925 0.201382
H6    H     H_    0.213799 0.598144 0.254281 0.185105
N1    N     N_1   0.076820 0.499970 0.500010 -0.044064
N2    N     N_1   0.923180 0.500030 0.499990 -0.044310
N3    N     N_2   0.560507 0.465077 0.983668 -0.161731
N4    N     N_2   0.436723 0.520828 0.015914 -0.165008
O1    O     O_R   0.642760 0.288400 0.500000 -0.577716
O2    O     O_R   0.357240 0.711600 0.500000 -0.577786
O3    O     O_R   0.357190 0.288380 0.500000 -0.573475
O4    O     O_R   0.642810 0.711620 0.500000 -0.574682
O5    O     O_R   0.658410 0.498660 0.613920 -0.582200
O6    O     O_R   0.341590 0.501340 0.386080 -0.585467
O7    O     O_R   0.372840 0.498650 0.613930 -0.581396
O8    O     O_R   0.627160 0.501350 0.386070 -0.587115
S1    S     S_3+6 0.852961 0.309469 0.903153 0.078711
O9    O     O_2   0.008752 0.407058 0.905723 -0.208529
O10   O     O_2   0.818376 0.260645 0.984831 -0.224886
O11   O     O_3   0.894047 0.160967 0.849345 -0.494836
H7    H     H_    0.786848 0.102176 0.848452 0.350238
S2    S     S_3+6 0.123972 0.640427 0.091914 0.060146
O12   O     O_2   0.170554 0.737548 0.024957 -0.209102
O13   O     O_2   0.015624 0.515408 0.060346 -0.241689
O14   O     O_3   0.010050 0.739298 0.153605 -0.498588
H8    H     H_    0.934693 0.667342 0.178670 0.342837

loop_
_geom_bond_atom_site_label_1
_geom_bond_atom_site_label_2
_ccdc_geom_bond_type
C4    O6    A    
C9    H4    S    
N3    N4    D    
Cu1   N2    S    
Cu1   O8    S    
C10   H3    S    
C2    C18   S    
C7    H2    S    
C11   C13   A    
C1    C17   S    
Cu1   Cu2   S    
S2    O14   S    
C3    O5    A    
Cu1   O1    S    
C2    O4    A    
C17   C18   T    
C1    O3    A    
S1    O10   D    
Cu1   O5    S    
Cu2   O7    S    
C9    C11   A    
C11   N3    S    
C10   C12   A    
Cu2   O3    S    
C2    O2    A    
Cu2   N1    S    
C12   C14   A    
C8    H1    S    
S1    O11   S    
C5    C7    A    
C13   C15   A    
C16   H6    S    
C13   S1    S    
C14   C16   A    
C5    C15   A    
C4    C6    S    
C15   H5    S    
O11   H7    S    
C6    C16   A    
Cu2   O6    S    
C3    C5    S    
C1    O1    A    
S2    O12   D    
C3    O7    A    
C14   S2    S    
Cu2   O2    S    
S1    O9    D    
C7    C9    A    
C6    C8    A    
S2    O13   D    
C12   N4    S    
C8    C10   A    
O14   H8    S    
C4    O8    A    
N1    N2    T    
Cu1   O4    S    
