data_mof_unit_27545.cif
_audit_creation_date              2012-12-11T15:33:50-0500
_audit_creation_method            fapswitch 2.2
_symmetry_space_group_name_H-M    P1
_symmetry_Int_Tables_number       1
_space_group_crystal_system       triclinic
_cell_length_a                    27.183805
_cell_length_b                    7.195182
_cell_length_c                    22.703836
_cell_angle_alpha                 90.000224
_cell_angle_beta                  101.159857
_cell_angle_gamma                 90.000191
_cell_volume                      4356.72916455

loop_
_atom_site_label
_atom_site_type_symbol
_atom_type_description
_atom_site_fract_x
_atom_site_fract_y
_atom_site_fract_z
_atom_type_partial_charge
O1    O     O_R   0.207310 0.594030 0.676830 -0.533246
O2    O     O_R   0.792690 0.405970 0.323170 -0.530325
O3    O     O_R   0.292690 0.094030 0.823170 -0.533242
O4    O     O_R   0.707310 0.905970 0.176830 -0.530324
O5    O     O_R   0.197320 0.262370 0.795700 -0.537442
O6    O     O_R   0.802680 0.737630 0.204300 -0.545668
O7    O     O_R   0.302680 0.762370 0.704300 -0.537444
O8    O     O_R   0.697320 0.237630 0.295700 -0.545667
C1    C     C_R   0.185183 0.431601 0.812839 0.677572
C2    C     C_R   0.816067 0.568199 0.188859 0.668404
C3    C     C_R   0.314817 0.931601 0.687160 0.677566
C4    C     C_R   0.683932 0.068199 0.311141 0.668402
O9    O     O_R   0.201410 0.264250 0.675590 -0.533736
O10   O     O_R   0.798590 0.735750 0.324410 -0.535608
O11   O     O_R   0.298590 0.764250 0.824410 -0.533736
O12   O     O_R   0.701410 0.235750 0.175590 -0.535607
O13   O     O_R   0.296810 0.094940 0.702210 -0.537535
O14   O     O_R   0.703190 0.905060 0.297790 -0.533340
O15   O     O_R   0.203190 0.594940 0.797790 -0.537536
O16   O     O_R   0.796810 0.405060 0.202210 -0.533339
C5    C     C_R   0.189696 0.432016 0.653354 0.694340
C6    C     C_R   0.810163 0.567781 0.346675 0.683427
C7    C     C_R   0.310304 0.932017 0.846646 0.694344
C8    C     C_R   0.689837 0.067780 0.153325 0.683427
O17   O     O_3   0.281300 0.427390 0.758870 -0.373246
O18   O     O_3   0.718700 0.572610 0.241130 -0.371602
O19   O     O_3   0.218700 0.927390 0.741130 -0.373247
O20   O     O_3   0.781300 0.072610 0.258870 -0.371602
V1    V     V_3+5 0.244190 0.152150 0.748350 1.393750
V2    V     V_3+5 0.755810 0.847850 0.251650 1.394833
V3    V     V_3+5 0.255810 0.652150 0.751650 1.393746
V4    V     V_3+5 0.744190 0.347850 0.248350 1.394833
C9    C     C_R   0.654828 0.065947 0.094840 -0.041173
C10   C     C_R   0.345406 0.931844 0.905214 -0.045213
C11   C     C_R   0.845172 0.565955 0.405160 -0.041181
C12   C     C_R   0.154594 0.431838 0.594786 -0.045220
C13   C     C_R   0.636443 0.168334 0.991425 -0.159834
C14   C     C_R   0.365056 0.814861 0.007022 -0.160064
C15   C     C_R   0.863563 0.668408 0.508569 -0.159838
C16   C     C_R   0.134940 0.314810 0.492983 -0.160067
C17   C     C_R   0.670301 0.144847 0.045267 -0.159937
C18   C     C_R   0.331399 0.836904 0.953061 -0.169347
C19   C     C_R   0.829703 0.644899 0.454729 -0.159931
C20   C     C_R   0.168599 0.336873 0.546942 -0.169337
C21   C     C_R   0.604634 0.009393 0.089981 -0.216154
C22   C     C_R   0.394793 0.999259 0.911296 -0.215216
C23   C     C_R   0.895364 0.509375 0.410021 -0.216158
C24   C     C_R   0.105209 0.499268 0.588702 -0.215219
C25   C     C_R   0.568908 0.034475 0.035513 0.085584
C26   C     C_R   0.430970 0.969375 0.965186 0.085186
C27   C     C_R   0.931092 0.534479 0.464487 0.085581
C28   C     C_R   0.069030 0.469370 0.534813 0.085184
C29   C     C_R   0.586036 0.116550 0.986316 0.136243
C30   C     C_R   0.414533 0.878418 0.013400 0.138989
C31   C     C_R   0.913968 0.616600 0.513679 0.136244
C32   C     C_R   0.085464 0.378378 0.486604 0.138988
C33   C     C_R   0.516864 0.984511 0.028325 0.057771
C34   C     C_R   0.482937 0.021010 0.972536 0.056424
C35   C     C_R   0.983135 0.484497 0.471676 0.057770
C36   C     C_R   0.017064 0.521022 0.527462 0.056424
C37   C     C_R   0.502343 0.104302 0.925625 -0.185687
C38   C     C_R   0.497723 0.897803 0.074857 -0.186525
C39   C     C_R   0.997662 0.604361 0.574368 -0.185688
C40   C     C_R   0.002273 0.397748 0.425149 -0.186526
C41   C     C_R   0.552760 0.149624 0.932407 -0.196702
C42   C     C_R   0.447758 0.846048 0.067361 -0.199043
C43   C     C_R   0.947246 0.649702 0.567585 -0.196701
C44   C     C_R   0.052237 0.345982 0.432646 -0.199043
H1    H     H_    0.565828 0.212880 0.894893 0.127296
H2    H     H_    0.435102 0.777032 0.104204 0.126357
H3    H     H_    0.934181 0.712996 0.605095 0.127296
H4    H     H_    0.064890 0.276937 0.395807 0.126358
H5    H     H_    0.404108 0.066656 0.872530 0.099494
H6    H     H_    0.594463 0.954244 0.130080 0.096517
H7    H     H_    0.095895 0.566683 0.627465 0.099498
H8    H     H_    0.905534 0.454192 0.369925 0.096524
H9    H     H_    0.294320 0.776638 0.948288 0.110558
H10   H     H_    0.708627 0.191854 0.048678 0.108246
H11   H     H_    0.205677 0.276599 0.551716 0.110558
H12   H     H_    0.791379 0.691928 0.451317 0.108251
H13   H     H_    0.649526 0.231303 0.953897 0.118011
H14   H     H_    0.352749 0.742119 0.043404 0.116844
H15   H     H_    0.850482 0.731412 0.546093 0.118012
H16   H     H_    0.147245 0.242045 0.456604 0.116844
H17   H     H_    0.479535 0.135379 0.882491 0.124615
H18   H     H_    0.520653 0.864448 0.117720 0.124265
H19   H     H_    0.020471 0.635466 0.617499 0.124615
H20   H     H_    0.979341 0.364370 0.382290 0.124265
C45   C     C_R   0.642322 0.900745 0.384774 -0.173580
C46   C     C_R   0.382620 0.103975 0.649452 -0.207052
C47   C     C_R   0.857677 0.400745 0.115225 -0.173580
C48   C     C_R   0.117377 0.603969 0.850543 -0.207053
H21   H     H_    0.668111 0.786507 0.383897 0.129508
H22   H     H_    0.376509 0.220441 0.677388 0.130435
H23   H     H_    0.831888 0.286507 0.116102 0.129508
H24   H     H_    0.123485 0.720429 0.822604 0.130437
C49   C     C_R   0.607862 0.885997 0.422914 -0.153353
C50   C     C_R   0.419822 0.120967 0.614849 -0.149521
C51   C     C_R   0.892137 0.385996 0.077085 -0.153352
C52   C     C_R   0.080174 0.620960 0.885146 -0.149517
H25   H     H_    0.607869 0.761150 0.449566 0.142654
H26   H     H_    0.440758 0.249605 0.616717 0.139819
H27   H     H_    0.892130 0.261149 0.050432 0.142654
H28   H     H_    0.059236 0.749592 0.883275 0.139820
C53   C     C_R   0.574669 0.031475 0.427742 -0.021555
C54   C     C_R   0.430446 0.973098 0.579095 -0.003371
C55   C     C_R   0.925330 0.531475 0.072257 -0.021556
C56   C     C_R   0.069553 0.473098 0.920903 -0.003374
C57   C     C_R   0.575742 0.190521 0.392272 -0.123851
C58   C     C_R   0.402298 0.809439 0.577707 -0.164466
C59   C     C_R   0.924258 0.690520 0.107728 -0.123851
C60   C     C_R   0.097704 0.309446 0.922296 -0.164464
H29   H     H_    0.549529 0.300484 0.396124 0.151215
H30   H     H_    0.409369 0.696948 0.548713 0.138896
H31   H     H_    0.950471 0.800483 0.103875 0.151215
H32   H     H_    0.090636 0.196962 0.951293 0.138894
C61   C     C_R   0.609110 0.206737 0.351684 0.119775
C62   C     C_R   0.363397 0.791527 0.610398 0.140045
C63   C     C_R   0.890890 0.706737 0.148316 0.119776
C64   C     C_R   0.136606 0.291536 0.889606 0.140049
C65   C     C_R   0.644375 0.060158 0.349194 -0.101476
C66   C     C_R   0.353893 0.940212 0.648553 -0.059382
C67   C     C_R   0.855625 0.560158 0.150806 -0.101477
C68   C     C_R   0.146106 0.440214 0.851446 -0.059381
N1    N     N_R   0.517494 0.171563 0.488410 -0.282409
N2    N     N_R   0.490406 0.834843 0.522157 -0.280678
N3    N     N_R   0.982506 0.671561 0.011590 -0.282410
N4    N     N_R   0.009592 0.334844 0.977840 -0.280677
N5    N     N_R   0.484024 0.158272 0.524153 -0.283278
N6    N     N_R   0.524157 0.848179 0.486839 -0.283206
N7    N     N_R   0.015976 0.658269 0.975847 -0.283277
N8    N     N_R   0.975841 0.348180 0.013158 -0.283208
C69   C     C_R   0.469530 0.989443 0.541558 0.518251
C70   C     C_R   0.538237 0.016818 0.468854 0.516931
C71   C     C_R   0.030469 0.489442 0.958440 0.518254
C72   C     C_R   0.961762 0.516818 0.031145 0.516934
C73   C     C_3   0.606672 0.376579 0.310788 -0.328743
C74   C     C_3   0.560128 0.499779 0.305926 -0.783850
H33   H     H_    0.525452 0.415918 0.292566 0.232833
H34   H     H_    0.559860 0.572142 0.349037 0.236860
H35   H     H_    0.560730 0.607816 0.271124 0.222750
H36   H     H_    0.640042 0.465322 0.326657 0.196093
H37   H     H_    0.607386 0.328106 0.264464 0.182127
C75   C     C_3   0.331168 0.618189 0.598737 -0.363525
C76   C     C_3   0.279246 0.664403 0.562476 -0.715441
H38   H     H_    0.257599 0.751304 0.588764 0.224293
H39   H     H_    0.282627 0.739359 0.520661 0.222543
H40   H     H_    0.258364 0.533926 0.549769 0.205273
H41   H     H_    0.348341 0.515349 0.572202 0.173906
H42   H     H_    0.328723 0.544055 0.640796 0.196451
C77   C     C_3   0.893329 0.876579 0.189213 -0.328743
C78   C     C_3   0.939872 0.999778 0.194074 -0.783850
H43   H     H_    0.974549 0.915917 0.207434 0.232833
H44   H     H_    0.940141 0.072141 0.150964 0.236860
H45   H     H_    0.939271 0.107815 0.228877 0.222749
H46   H     H_    0.859958 0.965321 0.173344 0.196092
H47   H     H_    0.892615 0.828105 0.235536 0.182127
C79   C     C_3   0.168840 0.118212 0.901272 -0.363524
C80   C     C_3   0.220761 0.164458 0.937530 -0.715475
H48   H     H_    0.242404 0.251371 0.911242 0.224292
H49   H     H_    0.217380 0.239405 0.979344 0.222550
H50   H     H_    0.241649 0.033999 0.950236 0.205282
H51   H     H_    0.151671 0.015374 0.927811 0.173909
H52   H     H_    0.171286 0.044066 0.859215 0.196452

loop_
_geom_bond_atom_site_label_1
_geom_bond_atom_site_label_2
_ccdc_geom_bond_type
N1    C70   A    
O17   V3    S    
C51   H27   S    
C73   H36   S    
O1    C5    A    
O19   V1    S    
C9    C21   A    
C16   H16   S    
O3    C7    A    
C10   C18   A    
C52   H28   S    
O15   V3    S    
C58   C62   A    
C76   H38   S    
C57   C61   A    
C33   C38   A    
C5    C12   S    
O7    C3    A    
C6    C11   S    
C38   H18   S    
C35   C40   A    
C55   C72   S    
C36   C39   A    
C77   H47   S    
O2    V4    S    
O9    V1    S    
C23   H8    S    
C14   C18   A    
C62   C75   S    
C48   C68   A    
C54   C58   A    
O4    C8    A    
C25   C29   A    
C44   H4    S    
N2    N6    A    
O1    V3    S    
C1    C68   S    
O13   V1    S    
C59   C63   A    
C62   C66   A    
O3    V1    S    
C61   C65   A    
C75   H42   S    
C28   C36   A    
C64   C68   A    
C1    O15   A    
C54   C69   S    
C15   C31   A    
C4    C65   S    
N2    C69   A    
C2    O16   A    
C16   C32   A    
O2    C6    A    
C77   C78   S    
C80   H49   S    
C10   C22   A    
C11   C19   A    
C58   H30   S    
C16   C20   A    
C43   H3    S    
N8    C72   A    
C13   C29   A    
C34   C37   A    
O11   C7    A    
C73   H37   S    
C11   C23   A    
C35   C36   A    
O12   C8    A    
C47   C67   A    
C14   H14   S    
C64   C79   S    
C46   C66   A    
C24   H7    S    
C13   H13   S    
N6    C70   A    
O10   V2    S    
N4    N8    A    
C76   H39   S    
C46   H22   S    
O5    V1    S    
C48   H24   S    
C63   C77   S    
C39   C43   A    
C52   C56   A    
O7    V3    S    
C38   C42   A    
C26   C34   A    
N3    C72   A    
C56   C71   S    
C2    C67   S    
N4    C71   A    
C17   H10   S    
C60   C64   A    
O18   V4    S    
C23   C27   A    
C79   H52   S    
C19   H12   S    
C32   C44   A    
C47   H23   S    
C45   H21   S    
O4    V2    S    
C56   C60   A    
C45   C49   A    
C21   H6    S    
O8    V4    S    
O5    C1    A    
C75   H41   S    
N1    N5    A    
C31   C43   A    
C80   H48   S    
C14   C30   A    
C78   H45   S    
C21   C25   A    
O8    C4    A    
C7    C10   S    
C80   H50   S    
O9    C5    A    
C26   C30   A    
C77   H46   S    
C37   H17   S    
C79   H51   S    
N5    C69   A    
O6    V2    S    
C78   H44   S    
C63   C67   A    
C79   C80   S    
C74   H34   S    
C12   C20   A    
C3    C66   S    
C27   C35   A    
C40   C44   A    
C60   H32   S    
C76   H40   S    
C29   C41   A    
C48   C52   A    
O16   V4    S    
C53   C57   A    
C3    O13   A    
C39   H19   S    
C55   C59   A    
C20   H11   S    
C61   C73   S    
C75   C76   S    
C74   H35   S    
O6    C2    A    
C25   C33   A    
C15   C19   A    
O11   V3    S    
C30   C42   A    
C57   H29   S    
O12   V4    S    
C51   C55   A    
C73   C74   S    
C22   C26   A    
N7    C71   A    
C8    C9    S    
C50   C54   A    
C9    C17   A    
O10   C6    A    
O20   V2    S    
C49   C53   A    
C50   H26   S    
C33   C34   A    
C42   H2    S    
C45   C65   A    
C41   H1    S    
C46   C50   A    
C12   C24   A    
C27   C31   A    
C13   C17   A    
N3    N7    A    
C74   H33   S    
O14   V2    S    
C15   H15   S    
C37   C41   A    
C24   C28   A    
C78   H43   S    
C18   H9    S    
C4    O14   A    
C59   H31   S    
C47   C51   A    
C40   H20   S    
C22   H5    S    
C49   H25   S    
C28   C32   A    
C53   C70   S    
