data_mof_unit_11839.cif
_audit_creation_date              2012-12-10T16:51:33-0500
_audit_creation_method            fapswitch 2.2
_symmetry_space_group_name_H-M    P1
_symmetry_Int_Tables_number       1
_space_group_crystal_system       triclinic
_cell_length_a                    7.856821
_cell_length_b                    8.564166
_cell_length_c                    12.046666
_cell_angle_alpha                 92.680688
_cell_angle_beta                  100.769505
_cell_angle_gamma                 94.237465
_cell_volume                      792.612164691

loop_
_atom_site_label
_atom_site_type_symbol
_atom_type_description
_atom_site_fract_x
_atom_site_fract_y
_atom_site_fract_z
_atom_type_partial_charge
C1    C     C_R   0.044639 0.794644 0.497423 0.954314
C2    C     C_R   0.162487 0.526276 0.832889 -0.107644
C3    C     C_2   0.067830 0.958467 0.496097 -0.386917
C4    C     C_R   0.106132 0.507817 0.710638 0.861566
C5    C     C_2   0.932649 0.041584 0.505003 -0.387997
C6    C     C_R   0.955533 0.205369 0.502966 0.954405
C7    C     C_R   0.894147 0.490786 0.289620 0.856005
C8    C     C_R   0.800489 0.294045 0.002810 -0.184116
C9    C     C_R   0.838044 0.468734 0.168543 -0.092506
C10   C     C_R   0.085802 0.635013 0.893250 -0.276325
C11   C     C_R   0.168849 0.692191 0.000111 -0.206720
C12   C     C_R   0.412549 0.531518 0.987469 -0.047082
C13   C     C_R   0.332594 0.646090 0.047680 0.517615
C14   C     C_3   0.637681 0.688302 0.691487 -0.124071
C15   C     C_3   0.341566 0.661815 0.237440 -0.236005
C16   C     C_R   0.314503 0.461518 0.883984 0.019861
C17   C     C_R   0.581764 0.479577 0.024388 0.088043
C18   C     C_R   0.638900 0.352020 0.963977 0.164635
C19   C     C_R   0.531595 0.277996 0.868763 -0.248540
C20   C     C_R   0.370728 0.330115 0.830417 -0.164157
C21   C     C_R   0.695565 0.544933 0.121146 -0.235446
C22   C     C_R   0.897925 0.349240 0.107248 -0.181881
H1    H     H_    0.011739 0.291498 0.143385 0.149767
H2    H     H_    0.195130 0.010045 0.487593 0.185384
H3    H     H_    0.758031 0.751742 0.675854 0.164362
H4    H     H_    0.664185 0.577870 0.734376 0.159659
H5    H     H_    0.583388 0.765343 0.750337 0.122972
H6    H     H_    0.341237 0.531609 0.236183 0.157793
H7    H     H_    0.208327 0.698964 0.234446 0.166303
H8    H     H_    0.422322 0.710243 0.319006 0.210902
H9    H     H_    0.805395 0.989988 0.513610 0.188874
H10   H     H_    0.469813 0.369831 0.419702 0.140373
H11   H     H_    0.571385 0.178131 0.824251 0.144863
H12   H     H_    0.844433 0.197830 0.956864 0.131636
H13   H     H_    0.675583 0.649196 0.167501 0.217962
H14   H     H_    0.967592 0.684434 0.854919 0.155147
H15   H     H_    0.110351 0.780900 0.044033 0.155458
H16   H     H_    0.289394 0.265862 0.757651 0.154195
N1    N     N_2   0.434800 0.456690 0.470850 -0.105529
N2    N     N_2   0.565200 0.543310 0.529150 0.123474
O1    O     O_R   0.893060 0.738880 0.507150 -0.618340
O2    O     O_3   0.414333 0.723211 0.148729 -0.662417
O3    O     O_R   0.172250 0.711130 0.488470 -0.577453
O4    O     O_R   0.944700 0.520730 0.667600 -0.649000
O5    O     O_R   0.223890 0.492980 0.648920 -0.562318
O6    O     O_R   0.827750 0.288870 0.511530 -0.634129
O7    O     O_R   0.106940 0.261120 0.492850 -0.621511
O8    O     O_R   0.776110 0.507020 0.351080 -0.617153
O9    O     O_R   0.055300 0.479270 0.332400 -0.646935
O10   O     O_3   0.514433 0.660043 0.590988 -0.495039
Zn1   Zn    Zn3+2 0.813580 0.518530 0.512470 0.953358
Zn2   Zn    Zn3+2 0.186420 0.481470 0.487530 0.970305

loop_
_geom_bond_atom_site_label_1
_geom_bond_atom_site_label_2
_ccdc_geom_bond_type
C12   C17   A    
C2    C4    S    
O7    Zn2   S    
C21   H13   S    
C14   H5    S    
N2    Zn1   S    
C2    C16   A    
C8    C22   A    
C19   C20   A    
C16   C20   A    
O9    Zn2   S    
C7    O8    A    
C17   C18   A    
C15   H6    S    
C8    H12   S    
C14   H4    S    
C11   C13   A    
C9    C21   A    
C3    H2    S    
C14   O10   S    
N2    O10   S    
O4    Zn1   S    
C1    O1    A    
C13   O2    S    
O1    Zn1   S    
C15   H7    S    
C4    O5    A    
C14   H3    S    
C6    O6    A    
C5    C6    S    
O3    Zn2   S    
C17   C21   A    
C9    C22   A    
C5    H9    S    
C10   C11   A    
C2    C10   A    
C6    O7    A    
C20   H16   S    
C12   C13   A    
C7    O9    A    
C15   H8    S    
C7    C9    S    
C18   C19   A    
C19   H11   S    
H10   N1    S    
N1    N2    D    
C11   H15   S    
C22   H1    S    
C10   H14   S    
C4    O4    A    
O5    Zn2   S    
C3    C5    D    
O6    Zn1   S    
C1    O3    A    
O8    Zn1   S    
C8    C18   A    
C12   C16   A    
C15   O2    S    
N1    Zn2   S    
C1    C3    S    
