data_mof_unit_10114.cif
_audit_creation_date              2012-12-10T17:29:21-0500
_audit_creation_method            fapswitch 2.2
_symmetry_space_group_name_H-M    P1
_symmetry_Int_Tables_number       1
_space_group_crystal_system       triclinic
_cell_length_a                    12.105283
_cell_length_b                    12.860123
_cell_length_c                    13.175841
_cell_angle_alpha                 86.046091
_cell_angle_beta                  113.843554
_cell_angle_gamma                 93.447262
_cell_volume                      1870.45889943

loop_
_atom_site_label
_atom_site_type_symbol
_atom_type_description
_atom_site_fract_x
_atom_site_fract_y
_atom_site_fract_z
_atom_type_partial_charge
C1    C     C_R   0.473248 0.300683 0.487521 0.898733
C2    C     C_R   0.611773 0.496866 0.829623 -0.110497
C3    C     C_R   0.540017 0.812006 0.517117 -0.141694
C4    C     C_R   0.567403 0.498470 0.708588 0.838059
C5    C     C_R   0.452034 0.190024 0.469267 -0.072283
C6    C     C_R   0.345369 0.030569 0.485424 -0.234476
C7    C     C_R   0.342498 0.136823 0.458477 -0.033015
C8    C     C_R   0.548644 0.134098 0.471877 -0.304242
C9    C     C_R   0.546781 0.027056 0.487228 0.151157
C10   C     C_R   0.449798 0.976068 0.505916 0.180745
C11   C     C_R   0.455088 0.870092 0.536341 -0.044598
C12   C     C_R   0.561977 0.507542 0.989500 0.092997
C13   C     C_R   0.634868 0.863082 0.495978 -0.187874
C14   C     C_R   0.641218 0.970786 0.486294 -0.202245
C15   C     C_R   0.004696 0.599416 0.393305 -0.136401
C16   C     C_R   0.524639 0.700056 0.508769 0.882880
C17   C     C_R   0.129251 0.597479 0.413415 0.034997
C18   C     C_R   0.155717 0.450488 0.539408 0.057807
C19   C     C_R   0.037838 0.463407 0.538474 -0.013016
C20   C     C_R   0.958718 0.532987 0.458226 -0.015958
C21   C     C_R   0.838085 0.538836 0.450320 -0.086641
C22   C     C_R   0.875951 0.418647 0.603812 0.271566
C23   C     C_R   0.544286 0.541276 0.880156 0.074555
C24   C     C_R   0.998103 0.412176 0.617875 0.116372
C25   C     C_R   0.433234 0.504322 0.291295 0.908207
C26   C     C_R   0.292670 0.623609 0.003145 -0.209953
C27   C     C_R   0.395611 0.519543 0.171598 -0.065671
C28   C     C_R   0.711814 0.437430 0.894187 -0.195472
C29   C     C_R   0.741063 0.417542 0.006781 -0.122274
C30   C     C_R   0.665716 0.449917 0.054073 -0.117748
C31   C     C_2   0.222757 0.184962 0.410983 0.470892
C32   C     C_3   0.812224 0.258213 0.678272 -0.742457
C33   C     C_2   0.925119 0.672262 0.304490 0.378225
C34   C     C_R   0.474268 0.531956 0.028843 0.092250
C35   C     C_3   0.153785 0.436975 0.801076 -0.812478
C36   C     C_2   0.179495 0.683789 0.363814 0.460149
C37   C     C_2   0.225344 0.357915 0.597967 0.510329
C38   C     C_2   0.381039 0.826045 0.597732 0.309778
C39   C     C_R   0.381185 0.601184 0.965453 0.160530
C40   C     C_R   0.377779 0.646898 0.865430 -0.233017
C41   C     C_R   0.458353 0.617173 0.823226 -0.180720
C42   C     C_R   0.475042 0.487739 0.128595 -0.240669
C43   C     C_R   0.299926 0.582824 0.106218 -0.154764
H1    H     H_    0.234450 0.604879 0.136049 0.219513
H2    H     H_    0.764748 0.403005 0.857031 0.160183
H3    H     H_    0.692209 0.430427 0.141450 0.150565
H4    H     H_    0.819321 0.372637 0.056564 0.158784
H5    H     H_    0.453206 0.654147 0.745582 0.165407
H6    H     H_    0.148923 0.149119 0.429252 0.092941
H7    H     H_    0.886704 0.392978 0.763586 0.201386
H8    H     H_    0.722128 0.239723 0.679526 0.258113
H9    H     H_    0.879636 0.216649 0.751876 0.210923
H10   H     H_    0.814596 0.228247 0.602058 0.232560
H11   H     H_    0.955295 0.752322 0.296354 0.052886
H12   H     H_    0.703064 0.819865 0.485028 0.170292
H13   H     H_    0.052051 0.299872 0.749992 0.255801
H14   H     H_    0.094830 0.476138 0.831924 0.235059
H15   H     H_    0.200251 0.496593 0.765836 0.244975
H16   H     H_    0.223507 0.394336 0.871958 0.258146
H17   H     H_    0.173984 0.763393 0.383377 -0.016201
H18   H     H_    0.321042 0.363542 0.647069 0.101437
H19   H     H_    0.335221 0.750582 0.583089 0.087852
H20   H     H_    0.263699 0.989325 0.483313 0.147817
H21   H     H_    0.715881 0.009525 0.471696 0.146806
H22   H     H_    0.627161 0.173841 0.465382 0.170414
H23   H     H_    0.775582 0.592359 0.391348 0.197523
H24   H     H_    0.310254 0.702978 0.817945 0.176570
H25   H     H_    0.220089 0.674905 0.954413 0.151465
H26   H     H_    0.540308 0.431137 0.177560 0.147232
N1    N     N_R   0.798200 0.480260 0.519790 -0.130493
N2    N     N_R   0.201820 0.519740 0.480210 -0.151017
N3    N     N_2   0.836515 0.369948 0.684046 -0.268558
N4    N     N_2   0.083113 0.364593 0.717789 -0.278630
O1    O     O_R   0.579910 0.341070 0.505280 -0.610528
O2    O     O_2   0.827669 0.641828 0.236061 -0.564299
O3    O     O_2   0.220355 0.668407 0.296078 -0.568606
O4    O     O_2   0.174726 0.272112 0.591681 -0.606249
O5    O     O_2   0.370616 0.876377 0.668490 -0.561377
O6    O     O_R   0.388440 0.353740 0.492580 -0.600146
O7    O     O_R   0.643280 0.490550 0.663120 -0.587182
O8    O     O_R   0.451810 0.503220 0.650420 -0.669586
O9    O     O_R   0.611560 0.646260 0.507420 -0.617667
O10   O     O_R   0.420090 0.658930 0.494720 -0.632140
O11   O     O_R   0.548190 0.496780 0.349580 -0.624856
O12   O     O_R   0.356720 0.509450 0.336880 -0.534993
O13   O     O_2   0.202390 0.259934 0.344730 -0.557797
Zn1   Zn    Zn3+2 0.627850 0.491540 0.508480 0.963359
Zn2   Zn    Zn3+2 0.372150 0.508460 0.491520 0.990251

loop_
_geom_bond_atom_site_label_1
_geom_bond_atom_site_label_2
_ccdc_geom_bond_type
C21   H23   S    
C19   C20   A    
C34   C42   A    
O11   Zn1   S    
C9    C14   A    
C32   N3    S    
C12   C23   A    
C29   H4    S    
C35   H15   S    
C1    C5    S    
C1    O1    A    
C28   C29   A    
C18   C37   S    
C4    O7    A    
O7    Zn1   S    
C26   C39   A    
O9    Zn1   S    
C18   N2    A    
C35   H16   S    
C18   C19   A    
H7    N3    S    
C32   H9    S    
C36   O3    D    
C33   O2    D    
C4    O8    A    
C8    C9    A    
C40   H24   S    
C25   O11   A    
C17   C36   S    
O1    Zn1   S    
C9    C10   A    
C3    C13   A    
O10   Zn2   S    
C8    H22   S    
C31   O13   D    
C13   C14   A    
C31   H6    S    
N1    Zn1   S    
C22   N3    S    
O6    Zn2   S    
C26   C43   A    
C15   C20   A    
C28   H2    S    
C7    C31   S    
C34   C39   A    
C39   C40   A    
C5    C7    A    
C38   O5    D    
C37   O4    D    
C42   H26   S    
C6    H20   S    
C11   C38   S    
C2    C4    S    
C43   H1    S    
C32   H8    S    
C29   C30   A    
C14   H21   S    
C25   O12   A    
C40   C41   A    
C17   N2    A    
C1    O6    A    
C22   C24   A    
C12   C34   A    
C32   H10   S    
O12   Zn2   S    
C33   H11   S    
C15   C17   A    
C35   N4    S    
H13   N4    S    
C12   C30   A    
C30   H3    S    
C36   H17   S    
C6    C10   A    
C5    C8    A    
C37   H18   S    
C6    C7    A    
C25   C27   S    
C23   C41   A    
C21   N1    A    
C35   H14   S    
C26   H25   S    
C19   C24   A    
C27   C42   A    
C41   H5    S    
C15   C33   S    
C16   O10   A    
C24   N4    S    
O8    Zn2   S    
C3    C11   A    
C10   C11   A    
N2    Zn2   S    
C27   C43   A    
C20   C21   A    
C16   O9    A    
C2    C23   A    
C2    C28   A    
C13   H12   S    
C22   N1    A    
C3    C16   S    
C38   H19   S    
