data_mof_unit_10982.cif
_audit_creation_date              2013-03-05T16:01:46-0500
_audit_creation_method            fapswitch 2.2
_symmetry_space_group_name_H-M    P1
_symmetry_Int_Tables_number       1
_space_group_crystal_system       triclinic
_cell_length_a                    14.98172
_cell_length_b                    14.188447
_cell_length_c                    11.499732
_cell_angle_alpha                 89.999778
_cell_angle_beta                  88.650135
_cell_angle_gamma                 89.962307
_cell_volume                      2443.78854053

loop_
_atom_site_label
_atom_site_type_symbol
_atom_site_description
_atom_site_fract_x
_atom_site_fract_y
_atom_site_fract_z
_atom_type_partial_charge
O1    O     O_R   0.367850 0.580280 0.500030 -0.596061
O2    O     O_R   0.632150 0.419720 0.499970 -0.584364
O3    O     O_R   0.632150 0.580280 0.499970 -0.595616
O4    O     O_R   0.367850 0.419720 0.500030 -0.584222
C1    C     C_R   0.327330 0.500196 0.500256 0.953170
C2    C     C_R   0.672674 0.500126 0.499608 0.953372
O5    O     O_R   0.500010 0.580270 0.334450 -0.585518
O6    O     O_R   0.499990 0.419730 0.665550 -0.594979
O7    O     O_R   0.499990 0.580270 0.665550 -0.585338
O8    O     O_R   0.500010 0.419730 0.334450 -0.595276
C3    C     C_R   0.500073 0.500004 0.282148 0.935462
C4    C     C_R   0.499847 0.500005 0.717855 0.935870
Zn1   Zn    Zn3+2 0.500000 0.607200 0.500000 1.071098
Zn2   Zn    Zn3+2 0.500000 0.392800 0.500000 1.072492
C5    C     C_1   0.500345 0.500076 0.161646 -0.034067
C6    C     C_1   0.499434 0.500083 0.838361 -0.034414
C7    C     C_1   0.500249 0.500195 0.059346 0.029962
C8    C     C_1   0.499437 0.500204 0.940665 0.029082
C9    C     C_R   0.815579 0.497005 0.395911 0.236864
C10   C     C_R   0.184398 0.497091 0.603906 0.236944
C11   C     C_R   0.768171 0.502397 0.502024 -0.153010
C12   C     C_R   0.231836 0.502683 0.497843 -0.153138
C13   C     C_R   0.810560 0.516734 0.608256 0.012559
C14   C     C_R   0.189462 0.517551 0.391695 0.012316
C15   C     C_R   0.904515 0.520425 0.607222 0.090540
C16   C     C_R   0.095489 0.520653 0.392608 0.090709
C17   C     C_R   0.952988 0.518597 0.499863 0.004974
C18   C     C_R   0.046990 0.518690 0.499928 0.004883
C19   C     C_R   0.907726 0.515137 0.392627 -0.020365
C20   C     C_R   0.092255 0.515322 0.607156 -0.020409
C21   C     C_R   0.950822 0.529489 0.711220 -0.214264
C22   C     C_R   0.049186 0.529227 0.288557 -0.213614
C23   C     C_R   0.043450 0.531106 0.713024 0.145942
C24   C     C_R   0.956547 0.530729 0.286712 0.145686
H1    H     H_    0.915551 0.536301 0.793557 0.152031
H2    H     H_    0.084474 0.535686 0.206195 0.152370
C25   C     C_R   0.547892 0.798232 0.416256 0.356358
C26   C     C_R   0.438986 0.201934 0.567810 0.338061
C27   C     C_R   0.452114 0.798297 0.583748 0.356403
C28   C     C_R   0.561026 0.201857 0.432207 0.337875
N1    N     N_R   0.500000 0.750030 0.500000 -0.215039
N2    N     N_R   0.500000 0.249970 0.500000 -0.217283
C29   C     C_R   0.445350 0.898889 0.580361 -0.196646
C30   C     C_R   0.558654 0.101144 0.424344 -0.192023
C31   C     C_R   0.554666 0.898815 0.419650 -0.196615
C32   C     C_R   0.441373 0.101221 0.575682 -0.192067
C33   C     C_R   0.500010 0.949492 0.500007 -0.008778
C34   C     C_R   0.500012 0.050594 0.500010 0.002118
C35   C     C_R   0.386882 0.950324 0.655855 0.258738
C36   C     C_R   0.613997 0.049392 0.345051 0.233570
C37   C     C_R   0.613141 0.950172 0.344164 0.258572
C38   C     C_R   0.386041 0.049545 0.654989 0.233489
N3    N     N_R   0.771582 0.461159 0.295624 0.202941
O9    O     O_R   0.705134 0.506507 0.251056 -0.398544
O10   O     O_R   0.796602 0.380871 0.250849 -0.297035
N4    N     N_R   0.228380 0.461175 0.704200 0.203302
O11   O     O_R   0.294806 0.506445 0.748801 -0.398676
O12   O     O_R   0.203143 0.381089 0.749235 -0.296925
C39   C     C_3   0.755980 0.522901 0.722342 -0.427134
C40   C     C_3   0.756955 0.428391 0.788044 -0.361938
C41   C     C_3   0.743584 0.442516 0.918785 -0.749266
H3    H     H_    0.802245 0.479575 0.954176 0.242283
H4    H     H_    0.682805 0.484934 0.937759 0.258603
H5    H     H_    0.736740 0.373018 0.962565 0.300576
H6    H     H_    0.702864 0.382558 0.755205 0.242429
H7    H     H_    0.821257 0.390622 0.772984 0.256647
H8    H     H_    0.780592 0.582110 0.775996 0.213555
H9    H     H_    0.685526 0.542724 0.708815 0.180059
C42   C     C_3   0.244123 0.525242 0.277856 -0.428596
C43   C     C_3   0.245199 0.431041 0.211480 -0.362574
C44   C     C_3   0.257433 0.446079 0.080746 -0.752542
H10   H     H_    0.197134 0.480477 0.045999 0.242860
H11   H     H_    0.316212 0.491318 0.061583 0.258581
H12   H     H_    0.267032 0.377129 0.036500 0.300980
H13   H     H_    0.300655 0.386608 0.243431 0.240914
H14   H     H_    0.181994 0.391473 0.226903 0.257423
H15   H     H_    0.218486 0.584153 0.224491 0.214220
H16   H     H_    0.314100 0.546550 0.291856 0.181932
C45   C     C_3   0.084940 0.561244 0.827182 -0.448628
C46   C     C_3   0.130123 0.657905 0.815405 -0.286490
C47   C     C_3   0.178794 0.684279 0.925870 -0.700046
H17   H     H_    0.131965 0.683466 0.002245 0.223109
H18   H     H_    0.234272 0.634113 0.940822 0.274232
H19   H     H_    0.207272 0.756160 0.916436 0.308965
H20   H     H_    0.178738 0.658154 0.741282 0.286261
H21   H     H_    0.078629 0.712280 0.798137 0.235880
H22   H     H_    0.033011 0.567718 0.897438 0.175010
H23   H     H_    0.130747 0.507616 0.860925 0.259817
C48   C     C_3   0.915065 0.560498 0.172374 -0.448446
C49   C     C_3   0.869687 0.657158 0.183659 -0.286098
C50   C     C_3   0.820933 0.683101 0.073074 -0.701223
H24   H     H_    0.867763 0.682127 0.996701 0.222893
H25   H     H_    0.765585 0.632796 0.058353 0.274325
H26   H     H_    0.792265 0.754965 0.082176 0.308756
H27   H     H_    0.821094 0.657635 0.257803 0.286465
H28   H     H_    0.921077 0.711641 0.200618 0.235760
H29   H     H_    0.967021 0.566823 0.102141 0.174926
H30   H     H_    0.869414 0.506715 0.138792 0.259743
N5    N     N_R   0.585365 0.746702 0.320273 0.245583
O13   O     O_R   0.660501 0.702089 0.330397 -0.340304
O14   O     O_R   0.548155 0.751169 0.219317 -0.338043
N6    N     N_R   0.368546 0.254031 0.623413 0.249868
O15   O     O_R   0.380271 0.292688 0.724383 -0.278889
O16   O     O_R   0.289158 0.252365 0.579961 -0.315371
N7    N     N_R   0.414642 0.746816 0.679731 0.245531
O17   O     O_R   0.339567 0.702200 0.669562 -0.340455
O18   O     O_R   0.451823 0.751266 0.780703 -0.338052
N8    N     N_R   0.631454 0.253875 0.376605 0.249856
O19   O     O_R   0.619732 0.292511 0.275613 -0.278803
O20   O     O_R   0.710825 0.252182 0.420109 -0.315547
N9    N     N_R   0.322886 0.903242 0.729996 0.249491
O21   O     O_R   0.330710 0.906830 0.842355 -0.283367
O22   O     O_R   0.248138 0.874531 0.686896 -0.337130
N10   N     N_R   0.669112 0.096009 0.259379 0.259507
O23   O     O_R   0.755511 0.094159 0.268331 -0.251215
O24   O     O_R   0.634840 0.119965 0.160763 -0.279365
N11   N     N_R   0.677131 0.903003 0.270013 0.249606
O25   O     O_R   0.669265 0.906559 0.157658 -0.283163
O26   O     O_R   0.751916 0.874262 0.313079 -0.336767
N12   N     N_R   0.330960 0.096235 0.740701 0.259573
O27   O     O_R   0.244554 0.094469 0.731843 -0.251032
O28   O     O_R   0.365287 0.120183 0.839269 -0.279204

loop_
_geom_bond_atom_site_label_1
_geom_bond_atom_site_label_2
_geom_bond_distance
_ccdc_geom_bond_type
C15   C21   1.402609 A    
C16   C22   1.402419 A    
C17   C19   1.422116 A    
C42   H15   1.110613 S    
N9    O21   1.301152 A    
C10   N4    1.435086 S    
O3    C2    1.288779 A    
Zn1   N1    2.026536 S    
C47   H17   1.111180 S    
C49   H27   1.108046 S    
C27   N1    1.370402 A    
C10   C20   1.403940 A    
N3    O9    1.300345 A    
N4    O11   1.300349 A    
C13   C39   1.531950 S    
N7    O18   1.301177 A    
O1    C1    1.288585 A    
C22   H2    1.077700 S    
C9    C11   1.399455 A    
C14   C16   1.408337 A    
C26   N2    1.369454 A    
N11   O26   1.300940 A    
C31   C37   1.420210 A    
C32   C38   1.421861 A    
N8    O19   1.299858 A    
C5    C7    1.176462 T    
C31   C33   1.415989 A    
C41   H4    1.108555 S    
O7    Zn1   1.941741 S    
C46   H21   1.111868 S    
C39   H8    1.110646 S    
C3    C5    1.385646 S    
C1    C12   1.431991 S    
C33   C34   1.434476 A    
N8    O20   1.301103 A    
C21   C23   1.388586 A    
C43   C44   1.525262 S    
C41   H3    1.109937 S    
O3    Zn1   2.016087 S    
C35   N9    1.433440 S    
C9    N3    1.435077 S    
C28   N2    1.369412 A    
C40   H7    1.112066 S    
C39   C40   1.539379 S    
C25   N1    1.370427 A    
C42   H16   1.106690 S    
O2    C2    1.292636 A    
C45   H22   1.112093 S    
C45   H23   1.101068 S    
C47   H18   1.110382 S    
N12   O28   1.300947 A    
C14   C42   1.531642 S    
N10   O23   1.301157 A    
N3    O10   1.301405 A    
C32   C34   1.417108 A    
N6    O15   1.299858 A    
C4    C6    1.385661 S    
O8    Zn2   1.941742 S    
C50   H24   1.111184 S    
C44   H11   1.107985 S    
C23   C45   1.526897 S    
C27   C29   1.431366 A    
C36   C37   1.407887 A    
C2    C11   1.432025 S    
C19   C24   1.423259 A    
C48   H29   1.112095 S    
C40   C41   1.525284 S    
C36   N10   1.432585 S    
C22   C24   1.388706 A    
C41   H5    1.110868 S    
O5    C3    1.287907 A    
C46   H20   1.108074 S    
C39   H9    1.106695 S    
C50   H25   1.110447 S    
N5    O13   1.298687 A    
C28   C30   1.432334 A    
O6    C4    1.288022 A    
C35   C38   1.407869 A    
C7    C8    1.365142 S    
N9    O22   1.300940 A    
N6    O16   1.301106 A    
C38   N12   1.432593 S    
N5    O14   1.301176 A    
C10   C12   1.399391 A    
C40   H6    1.112348 S    
C11   C13   1.404919 A    
C43   H14   1.111782 S    
C12   C14   1.404948 A    
O1    Zn1   2.016581 S    
C25   C31   1.431380 A    
C9    C19   1.404092 A    
C25   N5    1.427707 S    
C47   H19   1.110103 S    
N12   O27   1.301158 A    
C30   C36   1.421851 A    
C27   N7    1.427715 S    
O6    Zn2   1.941744 S    
C20   C23   1.422957 A    
C29   C35   1.420184 A    
C46   C47   1.526262 S    
C44   H12   1.110395 S    
N10   O24   1.300945 A    
C49   H28   1.111873 S    
C15   C17   1.417754 A    
N7    O17   1.298686 A    
C16   C18   1.417606 A    
Zn2   N2    2.026537 S    
C48   H30   1.101073 S    
C18   C20   1.421987 A    
C24   C48   1.526964 S    
C44   H10   1.109230 S    
C26   N6    1.426928 S    
N11   O25   1.301150 A    
C50   H26   1.110133 S    
C49   C50   1.526306 S    
O4    C1    1.292803 A    
C37   N11   1.433441 S    
N4    O12   1.301407 A    
C21   H1    1.077714 S    
C13   C15   1.408391 A    
O4    Zn2   2.016088 S    
C42   C43   1.539054 S    
O2    Zn2   2.016580 S    
O7    C4    1.287898 A    
C26   C32   1.432303 A    
O8    C3    1.288008 A    
C45   C46   1.534401 S    
C28   N8    1.426915 S    
O5    Zn1   1.941745 S    
C43   H13   1.111945 S    
C6    C8    1.176468 T    
C17   C18   1.408340 A    
C48   C49   1.534443 S    
C29   C33   1.416002 A    
C30   C34   1.417126 A    
