data_mof_unit_66718.cif
_audit_creation_date              2012-12-11T14:04:14-0500
_audit_creation_method            fapswitch 2.2
_symmetry_space_group_name_H-M    P1
_symmetry_Int_Tables_number       1
_space_group_crystal_system       triclinic
_cell_length_a                    20.416275
_cell_length_b                    22.570944
_cell_length_c                    8.492278
_cell_angle_alpha                 90.309511
_cell_angle_beta                  104.991027
_cell_angle_gamma                 89.824014
_cell_volume                      3780.11872668

loop_
_atom_site_label
_atom_site_type_symbol
_atom_type_description
_atom_site_fract_x
_atom_site_fract_y
_atom_site_fract_z
_atom_type_partial_charge
Ba1   Ba    Ba6+2 0.999900 0.456810 0.844860 1.628893
Ba2   Ba    Ba6+2 0.999900 0.543190 0.344860 1.633282
Ba3   Ba    Ba6+2 0.499900 0.956810 0.844860 1.626176
Ba4   Ba    Ba6+2 0.499900 0.043190 0.344860 1.632082
C1    C     C_3   0.977870 0.145958 0.538117 0.194039
C2    C     C_3   0.973694 0.810981 0.911839 0.191500
C3    C     C_3   0.472764 0.658774 0.472958 0.199696
C4    C     C_3   0.470095 0.325472 0.930682 0.170183
C5    C     C_R   0.114123 0.697356 0.853625 0.023723
C6    C     C_R   0.144757 0.323185 0.318040 0.020934
C7    C     C_R   0.614720 0.197568 0.849490 0.017056
C8    C     C_R   0.637015 0.817205 0.322700 0.012869
C9    C     C_R   0.151510 0.744447 0.940948 -0.134508
C10   C     C_R   0.200503 0.286791 0.381636 -0.141306
C11   C     C_R   0.650720 0.245466 0.936495 -0.131287
C12   C     C_R   0.695645 0.784074 0.383492 -0.146764
C13   C     C_R   0.206412 0.733710 0.079015 0.012561
C14   C     C_R   0.225030 0.278047 0.551133 0.022696
C15   C     C_R   0.702575 0.236365 0.082107 0.002234
C16   C     C_R   0.723508 0.777131 0.552147 0.021005
C17   C     C_R   0.204328 0.678158 0.158088 -0.129932
C18   C     C_R   0.202500 0.320393 0.652591 -0.163360
C19   C     C_R   0.697333 0.182331 0.165307 -0.127156
C20   C     C_R   0.702023 0.820108 0.653900 -0.160196
C21   C     C_R   0.154215 0.635309 0.089312 0.017731
C22   C     C_R   0.156587 0.366305 0.583099 0.008721
C23   C     C_R   0.650644 0.137397 0.091369 0.029448
C24   C     C_R   0.653144 0.864107 0.585452 0.022415
C25   C     C_R   0.802761 0.277518 0.302811 -0.152346
C26   C     C_R   0.816574 0.732789 0.779778 -0.157348
C27   C     C_R   0.303780 0.776923 0.300019 -0.156922
C28   C     C_R   0.315790 0.232478 0.781625 -0.161736
C29   C     C_R   0.860783 0.312620 0.359373 0.004094
C30   C     C_R   0.864482 0.689607 0.849981 0.006214
C31   C     C_R   0.359634 0.814130 0.359042 0.000948
C32   C     C_R   0.364581 0.189878 0.851017 0.000071
C33   C     C_R   0.839278 0.363423 0.098624 -0.006523
C34   C     C_R   0.837538 0.633569 0.598284 -0.002033
C35   C     C_R   0.339497 0.863401 0.096910 -0.003531
C36   C     C_R   0.338012 0.134103 0.598117 -0.005431
C37   C     C_R   0.786428 0.320366 0.031573 -0.025850
C38   C     C_R   0.782986 0.673508 0.528377 -0.000483
C39   C     C_R   0.287322 0.819886 0.028297 -0.024944
C40   C     C_R   0.282778 0.173646 0.529384 -0.000235
C41   C     C_R   0.763105 0.279869 0.138935 0.032453
C42   C     C_R   0.774853 0.727337 0.617985 0.032505
C43   C     C_R   0.265462 0.778219 0.135144 0.031367
C44   C     C_R   0.274705 0.227353 0.619023 0.031019
C45   C     C_3   0.985873 0.244809 0.076778 0.340717
C46   C     C_3   0.952611 0.745487 0.512945 0.372138
C47   C     C_3   0.478272 0.742526 0.049468 0.370611
C48   C     C_3   0.457565 0.250366 0.549415 0.418040
C49   C     C_R   0.876691 0.356232 0.259885 -0.255512
C50   C     C_R   0.876091 0.641995 0.757690 -0.259883
C51   C     C_R   0.375706 0.857394 0.259426 -0.258937
C52   C     C_R   0.377314 0.143115 0.756840 -0.265530
C53   C     C_3   0.955828 0.183575 0.075846 -0.431825
C54   C     C_3   0.903906 0.797500 0.468519 -0.381468
C55   C     C_3   0.444666 0.681881 0.014198 -0.403357
C56   C     C_3   0.413244 0.304334 0.492590 -0.396005
C57   C     C_3   0.246278 0.505105 0.164515 0.312601
C58   C     C_3   0.252350 0.490560 0.678111 0.310736
C59   C     C_3   0.747490 0.012753 0.142822 0.316902
C60   C     C_3   0.746178 0.988236 0.641950 0.322374
C61   C     C_3   0.314512 0.537527 0.235604 -0.179016
C62   C     C_3   0.310711 0.444809 0.735841 -0.206833
C63   C     C_3   0.805812 0.058821 0.176572 -0.215769
C64   C     C_3   0.807933 0.945085 0.681460 -0.212616
C65   C     C_3   0.747761 0.489521 0.019545 0.315875
C66   C     C_3   0.770243 0.485688 0.529447 0.334731
C67   C     C_3   0.248527 0.990391 0.021883 0.312246
C68   C     C_3   0.269178 0.986061 0.529879 0.326275
C69   C     C_3   0.694019 0.440127 0.985531 -0.424306
C70   C     C_3   0.705105 0.515948 0.545343 -0.374021
C71   C     C_3   0.193842 0.941916 0.991215 -0.417393
C72   C     C_3   0.205233 0.018242 0.546100 -0.361726
C73   C     C_3   0.989747 0.213246 0.553086 0.410816
C74   C     C_3   0.998525 0.780356 0.077539 0.384047
C75   C     C_3   0.491968 0.721501 0.536747 0.399265
C76   C     C_3   0.496643 0.280692 0.067968 0.396434
C77   C     C_R   0.113075 0.643832 0.932327 -0.242790
C78   C     C_R   0.124498 0.364179 0.417684 -0.252172
C79   C     C_R   0.612975 0.144406 0.930334 -0.251713
C80   C     C_R   0.616890 0.858511 0.422872 -0.255728
H1    H     H_    0.327158 0.534536 0.369080 0.109857
H2    H     H_    0.324701 0.440905 0.868558 0.100098
H3    H     H_    0.835157 0.057633 0.305806 0.101738
H4    H     H_    0.831190 0.943013 0.814229 0.105643
H5    H     H_    0.305980 0.585551 0.210684 0.042085
H6    H     H_    0.290980 0.400940 0.690101 0.046405
H7    H     H_    0.783679 0.103393 0.157910 0.049161
H8    H     H_    0.788872 0.899919 0.647763 0.050707
H9    H     H_    0.776419 0.488177 0.147840 0.084277
H10   H     H_    0.807192 0.487344 0.649215 0.103933
H11   H     H_    0.278050 0.989065 0.149344 0.087027
H12   H     H_    0.306322 0.986890 0.649303 0.106675
H13   H     H_    0.709770 0.403068 0.070716 0.083669
H14   H     H_    0.666789 0.517262 0.425868 0.110081
H15   H     H_    0.211538 0.902670 0.066225 0.082884
H16   H     H_    0.166960 0.020377 0.426643 0.117144
H17   H     H_    0.683974 0.424380 0.857839 0.120395
H18   H     H_    0.683647 0.493324 0.635962 0.102299
H19   H     H_    0.178002 0.929720 0.860364 0.122905
H20   H     H_    0.183000 0.996558 0.636760 0.102024
H21   H     H_    0.645213 0.455569 0.006735 0.103754
H22   H     H_    0.717059 0.561588 0.589208 0.079460
H23   H     H_    0.148167 0.957003 0.028649 0.105273
H24   H     H_    0.218920 0.063517 0.590398 0.077835
H25   H     H_    0.976716 0.230674 0.426707 -0.069047
H26   H     H_    0.030143 0.741248 0.064649 -0.013071
H27   H     H_    0.487926 0.749911 0.428137 -0.059272
H28   H     H_    0.519628 0.242475 0.018097 -0.021809
H29   H     H_    0.979490 0.127130 0.660199 0.037070
H30   H     H_    0.932860 0.843447 0.914750 0.044454
H31   H     H_    0.470051 0.629067 0.575740 0.016638
H32   H     H_    0.448900 0.365248 0.977792 0.045918
H33   H     H_    0.986170 0.157689 0.179785 0.184395
H34   H     H_    0.855808 0.782567 0.383353 0.104965
H35   H     H_    0.476564 0.647071 0.088118 0.190956
H36   H     H_    0.369145 0.304677 0.545975 0.069065
H37   H     H_    0.789695 0.248098 0.389408 0.063238
H38   H     H_    0.813315 0.770784 0.854702 0.065306
H39   H     H_    0.291010 0.746730 0.385415 0.063146
H40   H     H_    0.311765 0.270105 0.857210 0.063641
H41   H     H_    0.138681 0.788059 0.895924 0.137046
H42   H     H_    0.222331 0.265068 0.295668 0.075360
H43   H     H_    0.637757 0.288847 0.888666 0.130386
H44   H     H_    0.717927 0.764289 0.295775 0.074303
H45   H     H_    0.240667 0.667343 0.271090 0.045412
H46   H     H_    0.221033 0.319920 0.783480 0.088503
H47   H     H_    0.730346 0.173101 0.283968 0.057027
H48   H     H_    0.723810 0.821944 0.783729 0.085940
H49   H     H_    0.918368 0.386006 0.310507 0.066976
H50   H     H_    0.914879 0.610105 0.812674 0.069152
H51   H     H_    0.416476 0.887932 0.311092 0.068034
H52   H     H_    0.416832 0.111724 0.810831 0.069343
H53   H     H_    0.080200 0.608638 0.870856 0.069270
H54   H     H_    0.084408 0.395265 0.365293 0.075188
H55   H     H_    0.582497 0.108127 0.867137 0.066429
H56   H     H_    0.575378 0.888404 0.371854 0.074026
H57   H     H_    0.926482 0.137347 0.457367 0.033206
H58   H     H_    0.952331 0.776577 0.821061 0.006844
H59   H     H_    0.421288 0.659896 0.387717 0.056747
H60   H     H_    0.428002 0.305685 0.836859 0.026842
H61   H     H_    0.960035 0.266796 0.960429 0.116825
H62   H     H_    0.951108 0.719512 0.402144 0.139724
H63   H     H_    0.455993 0.771531 0.944074 0.113446
H64   H     H_    0.438694 0.214334 0.459888 0.093392
H65   H     H_    0.975982 0.270139 0.180882 -0.031027
H66   H     H_    0.934967 0.717058 0.599068 -0.037646
H67   H     H_    0.466621 0.761429 0.159885 -0.029706
H68   H     H_    0.452366 0.236443 0.670538 -0.061159
H69   H     H_    0.903090 0.187726 0.087524 0.068460
H70   H     H_    0.926419 0.832798 0.409739 0.136872
H71   H     H_    0.394545 0.682541 0.042702 0.065117
H72   H     H_    0.393671 0.303440 0.358302 0.140604
H73   H     H_    0.955672 0.160125 0.960415 0.117375
H74   H     H_    0.891803 0.815807 0.578893 0.077000
H75   H     H_    0.436817 0.670079 0.883634 0.110976
H76   H     H_    0.442868 0.345473 0.528126 0.126940
H77   H     H_    0.223866 0.523199 0.041233 0.031926
H78   H     H_    0.227652 0.483973 0.547236 0.058824
H79   H     H_    0.714517 0.020059 0.018926 0.058686
H80   H     H_    0.714256 0.977658 0.518493 0.052249
O1    O     O_2   0.866180 0.413660 0.823810 -0.469381
O2    O     O_2   0.866180 0.586340 0.323810 -0.445161
O3    O     O_2   0.366180 0.913660 0.823810 -0.468855
O4    O     O_2   0.366180 0.086340 0.323810 -0.444461
O5    O     O_3   0.204894 0.484890 0.771606 -0.640358
O6    O     O_3   0.204633 0.515304 0.269858 -0.639046
O7    O     O_3   0.708749 0.981961 0.759351 -0.651262
O8    O     O_3   0.709337 0.018245 0.259076 -0.649655
O9    O     O_3   0.055834 0.239974 0.091530 -0.619743
O10   O     O_3   0.019120 0.765194 0.581916 -0.605044
O11   O     O_3   0.548842 0.736983 0.072719 -0.610112
O12   O     O_3   0.525659 0.263983 0.558767 -0.580864
O13   O     O_3   0.077880 0.530130 0.092320 -0.464725
O14   O     O_3   0.077880 0.469870 0.592320 -0.464986
O15   O     O_3   0.577880 0.030130 0.092320 -0.469143
O16   O     O_3   0.577880 0.969870 0.592320 -0.472199
O17   O     O_3   0.922050 0.469730 0.097400 -0.462620
O18   O     O_3   0.922050 0.530270 0.597400 -0.476133
O19   O     O_3   0.422050 0.969730 0.097400 -0.463912
O20   O     O_3   0.422050 0.030270 0.597400 -0.475660
O21   O     O_3   0.976760 0.360270 0.628090 -0.465740
O22   O     O_3   0.976760 0.639730 0.128090 -0.473046
O23   O     O_3   0.476760 0.860270 0.628090 -0.464152
O24   O     O_3   0.476760 0.139730 0.128090 -0.466228
O25   O     O_2   0.870353 0.318983 0.685055 -0.493611
O26   O     O_2   0.861263 0.682072 0.169993 -0.507097
O27   O     O_2   0.370356 0.818413 0.691181 -0.499312
O28   O     O_2   0.362199 0.182809 0.174918 -0.498678
O29   O     O_3   0.793111 0.484780 0.919739 -0.632051
O30   O     O_3   0.794601 0.515765 0.413334 -0.652383
O31   O     O_3   0.292700 0.984466 0.919472 -0.633019
O32   O     O_3   0.294882 0.015151 0.414034 -0.652776
O33   O     O_3   0.947054 0.236513 0.644342 -0.637386
O34   O     O_3   0.942315 0.764128 0.135235 -0.644051
O35   O     O_3   0.447313 0.738324 0.630367 -0.638757
O36   O     O_3   0.443503 0.263597 0.135845 -0.632524
O37   O     O_2   0.133470 0.412980 0.865660 -0.454416
O38   O     O_2   0.133470 0.587020 0.365660 -0.457254
O39   O     O_2   0.633470 0.912980 0.865660 -0.448652
O40   O     O_2   0.633470 0.087020 0.365660 -0.458100
O41   O     O_3   0.022720 0.360150 0.061220 -0.487787
O42   O     O_3   0.022720 0.639850 0.561220 -0.492039
O43   O     O_3   0.522720 0.860150 0.061220 -0.490755
O44   O     O_3   0.522720 0.139850 0.561220 -0.489564
O45   O     O_2   0.130382 0.313230 0.979675 -0.492484
O46   O     O_2   0.122969 0.707129 0.528048 -0.508816
O47   O     O_2   0.630226 0.812259 0.988112 -0.493918
O48   O     O_2   0.627700 0.199293 0.525312 -0.508028
P1    P     P_3+3 0.859590 0.433890 0.993820 0.975250
P2    P     P_3+3 0.859590 0.566110 0.493820 0.964925
P3    P     P_3+3 0.359590 0.933890 0.993820 0.973497
P4    P     P_3+3 0.359590 0.066110 0.493820 0.966187
P5    P     P_3+3 0.140130 0.433190 0.695710 0.983260
P6    P     P_3+3 0.140130 0.566810 0.195710 0.986482
P7    P     P_3+3 0.640130 0.933190 0.695710 0.979967
P8    P     P_3+3 0.640130 0.066810 0.195710 0.976813
P9    P     P_3+3 0.090823 0.311083 0.111823 0.940341
P10   P     P_3+3 0.071304 0.702616 0.632998 0.922754
P11   P     P_3+3 0.586472 0.807202 0.111227 0.932296
P12   P     P_3+3 0.574552 0.200898 0.626583 0.938298
P13   P     P_3+3 0.912095 0.693287 0.066697 0.895200
P14   P     P_3+3 0.914770 0.306033 0.570632 0.903729
P15   P     P_3+3 0.412052 0.193234 0.068614 0.920596
P16   P     P_3+3 0.412815 0.808072 0.570651 0.909964
C81   C     C_3   0.064138 0.230187 0.635871 -0.130554
C82   C     C_3   0.099860 0.190277 0.777814 -0.359843
H81   H     H_    0.066669 0.181884 0.859436 0.168694
H82   H     H_    0.113606 0.146963 0.733340 0.124281
H83   H     H_    0.147472 0.211600 0.847738 0.138538
H84   H     H_    0.093509 0.230011 0.543550 0.063167
H85   H     H_    0.065685 0.276413 0.681353 0.133411
C83   C     C_3   0.043916 0.821690 0.205128 -0.119308
C84   C     C_3   0.011046 0.881996 0.220632 -0.420422
H86   H     H_    0.031951 0.900731 0.344473 0.115406
H87   H     H_    0.955319 0.878164 0.199799 0.133940
H88   H     H_    0.021420 0.913409 0.129821 0.142970
H89   H     H_    0.055932 0.799290 0.325138 0.145066
H90   H     H_    0.092980 0.828856 0.174178 0.098890
C85   C     C_3   0.565549 0.726985 0.641665 -0.146865
C86   C     C_3   0.587621 0.678872 0.770949 -0.368144
H91   H     H_    0.547467 0.670052 0.833538 0.167038
H92   H     H_    0.599272 0.636952 0.715159 0.087390
H93   H     H_    0.634115 0.693458 0.862402 0.145221
H94   H     H_    0.600290 0.726613 0.561286 0.076639
H95   H     H_    0.571358 0.770889 0.702902 0.144810
C87   C     C_3   0.552699 0.308819 0.204752 -0.127976
C88   C     C_3   0.528353 0.363895 0.280907 -0.400678
H96   H     H_    0.555750 0.367834 0.411509 0.148919
H97   H     H_    0.473527 0.362023 0.273774 0.147424
H98   H     H_    0.537288 0.404354 0.215600 0.105443
H99   H     H_    0.570809 0.275076 0.300441 0.153690
H100  H     H_    0.596942 0.320943 0.158169 0.093138
C89   C     C_3   0.375504 0.518418 0.170949 -0.222640
C90   C     C_3   0.440813 0.510795 0.306737 -0.417309
H101  H     H_    0.485487 0.515611 0.256008 0.137090
H102  H     H_    0.443796 0.543815 0.404613 0.144615
H103  H     H_    0.443375 0.466330 0.362548 0.112112
H104  H     H_    0.366346 0.476092 0.104926 0.110247
H105  H     H_    0.384476 0.552656 0.085573 0.119775
C91   C     C_3   0.375934 0.454224 0.679662 -0.245188
C92   C     C_3   0.431680 0.489628 0.797768 -0.439932
H106  H     H_    0.441771 0.471721 0.923082 0.135520
H107  H     H_    0.479236 0.486178 0.757831 0.119007
H108  H     H_    0.419044 0.537304 0.798239 0.126858
H109  H     H_    0.397188 0.409982 0.667126 0.114996
H110  H     H_    0.364705 0.474642 0.559155 0.121435
C93   C     C_3   0.853099 0.052890 0.062180 -0.244383
C94   C     C_3   0.924505 0.032326 0.148507 -0.446196
H111  H     H_    0.946673 0.062573 0.250469 0.176323
H112  H     H_    0.924190 0.986894 0.196404 0.126671
H113  H     H_    0.956949 0.032663 0.061887 0.130194
H114  H     H_    0.831769 0.021682 0.963027 0.135397
H115  H     H_    0.856672 0.096128 0.003925 0.123419
C95   C     C_3   0.862821 0.957020 0.589929 -0.233426
C96   C     C_3   0.930045 0.978235 0.701933 -0.439505
H116  H     H_    0.925043 0.023209 0.750337 0.125426
H117  H     H_    0.947703 0.947482 0.805809 0.146670
H118  H     H_    0.969087 0.979930 0.632092 0.120891
H119  H     H_    0.872948 0.915727 0.529354 0.117794
H120  H     H_    0.845074 0.989509 0.492057 0.120910
C97   C     C_3   0.710179 0.549541 0.987441 -0.184275
C98   C     C_3   0.755474 0.600193 0.962770 -0.311269
H121  H     H_    0.808253 0.592445 0.033375 0.183468
H122  H     H_    0.755266 0.603355 0.832948 0.086655
H123  H     H_    0.736712 0.642871 0.999266 0.104263
H124  H     H_    0.666792 0.546925 0.876969 0.088754
H125  H     H_    0.688710 0.559991 0.091874 0.071271
C99   C     C_3   0.760265 0.420482 0.469658 -0.175962
C100  C     C_3   0.692403 0.391671 0.463563 -0.484046
H126  H     H_    0.680622 0.393785 0.583478 0.127276
H127  H     H_    0.652537 0.414486 0.370264 0.141660
H128  H     H_    0.693773 0.344369 0.427788 0.142404
H129  H     H_    0.767859 0.416397 0.345493 0.088947
H130  H     H_    0.800391 0.393594 0.546328 0.137837
C101  C     C_3   0.211598 0.050699 0.989862 -0.183288
C102  C     C_3   0.257182 0.100877 0.963903 -0.313810
H131  H     H_    0.309984 0.092929 0.033976 0.180813
H132  H     H_    0.256798 0.103641 0.834001 0.085385
H133  H     H_    0.238689 0.143811 0.999681 0.103813
H134  H     H_    0.167861 0.048252 0.880111 0.091074
H135  H     H_    0.190583 0.061592 0.094713 0.070415
C103  C     C_3   0.256261 0.920894 0.469995 -0.180418
C104  C     C_3   0.187481 0.893908 0.467211 -0.476980
H136  H     H_    0.176532 0.897225 0.587829 0.129719
H137  H     H_    0.147336 0.916709 0.374335 0.141695
H138  H     H_    0.187445 0.846300 0.433446 0.139543
H139  H     H_    0.262525 0.916416 0.344674 0.092595
H140  H     H_    0.296009 0.892840 0.545029 0.129086
O49   O     O_3   0.026395 0.118527 0.471938 -0.787557
H141  H     H_    0.027942 0.076236 0.504194 0.292563
O50   O     O_3   0.027119 0.839530 0.867862 -0.759211
H142  H     H_    0.007076 0.858767 0.761529 0.323995
O51   O     O_3   0.518386 0.637596 0.387972 -0.774352
H143  H     H_    0.541856 0.602783 0.448218 0.292958
O52   O     O_3   0.522537 0.341418 0.860585 -0.761204
H144  H     H_    0.507839 0.377992 0.797321 0.305436
C105  C     C_3   0.761553 0.313443 0.848321 -0.179650
C106  C     C_3   0.779292 0.252133 0.791704 -0.315277
H145  H     H_    0.834187 0.242746 0.838857 0.143366
H146  H     H_    0.753096 0.216127 0.836926 0.094833
H147  H     H_    0.764836 0.249979 0.656561 0.131357
H148  H     H_    0.708241 0.324283 0.797986 0.066085
H149  H     H_    0.782091 0.347356 0.785802 0.164331
C107  C     C_3   0.733874 0.654491 0.366835 -0.231104
C108  C     C_3   0.659901 0.650206 0.372523 -0.401570
H150  H     H_    0.656360 0.643768 0.499124 0.137742
H151  H     H_    0.630431 0.689613 0.320909 0.187855
H152  H     H_    0.634837 0.612269 0.296893 0.139195
H153  H     H_    0.740872 0.679528 0.261628 0.119770
H154  H     H_    0.745256 0.609931 0.330980 0.146575
C109  C     C_3   0.258112 0.816865 0.844598 -0.182930
C110  C     C_3   0.270492 0.756798 0.771261 -0.310466
H155  H     H_    0.323436 0.741739 0.821557 0.139132
H156  H     H_    0.238159 0.721504 0.796197 0.104184
H157  H     H_    0.259319 0.760458 0.636734 0.132198
H158  H     H_    0.205044 0.830340 0.804632 0.069693
H159  H     H_    0.278787 0.851149 0.783343 0.162072
C111  C     C_3   0.232499 0.154309 0.369836 -0.237850
C112  C     C_3   0.158520 0.152197 0.377201 -0.392379
H160  H     H_    0.155167 0.143813 0.502931 0.162309
H161  H     H_    0.131598 0.193481 0.333415 0.170730
H162  H     H_    0.130961 0.116496 0.296313 0.143976
H163  H     H_    0.239347 0.178363 0.262888 0.122665
H164  H     H_    0.242776 0.109027 0.337045 0.142518
C113  C     C_3   0.250208 0.436906 0.148360 -0.112310
C114  C     C_3   0.292515 0.404152 0.295782 -0.478872
H165  H     H_    0.346339 0.416662 0.323128 0.134097
H166  H     H_    0.272005 0.411927 0.402353 0.131712
H167  H     H_    0.289510 0.356066 0.268172 0.124054
H168  H     H_    0.198294 0.419472 0.131900 0.144889
H169  H     H_    0.266703 0.423776 0.039691 0.074714
C115  C     C_3   0.280108 0.554362 0.703955 -0.161029
C116  C     C_3   0.225832 0.601606 0.700007 -0.295884
H170  H     H_    0.173604 0.583891 0.659455 0.174947
H171  H     H_    0.232034 0.619919 0.824523 0.052297
H172  H     H_    0.231664 0.638005 0.617410 0.122121
H173  H     H_    0.316449 0.557683 0.825462 0.087314
H174  H     H_    0.307550 0.565085 0.610879 0.058524
C117  C     C_3   0.777125 0.949081 0.149783 -0.159889
C118  C     C_3   0.736038 0.902787 0.210938 -0.307300
H175  H     H_    0.747608 0.904531 0.345625 0.080853
H176  H     H_    0.681100 0.910674 0.161000 0.164912
H177  H     H_    0.749717 0.858101 0.174273 0.102235
H178  H     H_    0.780325 0.935389 0.026613 0.090144
H179  H     H_    0.829138 0.946964 0.230712 0.072420
C119  C     C_3   0.768746 0.053866 0.640784 -0.164171
C120  C     C_3   0.723694 0.097730 0.701599 -0.293751
H180  H     H_    0.669395 0.085497 0.660666 0.171655
H181  H     H_    0.737955 0.099899 0.836476 0.059704
H182  H     H_    0.731004 0.141872 0.653533 0.114462
H183  H     H_    0.821084 0.060725 0.715608 0.067504
H184  H     H_    0.769420 0.066635 0.515523 0.098300

loop_
_geom_bond_atom_site_label_1
_geom_bond_atom_site_label_2
_ccdc_geom_bond_type
C106  H146  S    
C71   H23   S    
C91   H109  S    
O26   P13   D    
O5    P5    S    
Ba2   O38   S    
C60   H80   S    
O24   P15   S    
C45   O9    S    
C61   H5    S    
C116  H170  S    
C65   H9    S    
C111  H163  S    
C106  H147  S    
C64   C95   S    
Ba3   P3    S    
C93   C94   S    
C50   H50   S    
C25   C29   A    
Ba3   O39   S    
C86   H91   S    
C8    C80   A    
C81   H84   S    
C5    C9    A    
C7    C11   A    
C2    O50   S    
C8    C12   A    
C94   H111  S    
O10   P10   S    
C66   C70   S    
Ba2   O13   S    
C75   C85   S    
Ba3   O20   S    
C113  H169  S    
C68   C103  S    
C9    H41   S    
C69   H17   S    
Ba1   O37   S    
C23   P8    S    
C11   H43   S    
C18   H46   S    
C71   H19   S    
C21   P6    S    
O39   P7    D    
C34   P2    S    
C79   H55   S    
Ba4   O44   S    
O19   P3    S    
C30   P13   S    
C49   H49   S    
C58   C62   S    
C111  C112  S    
C105  H149  S    
C6    C78   A    
C13   C17   A    
Ba4   O4    S    
C25   C41   A    
O36   P15   S    
C66   C99   S    
C77   H53   S    
C8    P11   S    
C107  H153  S    
C12   C16   A    
O47   P11   D    
C76   H28   S    
C65   O29   S    
C103  C104  S    
C82   H82   S    
C30   C50   A    
C116  H172  S    
Ba4   O15   S    
C1    C73   S    
C102  H131  S    
C3    C75   S    
C3    O51   S    
C98   H123  S    
C1    H29   S    
C89   H105  S    
C110  H155  S    
Ba3   O23   S    
C68   O32   S    
O29   P1    S    
Ba1   O21   S    
C72   H16   S    
C73   C81   S    
C10   H42   S    
C86   H93   S    
C35   P3    S    
Ba3   O43   S    
Ba4   O24   S    
C60   O7    S    
C78   H54   S    
C98   H122  S    
C59   O8    S    
C94   H113  S    
C40   C111  S    
C64   H8    S    
C96   H117  S    
C114  H165  S    
C67   C101  S    
C4    H32   S    
C109  C110  S    
C68   H12   S    
C57   C61   S    
C93   H115  S    
C67   H11   S    
C74   C83   S    
C85   H94   S    
Ba2   P6    S    
O11   P11   S    
C74   O34   S    
C39   C43   A    
C120  H180  S    
O43   P11   S    
C113  C114  S    
O46   P10   D    
C117  H178  S    
O14   P5    S    
C90   H102  S    
C61   H1    S    
O3    P3    D    
C3    H59   S    
C119  C120  S    
Ba3   O3    S    
C70   H14   S    
C115  H173  S    
C58   C115  S    
C60   C64   S    
C2    C74   S    
C45   C53   S    
C83   C84   S    
C89   C90   S    
C2    H30   S    
C48   C56   S    
C69   H21   S    
C5    P10   S    
C91   C92   S    
Ba2   O42   S    
C47   H63   S    
O35   P16   S    
O8    P8    S    
C102  H133  S    
C1    O49   S    
C33   C49   A    
O33   P14   S    
C48   H64   S    
C76   C87   S    
C84   H86   S    
C108  H151  S    
C110  H157  S    
C52   H52   S    
C87   H100  S    
C93   H114  S    
C26   C30   A    
C4    O52   S    
C26   H38   S    
C74   H26   S    
C6    C10   A    
C101  H135  S    
C88   H98   S    
C36   C52   A    
Ba2   O17   S    
C83   H89   S    
Ba3   O16   S    
C100  H126  S    
Ba1   O14   S    
C67   O31   S    
C96   H116  S    
C120  H182  S    
C36   P4    S    
C71   H15   S    
C19   H47   S    
C73   H25   S    
C92   H107  S    
C17   H45   S    
O1    P1    D    
C105  C106  S    
C32   P15   S    
C95   H119  S    
C112  H161  S    
Ba3   Ba4   S    
C109  H159  S    
O48   P12   D    
C17   C21   A    
C91   H110  S    
O12   P12   S    
C14   C18   A    
C26   C42   A    
C13   C43   S    
C107  C108  S    
C14   C44   S    
C62   H2    S    
C15   C41   S    
O44   P12   S    
C97   H125  S    
C103  H139  S    
C118  H177  S    
C9    C13   A    
C104  H138  S    
O38   P6    D    
C90   H101  S    
C111  H164  S    
O22   P13   S    
O42   P10   S    
C86   H92   S    
Ba4   O19   S    
C33   C37   A    
C40   C44   A    
C36   C40   A    
C22   C78   A    
C84   H88   S    
C95   C96   S    
O16   P7    S    
C37   C105  S    
Ba2   O14   S    
C113  H168  S    
O7    P7    S    
C72   H20   S    
C65   C97   S    
O27   P16   D    
C85   H95   S    
C24   C80   A    
O45   P9    D    
C99   H130  S    
O25   P14   D    
O9    P9    S    
C38   C107  S    
C99   H129  S    
C88   H96   S    
C62   H6    S    
C11   C15   A    
O40   P8    D    
Ba4   P4    S    
C66   H10   S    
C100  H128  S    
C109  H158  S    
O32   P4    S    
O20   P4    S    
C59   C117  S    
C85   C86   S    
C38   C42   A    
C28   H40   S    
C107  H154  S    
C54   H70   S    
C55   H75   S    
O28   P15   D    
C35   C51   A    
Ba4   P8    S    
C25   H37   S    
C117  C118  S    
C65   C69   S    
C2    H58   S    
Ba2   O2    S    
O31   P3    S    
C119  H183  S    
C70   H18   S    
C63   C93   S    
C46   H62   S    
C106  H145  S    
C47   H67   S    
O50   H142  S    
C116  H171  S    
C27   C43   A    
C22   P5    S    
C28   C44   A    
Ba4   O16   S    
C62   C91   S    
C33   P1    S    
C102  H132  S    
C75   O35   S    
C31   P16   S    
C46   C54   S    
C20   C24   A    
C110  H156  S    
C29   P14   S    
C114  H167  S    
C7    C79   A    
C87   C88   S    
C53   H69   S    
C104  H136  S    
C81   H85   S    
C101  C102  S    
C56   H72   S    
C97   C98   S    
C32   C52   A    
C20   H48   S    
C34   C50   A    
C66   O30   S    
C63   H7    S    
C45   H61   S    
C114  H166  S    
C24   P7    S    
Ba1   P1    S    
C27   C31   A    
C28   C32   A    
C53   H33   S    
C58   O5    S    
C55   H35   S    
C7    P12   S    
O30   P2    S    
Ba1   O18   S    
C45   H65   S    
C115  H174  S    
C23   C79   A    
C37   C41   A    
O4    P4    D    
O49   H141  S    
C58   H78   S    
C118  H176  S    
C56   H36   S    
C82   H81   S    
C88   H97   S    
C27   H39   S    
O52   H144  S    
Ba3   P7    S    
C18   C22   A    
Ba1   P5    S    
C57   O6    S    
C73   O33   S    
C112  H160  S    
O15   P8    S    
C108  H150  S    
C10   C14   A    
C15   C19   A    
O13   P6    S    
C68   C72   S    
C118  H175  S    
C69   H13   S    
C81   C82   S    
C57   H77   S    
C99   C100  S    
C34   C38   A    
C98   H121  S    
Ba4   O40   S    
C83   H90   S    
C76   O36   S    
C54   H34   S    
C82   H83   S    
Ba1   Ba2   S    
C96   H118  S    
C3    H31   S    
Ba3   O15   S    
C6    P9    S    
Ba1   O13   S    
C117  H179  S    
C16   C20   A    
C89   H104  S    
C120  H181  S    
C72   H24   S    
C19   C23   A    
Ba1   O41   S    
C92   H106  S    
C21   C77   A    
O34   P13   S    
C48   H68   S    
C95   H120  S    
C29   C49   A    
C59   C63   S    
C31   C51   A    
C54   H74   S    
C55   H71   S    
C35   C39   A    
C97   H124  S    
C103  H140  S    
C104  H137  S    
C47   O11   S    
Ba2   O22   S    
C70   H22   S    
C46   H66   S    
C1    H57   S    
Ba1   O1    S    
C4    H60   S    
C12   H44   S    
O2    P2    D    
C94   H112  S    
C84   H87   S    
C64   H4    S    
C108  H152  S    
C57   C113  S    
C90   H103  S    
C47   C55   S    
C59   H79   S    
C4    C76   S    
C101  H134  S    
C87   H99   S    
C53   H73   S    
C61   C89   S    
C56   H76   S    
O17   P1    S    
Ba2   P2    S    
C63   H3    S    
C75   H27   S    
C46   O10   S    
O37   P5    D    
C100  H127  S    
C67   C71   S    
O23   P16   S    
C51   H51   S    
O21   P14   S    
O41   P9    S    
C115  C116  S    
C105  H148  S    
O51   H143  S    
C92   H108  S    
C16   C42   S    
C60   C119  S    
C80   H56   S    
C112  H162  S    
O18   P2    S    
C48   O12   S    
C39   C109  S    
C119  H184  S    
C5    C77   A    
O6    P6    S    
