data_mof_unit_30442.cif
_audit_creation_date              2012-12-10T17:03:57-0500
_audit_creation_method            fapswitch 2.2
_symmetry_space_group_name_H-M    P1
_symmetry_Int_Tables_number       1
_space_group_crystal_system       triclinic
_cell_length_a                    9.882198
_cell_length_b                    11.0365
_cell_length_c                    15.685898
_cell_angle_alpha                 96.182117
_cell_angle_beta                  78.371359
_cell_angle_gamma                 111.314122
_cell_volume                      1559.94214299

loop_
_atom_site_label
_atom_site_type_symbol
_atom_type_description
_atom_site_fract_x
_atom_site_fract_y
_atom_site_fract_z
_atom_type_partial_charge
C1    C     C_R   0.555971 0.745320 0.506616 0.858942
C2    C     C_R   0.443573 0.254669 0.494158 0.851070
C3    C     C_R   0.309497 0.361268 0.070871 0.430937
C4    C     C_R   0.665403 0.453912 0.914722 0.431634
C5    C     C_R   0.209448 0.340290 0.014784 -0.304388
C6    C     C_R   0.767270 0.483267 0.970419 -0.307940
C7    C     C_2   0.586763 0.884876 0.511148 -0.372234
C8    C     C_2   0.411837 0.115099 0.491295 -0.364886
C9    C     C_2   0.483366 0.930400 0.500846 -0.149540
C10   C     C_2   0.513395 0.069474 0.504681 -0.158530
C11   C     C_2   0.918809 0.480144 0.498283 0.386427
C12   C     C_2   0.079155 0.515824 0.505334 0.391729
C13   C     C_R   0.410336 0.482992 0.662956 0.771090
C14   C     C_R   0.589095 0.514764 0.336680 0.771116
C15   C     C_R   0.353642 0.454898 0.755733 -0.089287
C16   C     C_R   0.639821 0.515566 0.241384 -0.088046
C17   C     C_R   0.155053 0.358834 0.874090 -0.179359
C18   C     C_R   0.830199 0.533543 0.114237 -0.175390
C19   C     C_R   0.202853 0.394360 0.787443 -0.187479
C20   C     C_R   0.788670 0.545097 0.204171 -0.192515
C21   C     C_R   0.455154 0.476851 0.811422 -0.178064
C22   C     C_R   0.534596 0.482129 0.186706 -0.188522
C23   C     C_R   0.410934 0.428390 0.895609 0.083721
C24   C     C_R   0.571942 0.462493 0.096284 0.081327
C25   C     C_R   0.258002 0.376111 0.928470 0.083465
C26   C     C_R   0.723390 0.492797 0.060159 0.087543
C27   C     C_R   0.514585 0.436285 0.949130 -0.110828
C28   C     C_R   0.464517 0.420852 0.040377 -0.112618
Cu1   Cu    Cu3+1 0.362980 0.479380 0.485080 0.960004
Cu2   Cu    Cu3+1 0.637020 0.520620 0.514920 0.958541
H1    H     H_    0.092378 0.296604 0.039684 0.158672
H2    H     H_    0.882122 0.500120 0.942724 0.159621
H3    H     H_    0.424664 0.477293 0.215793 0.216844
H4    H     H_    0.568793 0.534477 0.788454 0.206106
H5    H     H_    0.873445 0.579985 0.243857 0.138693
H6    H     H_    0.122059 0.372499 0.745448 0.141483
H7    H     H_    0.037715 0.315293 0.898091 0.127566
H8    H     H_    0.946235 0.557444 0.086816 0.136823
H9    H     H_    0.620207 0.134930 0.518103 0.218595
H10   H     H_    0.375634 0.864874 0.488915 0.217294
H11   H     H_    0.305124 0.049264 0.478011 0.154307
H12   H     H_    0.694400 0.950800 0.522920 0.153334
H13   H     H_    0.100976 0.355812 0.441238 0.179251
H14   H     H_    0.900704 0.644010 0.558498 0.180257
N1    N     N_2   0.842890 0.551600 0.537350 -0.314775
N2    N     N_2   0.157110 0.448400 0.462650 -0.315394
O1    O     O_R   0.426810 0.668300 0.492040 -0.510806
O2    O     O_R   0.573190 0.331700 0.507960 -0.515820
O3    O     O_R   0.658240 0.703130 0.517240 -0.588396
O4    O     O_R   0.341760 0.296870 0.482760 -0.592375
O5    O     O_R   0.319390 0.472820 0.610170 -0.569764
O6    O     O_R   0.680610 0.527180 0.389830 -0.570592
O7    O     O_R   0.550820 0.507640 0.635370 -0.574475
O8    O     O_R   0.449180 0.492360 0.364630 -0.576032
O9    O     O_3   0.251555 0.318465 0.154575 -0.603375
C29   C     C_3   0.260957 0.194898 0.159435 0.052274
H15   H     H_    0.376469 0.196983 0.138595 0.144693
H16   H     H_    0.188493 0.121566 0.118114 0.147665
C30   C     C_3   0.209674 0.153323 0.253397 -0.788355
H17   H     H_    0.094114 0.149023 0.276268 0.245194
H18   H     H_    0.215157 0.055634 0.258262 0.197923
H19   H     H_    0.281726 0.224041 0.295832 0.257488
O10   O     O_3   0.715723 0.438100 0.826835 -0.601265
C31   C     C_3   0.684497 0.304066 0.806056 0.044131
H20   H     H_    0.564703 0.247040 0.825022 0.148257
H21   H     H_    0.749488 0.265785 0.839234 0.138942
C32   C     C_3   0.726887 0.284567 0.708143 -0.761953
H22   H     H_    0.846616 0.337088 0.686905 0.220739
H23   H     H_    0.701738 0.179336 0.690923 0.194137
H24   H     H_    0.663566 0.321915 0.673363 0.276112
O11   O     O_3   0.147862 0.627728 0.552425 -0.575987
C33   C     C_3   0.099171 0.608693 0.643015 0.087626
H25   H     H_    0.090101 0.511423 0.661179 0.146819
H26   H     H_    0.989531 0.617699 0.665700 0.135913
C34   C     C_3   0.206903 0.712727 0.692898 -0.752019
H27   H     H_    0.319632 0.709182 0.672666 0.242567
H28   H     H_    0.209643 0.810634 0.679909 0.235166
H29   H     H_    0.171599 0.696704 0.763877 0.197835
O12   O     O_3   0.848581 0.364782 0.454713 -0.577866
C35   C     C_3   0.891596 0.378204 0.363351 0.084884
H30   H     H_    0.997647 0.363335 0.338666 0.131751
H31   H     H_    0.905451 0.475831 0.343640 0.144018
C36   C     C_3   0.777224 0.274561 0.317266 -0.738742
H32   H     H_    0.668001 0.285570 0.336530 0.242848
H33   H     H_    0.811620 0.283641 0.245635 0.199410
H34   H     H_    0.767180 0.176171 0.334294 0.234840

loop_
_geom_bond_atom_site_label_1
_geom_bond_atom_site_label_2
_ccdc_geom_bond_type
C6    H2    S    
O9    C29   S    
C33   H26   S    
Cu2   N1    S    
C18   C26   A    
C15   C19   A    
C4    O10   S    
Cu1   O1    S    
Cu2   O2    S    
C3    C28   A    
C24   C26   A    
C19   H6    S    
C35   C36   S    
Cu1   O8    S    
C29   H15   S    
C7    H12   S    
C2    O4    A    
C13   O5    A    
C20   H5    S    
C3    O9    S    
C14   O6    A    
C23   C27   A    
C9    C10   S    
C18   C20   A    
C33   H25   S    
C30   H17   S    
C33   C34   S    
H13   N2    S    
C13   O7    A    
Cu1   O4    S    
Cu2   O7    S    
C30   H18   S    
C32   H22   S    
C31   C32   S    
C8    H11   S    
C35   H31   S    
C1    O1    A    
C21   H4    S    
C2    O2    A    
C9    H10   S    
O12   C35   S    
C10   H9    S    
C32   H23   S    
C12   N2    D    
C31   H21   S    
C34   H27   S    
Cu1   Cu2   S    
C36   H32   S    
C16   C20   A    
C17   H7    S    
C34   H28   S    
C11   O12   S    
C5    C25   A    
C4    C6    A    
C14   O8    A    
Cu2   O3    S    
C13   C15   S    
C14   C16   S    
C11   N1    D    
C4    C27   A    
H14   N1    S    
Cu1   O5    S    
C7    C9    D    
C22   H3    S    
Cu2   O6    S    
C30   H19   S    
C16   C22   A    
C36   H33   S    
C1    C7    S    
C12   O11   S    
C2    C8    S    
C24   C28   A    
C35   H30   S    
C3    C5    A    
C11   C12   S    
C29   C30   S    
Cu1   N2    S    
C32   H24   S    
C17   C25   A    
C31   H20   S    
C21   C23   A    
C18   H8    S    
O11   C33   S    
C6    C26   A    
C17   C19   A    
C29   H16   S    
C22   C24   A    
C23   C25   A    
C34   H29   S    
O10   C31   S    
C15   C21   A    
C36   H34   S    
C8    C10   D    
C27   C28   A    
C1    O3    A    
C5    H1    S    
