data_mof_unit_46734.cif
_audit_creation_date              2012-12-10T18:04:01-0500
_audit_creation_method            fapswitch 2.2
_symmetry_space_group_name_H-M    P1
_symmetry_Int_Tables_number       1
_space_group_crystal_system       triclinic
_cell_length_a                    10.781998
_cell_length_b                    9.521362
_cell_length_c                    10.817661
_cell_angle_alpha                 90.045571
_cell_angle_beta                  90.563292
_cell_angle_gamma                 89.875011
_cell_volume                      1110.4769278

loop_
_atom_site_label
_atom_site_type_symbol
_atom_type_description
_atom_site_fract_x
_atom_site_fract_y
_atom_site_fract_z
_atom_type_partial_charge
C1    C     C_R   0.262672 0.500154 0.500093 0.774123
C2    C     C_R   0.737416 0.499779 0.499743 0.769337
C3    C     C_R   0.423509 0.074513 0.421989 0.017891
C4    C     C_R   0.576303 0.074280 0.578223 0.026790
C5    C     C_R   0.423649 0.925704 0.421843 -0.018548
C6    C     C_R   0.576267 0.925450 0.578270 -0.009539
C7    C     C_R   0.494242 0.499754 0.262176 0.831664
C8    C     C_R   0.494521 0.500008 0.737653 0.833889
C9    C     C_R   0.489156 0.624207 0.063581 0.054380
C10   C     C_R   0.490835 0.624227 0.937002 0.054061
C11   C     C_R   0.474702 0.499567 0.129064 -0.177622
C12   C     C_R   0.475752 0.500187 0.870318 -0.182375
C13   C     C_R   0.437069 0.377143 0.064235 0.319912
C14   C     C_R   0.432398 0.379798 0.932835 0.316478
C15   C     C_3   0.588408 0.735007 0.932113 -0.417393
C16   C     C_3   0.586828 0.734958 0.072553 -0.395705
C17   C     C_R   0.063650 0.458983 0.391982 0.420090
C18   C     C_R   0.934971 0.456278 0.392599 0.428607
C19   C     C_R   0.871390 0.499275 0.499919 -0.306711
C20   C     C_R   0.128908 0.501165 0.499680 -0.303946
C21   C     C_R   0.935837 0.544043 0.607125 -0.060902
C22   C     C_R   0.066405 0.540265 0.608515 -0.069237
Cu1   Cu    Cu3+1 0.500000 0.640660 0.500000 0.949797
Cu2   Cu    Cu3+1 0.500000 0.359340 0.500000 1.007622
H1    H     H_    0.677034 0.696003 0.893654 0.219715
H2    H     H_    0.550529 0.834409 0.112355 0.204759
H3    H     H_    0.552990 0.834418 0.890930 0.206282
H4    H     H_    0.674548 0.695696 0.115224 0.212180
H5    H     H_    0.361964 0.130641 0.359749 0.173705
H6    H     H_    0.637437 0.130250 0.640885 0.134307
H7    H     H_    0.362488 0.869722 0.359208 0.137330
H8    H     H_    0.637374 0.869249 0.640966 0.134521
N1    N     N_R   0.500000 0.852070 0.500000 -0.166838
N2    N     N_R   0.500000 0.147940 0.500000 -0.168018
O1    O     O_R   0.319640 0.618740 0.499990 -0.590761
O2    O     O_R   0.680360 0.618740 0.500010 -0.577061
O3    O     O_R   0.319620 0.381170 0.499990 -0.558912
O4    O     O_R   0.680380 0.381170 0.500010 -0.578672
O5    O     O_R   0.499990 0.618810 0.319660 -0.593058
O6    O     O_R   0.500010 0.618810 0.680340 -0.603260
O7    O     O_R   0.499960 0.381240 0.319650 -0.532601
O8    O     O_R   0.500040 0.381240 0.680350 -0.527079
O9    O     O_3   0.410999 0.256420 0.129730 -0.721077
H9    H     H_    0.431257 0.173637 0.078196 0.326546
O10   O     O_3   0.387968 0.267489 0.864791 -0.708102
H10   H     H_    0.324818 0.217760 0.914064 0.345826
O11   O     O_3   0.121318 0.420230 0.283176 -0.646900
H11   H     H_    0.210726 0.442577 0.286674 0.319090
O12   O     O_3   0.875719 0.414687 0.284382 -0.659470
H12   H     H_    0.785511 0.432032 0.288806 0.311722
C23   C     C_2   0.864996 0.596047 0.715594 0.494735
H13   H     H_    0.776775 0.548770 0.738687 0.012547
O13   O     O_2   0.901929 0.695693 0.776693 -0.525145
C24   C     C_2   0.138921 0.567824 0.724291 0.495676
H14   H     H_    0.227593 0.621032 0.720733 0.057987
O14   O     O_2   0.102817 0.525680 0.824234 -0.492641

loop_
_geom_bond_atom_site_label_1
_geom_bond_atom_site_label_2
_ccdc_geom_bond_type
Cu1   O6    S    
C16   H4    S    
Cu1   N1    S    
Cu2   O4    S    
O9    H9    S    
C13   C14   A    
C11   C13   A    
C9    C10   A    
C2    O4    A    
C15   H3    S    
O11   H11   S    
C6    N1    A    
C1    O3    A    
C8    C12   S    
C13   O9    S    
C17   C18   A    
C12   C14   A    
C22   C24   S    
O10   H10   S    
C7    C11   S    
Cu2   O7    S    
C9    C11   A    
C3    H5    S    
C10   C12   A    
Cu1   O5    S    
C19   C21   A    
C9    C16   S    
C8    O8    A    
Cu2   O3    S    
C14   O10   S    
Cu1   O1    S    
C10   C15   S    
C7    O7    A    
C4    N2    A    
C16   H2    S    
C6    H8    S    
C24   O14   D    
C15   H1    S    
C15   C16   S    
Cu1   Cu2   S    
C23   H13   S    
Cu1   O2    S    
C5    N1    A    
C21   C23   S    
C17   C20   A    
Cu2   O8    S    
C23   O13   D    
C1    O1    A    
C4    C6    A    
C18   C19   A    
C2    O2    A    
O12   H12   S    
C7    O5    A    
C24   H14   S    
C1    C20   S    
C8    O6    A    
C3    N2    A    
C5    H7    S    
C2    C19   S    
C21   C22   A    
C4    H6    S    
C17   O11   S    
C18   O12   S    
C20   C22   A    
C3    C5    A    
Cu2   N2    S    
