data_mof_unit_31978.cif
_audit_creation_date              2012-12-10T21:19:09-0500
_audit_creation_method            fapswitch 2.2
_symmetry_space_group_name_H-M    P1
_symmetry_Int_Tables_number       1
_space_group_crystal_system       triclinic
_cell_length_a                    15.743758
_cell_length_b                    17.189932
_cell_length_c                    16.756638
_cell_angle_alpha                 90.341702
_cell_angle_beta                  90.289763
_cell_angle_gamma                 90.092297
_cell_volume                      4534.77339162

loop_
_atom_site_label
_atom_site_type_symbol
_atom_type_description
_atom_site_fract_x
_atom_site_fract_y
_atom_site_fract_z
_atom_type_partial_charge
C1    C     C_R   0.503965 0.352388 0.499805 0.937215
C2    C     C_R   0.499489 0.647424 0.500433 0.936927
C3    C     C_R   0.471976 0.776484 0.560355 0.101231
C4    C     C_R   0.573487 0.232229 0.443129 0.068765
C5    C     C_R   0.514451 0.730305 0.503747 -0.215738
C6    C     C_R   0.522613 0.269212 0.501602 -0.234927
C7    C     C_R   0.583419 0.759941 0.461250 -0.352441
C8    C     C_R   0.497941 0.228456 0.569881 -0.334733
C9    C     C_R   0.611006 0.835850 0.474943 0.479813
C10   C     C_R   0.524574 0.152335 0.582323 0.491848
C11   C     C_R   0.567338 0.882449 0.529677 -0.179130
C12   C     C_R   0.571936 0.115091 0.523040 -0.156466
C13   C     C_1   0.580757 0.964063 0.529742 0.092445
C14   C     C_1   0.582054 0.033238 0.527504 0.095491
C15   C     C_R   0.466423 0.434611 0.830660 0.100196
C16   C     C_R   0.560827 0.543383 0.168484 0.110829
C17   C     C_R   0.466683 0.437755 0.746531 -0.120657
C18   C     C_R   0.558499 0.543240 0.252663 -0.099788
C19   C     C_R   0.534712 0.560686 0.749709 0.622847
C20   C     C_R   0.443062 0.454594 0.251631 0.644417
C21   C     C_R   0.533770 0.560465 0.834196 -0.393518
C22   C     C_R   0.441940 0.455056 0.166936 -0.393757
C23   C     C_R   0.337604 0.500159 0.499780 0.910658
C24   C     C_R   0.662363 0.500767 0.500239 0.890554
C25   C     C_R   0.500093 0.496996 0.875716 0.039819
C26   C     C_R   0.501549 0.498895 0.124449 0.040514
C27   C     C_1   0.500294 0.497194 0.963540 0.067172
C28   C     C_1   0.500787 0.497882 0.036612 0.070464
C29   C     C_3   0.971374 0.440115 0.517056 0.433542
C30   C     C_3   0.029663 0.580990 0.482170 0.414859
C31   C     C_3   0.025763 0.458182 0.443031 -0.398364
C32   C     C_3   0.973597 0.563398 0.556112 -0.551471
C33   C     C_1   0.248934 0.502851 0.499178 -0.152126
C34   C     C_1   0.750908 0.505177 0.500920 -0.175549
C35   C     C_3   0.028250 0.490015 0.571202 0.420298
C36   C     C_3   0.971187 0.531500 0.428418 0.495904
C37   C     C_3   0.083243 0.508426 0.498114 -0.065962
C38   C     C_3   0.916524 0.512059 0.501198 -0.073819
C39   C     C_1   0.173857 0.505591 0.498521 0.071887
C40   C     C_1   0.825906 0.509095 0.501437 0.051792
C41   C     C_R   0.500824 0.851937 0.575894 0.422430
C42   C     C_R   0.598409 0.154791 0.454559 0.403019
H1    H     H_    0.048079 0.416060 0.397287 0.179800
H2    H     H_    0.951418 0.605540 0.601713 0.171026
H3    H     H_    0.558908 0.609938 0.867042 0.177239
H4    H     H_    0.394639 0.421415 0.134628 0.176623
H5    H     H_    0.617888 0.723290 0.419715 0.173631
H6    H     H_    0.457770 0.256030 0.614089 0.178980
H7    H     H_    0.440011 0.389920 0.712480 0.169784
H8    H     H_    0.603849 0.577874 0.286202 0.166641
N1    N     N_R   0.500020 0.500030 0.707230 -0.129337
N2    N     N_R   0.499980 0.499970 0.292770 -0.128244
O1    O     O_R   0.500000 0.389130 0.566570 -0.635176
O2    O     O_R   0.500000 0.610870 0.433430 -0.623398
O3    O     O_R   0.499990 0.389100 0.433480 -0.578115
O4    O     O_R   0.500010 0.610900 0.566520 -0.546788
O5    O     O_R   0.376780 0.500010 0.566530 -0.602406
O6    O     O_R   0.623220 0.499990 0.433470 -0.608976
O7    O     O_R   0.376780 0.499980 0.433450 -0.565961
O8    O     O_R   0.623220 0.500020 0.566550 -0.621515
Zn1   Zn    Zn3+2 0.500000 0.500020 0.588860 0.990915
Zn2   Zn    Zn3+2 0.500000 0.499980 0.411140 1.005579
O9    O     O_3   0.565095 0.624685 0.709395 -0.623732
C43   C     C_3   0.654314 0.628470 0.717236 0.078115
H9    H     H_    0.684219 0.570197 0.708339 0.141007
H10   H     H_    0.671752 0.651413 0.777373 0.139355
C44   C     C_3   0.689137 0.683596 0.653921 -0.297327
H11   H     H_    0.670710 0.661962 0.593662 0.221590
H12   H     H_    0.661539 0.742552 0.662290 0.207786
C45   C     C_3   0.785704 0.689000 0.658530 -1.020542
H13   H     H_    0.805815 0.714130 0.716856 0.274642
H14   H     H_    0.809556 0.726796 0.610023 0.257684
H15   H     H_    0.813942 0.630273 0.651446 0.268367
O10   O     O_3   0.382352 0.414001 0.294057 -0.621970
C46   C     C_3   0.384548 0.333345 0.276226 0.083866
H16   H     H_    0.399776 0.302004 0.332293 0.187089
H17   H     H_    0.433736 0.315729 0.231862 0.144045
C47   C     C_3   0.296894 0.306976 0.247080 -0.369503
H18   H     H_    0.248623 0.321787 0.292911 0.236411
H19   H     H_    0.280328 0.338010 0.191167 0.229632
C48   C     C_3   0.294641 0.219470 0.231352 -0.902509
H20   H     H_    0.341264 0.203515 0.184506 0.275947
H21   H     H_    0.230200 0.202205 0.210566 0.267607
H22   H     H_    0.309647 0.187210 0.286907 0.266871
O11   O     O_3   0.935216 0.367668 0.536923 -0.643150
C49   C     C_3   0.999004 0.310453 0.545820 0.112146
H23   H     H_    0.991839 0.284155 0.605829 0.159860
H24   H     H_    0.065435 0.333098 0.542540 0.147833
C50   C     C_3   0.986298 0.247179 0.482412 -0.359932
H25   H     H_    0.921857 0.221461 0.488697 0.231212
H26   H     H_    0.991155 0.273365 0.422122 0.228825
C51   C     C_3   0.052574 0.182972 0.490386 -0.951950
H27   H     H_    0.117492 0.207288 0.483226 0.269840
H28   H     H_    0.041893 0.138219 0.443351 0.274318
H29   H     H_    0.047611 0.154791 0.549667 0.267919
O12   O     O_3   0.065328 0.652216 0.457400 -0.647704
C52   C     C_3   0.082421 0.699807 0.524346 0.075213
H30   H     H_    0.119755 0.667893 0.570445 0.168617
H31   H     H_    0.021600 0.720447 0.550546 0.148758
C53   C     C_3   0.134115 0.770262 0.497817 -0.312667
H32   H     H_    0.198281 0.750779 0.478942 0.243727
H33   H     H_    0.102487 0.798073 0.445892 0.231624
C54   C     C_3   0.143015 0.830165 0.564944 -0.899246
H34   H     H_    0.079791 0.854011 0.580952 0.253664
H35   H     H_    0.184172 0.878767 0.545045 0.281540
H36   H     H_    0.172090 0.803291 0.618589 0.287120
O13   O     O_3   0.938563 0.549948 0.352163 -0.616782
C55   C     C_3   0.902609 0.625172 0.352911 0.094896
H37   H     H_    0.954020 0.669419 0.349760 0.192203
H38   H     H_    0.863753 0.636155 0.407255 0.120358
C56   C     C_3   0.845329 0.634139 0.279694 -0.315221
H39   H     H_    0.883341 0.624667 0.224752 0.248082
H40   H     H_    0.793979 0.589672 0.281278 0.244714
C57   C     C_3   0.805523 0.714969 0.276879 -0.925222
H41   H     H_    0.762049 0.723281 0.328141 0.264228
H42   H     H_    0.768361 0.721463 0.220908 0.298872
H43   H     H_    0.855653 0.760517 0.278395 0.261974
O14   O     O_3   0.064502 0.465702 0.644028 -0.637455
C58   C     C_3   0.001492 0.464790 0.703527 0.085354
H44   H     H_    0.944138 0.431809 0.683472 0.165661
H45   H     H_    0.983004 0.525405 0.719338 0.147474
C59   C     C_3   0.037397 0.425465 0.777853 -0.321167
H46   H     H_    0.056724 0.365025 0.762588 0.226833
H47   H     H_    0.094476 0.457827 0.799045 0.243907
C60   C     C_3   0.972002 0.423092 0.844711 -0.939935
H48   H     H_    0.952704 0.483032 0.861772 0.268385
H49   H     H_    0.000055 0.394309 0.897786 0.276484
H50   H     H_    0.915014 0.389653 0.825313 0.264454
O15   O     O_3   0.459214 0.897241 0.632131 -0.591117
C61   C     C_3   0.511958 0.908127 0.700198 0.114377
H51   H     H_    0.490951 0.962205 0.730777 0.195686
H52   H     H_    0.580181 0.916846 0.685102 0.098002
C62   C     C_3   0.502959 0.840307 0.758590 -0.362058
H53   H     H_    0.435478 0.834734 0.776861 0.259260
H54   H     H_    0.522657 0.785254 0.729126 0.253557
C63   C     C_3   0.558111 0.852690 0.832702 -0.936797
H55   H     H_    0.626132 0.856580 0.815819 0.260813
H56   H     H_    0.549985 0.802804 0.873786 0.281049
H57   H     H_    0.539279 0.906921 0.864310 0.269386
O16   O     O_3   0.642300 0.115929 0.395183 -0.598703
C64   C     C_3   0.729963 0.118139 0.413498 0.100056
H58   H     H_    0.743691 0.083641 0.468126 0.117501
H59   H     H_    0.752212 0.179153 0.423059 0.154416
C65   C     C_3   0.778966 0.082884 0.343637 -0.277343
H60   H     H_    0.761932 0.020384 0.337237 0.235429
H61   H     H_    0.760742 0.113000 0.287584 0.250245
C66   C     C_3   0.874754 0.090632 0.355679 -1.004264
H62   H     H_    0.893537 0.152895 0.354471 0.278724
H63   H     H_    0.908262 0.059653 0.306808 0.277041
H64   H     H_    0.894539 0.065071 0.413545 0.263975
I1    I     I_    0.361885 0.734927 0.620705 -0.351049
I2    I     I_    0.619031 0.289004 0.338283 -0.343900
O17   O     O_3   0.679635 0.865244 0.433775 -0.619293
C67   C     C_3   0.754626 0.838817 0.471450 0.052930
H65   H     H_    0.762055 0.774990 0.462147 0.137971
H66   H     H_    0.753789 0.851529 0.536880 0.128348
C68   C     C_3   0.830800 0.880797 0.435709 -0.305852
H67   H     H_    0.829092 0.875313 0.369620 0.237521
H68   H     H_    0.827286 0.943427 0.451826 0.219962
C69   C     C_3   0.914279 0.847603 0.466867 -0.992275
H69   H     H_    0.917193 0.852070 0.532981 0.262499
H70   H     H_    0.968154 0.880912 0.441543 0.273933
H71   H     H_    0.920549 0.785651 0.448705 0.268296
O18   O     O_3   0.496908 0.110908 0.648088 -0.628372
C70   C     C_3   0.534584 0.140816 0.718863 0.088370
H72   H     H_    0.497358 0.118252 0.769922 0.182054
H73   H     H_    0.531291 0.205433 0.723081 0.146898
C71   C     C_3   0.626783 0.113124 0.727881 -0.416354
H74   H     H_    0.629125 0.048709 0.723315 0.218280
H75   H     H_    0.666195 0.137783 0.679333 0.212531
C72   C     C_3   0.664385 0.138426 0.808021 -0.893811
H76   H     H_    0.663633 0.202860 0.813512 0.271258
H77   H     H_    0.731133 0.118095 0.812543 0.262023
H78   H     H_    0.627553 0.112797 0.857782 0.268201
I3    I     I_    0.414692 0.334699 0.885837 -0.421565
I4    I     I_    0.654283 0.611583 0.111102 -0.424728

loop_
_geom_bond_atom_site_label_1
_geom_bond_atom_site_label_2
_ccdc_geom_bond_type
O6    Zn2   S    
C30   C32   S    
C72   H76   S    
C70   H72   S    
C66   H62   S    
N1    Zn1   S    
C17   N1    A    
C8    H6    S    
C57   H41   S    
C18   N2    A    
O11   C49   S    
C23   O7    A    
C72   H77   S    
C33   C39   T    
C31   H1    S    
C34   C40   T    
O18   C70   S    
C66   H63   S    
C64   H59   S    
C47   H19   S    
C15   C25   A    
O3    Zn2   S    
C55   H37   S    
C7    C9    A    
C1    O1    A    
O14   C58   S    
C51   H27   S    
C30   O12   S    
C52   H31   S    
O1    Zn1   S    
C54   H35   S    
C68   H67   S    
C56   H39   S    
C19   O9    S    
C23   C33   S    
C29   C38   S    
C62   C63   S    
C12   C42   A    
O13   C55   S    
C45   H13   S    
C32   C38   S    
C50   H26   S    
C31   C36   S    
C67   H66   S    
C16   I4    S    
C71   H75   S    
C9    O17   S    
C24   O6    A    
C70   H73   S    
C38   C40   S    
C13   C14   T    
C36   O13   S    
C29   C31   S    
C56   C57   S    
C65   C66   S    
C53   H33   S    
C26   C28   S    
C48   H21   S    
C52   H30   S    
C21   H3    S    
C59   H46   S    
C58   H45   S    
C16   C26   A    
C4    I2    S    
C72   H78   S    
C45   H14   S    
O10   C46   S    
C42   O16   S    
C44   H11   S    
C43   C44   S    
C66   H64   S    
O16   C64   S    
C67   C68   S    
C4    C6    A    
C69   H71   S    
C2    O2    A    
C64   C65   S    
C17   H7    S    
C5    C7    A    
C49   H23   S    
C63   H55   S    
C6    C8    A    
O2    Zn2   S    
C63   H57   S    
C51   H29   S    
C48   H20   S    
C31   C37   S    
C30   C37   S    
O8    Zn1   S    
C44   H12   S    
C43   H10   S    
C61   H52   S    
C46   H16   S    
C32   C35   S    
C60   H50   S    
C9    C11   A    
C24   O8    A    
O12   C52   S    
C45   H15   S    
C51   H28   S    
C32   H2    S    
C20   O10   S    
C56   H40   S    
C16   C18   A    
C50   C51   S    
C46   H17   S    
C67   H65   S    
C10   C12   A    
C23   O5    A    
C65   H61   S    
C71   H74   S    
C22   H4    S    
C12   C14   S    
C70   C71   S    
C60   H48   S    
C61   C62   S    
C25   C27   S    
C59   H47   S    
C27   C28   T    
C48   H22   S    
C18   H8    S    
C63   H56   S    
C62   H54   S    
O15   C61   S    
C58   C59   S    
C15   C17   A    
C21   C25   A    
C3    C41   A    
O7    Zn2   S    
C10   O18   S    
C52   C53   S    
C1    C6    S    
C35   C37   S    
C47   H18   S    
C29   O11   S    
C8    C10   A    
C20   C22   A    
C65   H60   S    
C3    C5    A    
C49   C50   S    
C57   H42   S    
C58   H44   S    
O5    Zn1   S    
C15   I3    S    
C68   C69   S    
C7    H5    S    
C29   C35   S    
C3    I1    S    
C55   C56   S    
C30   C36   S    
C44   C45   S    
C69   H69   S    
C59   C60   S    
C36   C38   S    
C61   H51   S    
C50   H25   S    
C20   N2    A    
C2    O4    A    
C64   H58   S    
C43   H9    S    
C41   O15   S    
C11   C13   S    
C47   C48   S    
C62   H53   S    
C4    C42   A    
C53   H32   S    
C55   H38   S    
C11   C41   A    
C54   H36   S    
C49   H24   S    
C53   C54   S    
C1    O3    A    
C46   C47   S    
C24   C34   S    
C57   H43   S    
O9    C43   S    
C2    C5    S    
C19   N1    A    
C37   C39   S    
C68   H68   S    
C22   C26   A    
C54   H34   S    
C60   H49   S    
O4    Zn1   S    
C35   O14   S    
N2    Zn2   S    
C71   C72   S    
O17   C67   S    
C69   H70   S    
C19   C21   A    
