data_mof_unit_41127.cif
_audit_creation_date              2012-12-11T14:08:38-0500
_audit_creation_method            fapswitch 2.2
_symmetry_space_group_name_H-M    P1
_symmetry_Int_Tables_number       1
_space_group_crystal_system       triclinic
_cell_length_a                    28.206222
_cell_length_b                    7.190505
_cell_length_c                    17.18836
_cell_angle_alpha                 90.000429
_cell_angle_beta                  101.880257
_cell_angle_gamma                 90.000682
_cell_volume                      3411.41912991

loop_
_atom_site_label
_atom_site_type_symbol
_atom_type_description
_atom_site_fract_x
_atom_site_fract_y
_atom_site_fract_z
_atom_type_partial_charge
O1    O     O_R   0.000700 0.436510 0.857920 -0.533034
O2    O     O_R   0.999300 0.563490 0.142080 -0.533030
O3    O     O_R   0.999300 0.936510 0.642080 -0.533036
O4    O     O_R   0.000700 0.063490 0.357920 -0.533029
O5    O     O_R   0.930080 0.766380 0.721890 -0.542323
O6    O     O_R   0.069920 0.233620 0.278110 -0.542321
O7    O     O_R   0.069920 0.266380 0.778110 -0.542317
O8    O     O_R   0.930080 0.733620 0.221890 -0.542327
C1    C     C_R   0.910553 0.597526 0.709009 0.696415
C2    C     C_R   0.089447 0.402474 0.290993 0.696418
C3    C     C_R   0.089448 0.097527 0.790989 0.696411
C4    C     C_R   0.910553 0.902471 0.209001 0.696416
O9    O     O_R   0.996180 0.766230 0.862310 -0.543104
O10   O     O_R   0.003820 0.233770 0.137690 -0.543113
O11   O     O_R   0.003820 0.266230 0.637690 -0.543106
O12   O     O_R   0.996180 0.733770 0.362310 -0.543108
O13   O     O_R   0.065870 0.936460 0.783500 -0.539549
O14   O     O_R   0.934130 0.063540 0.216500 -0.539550
O15   O     O_R   0.934130 0.436460 0.716500 -0.539554
O16   O     O_R   0.065870 0.563540 0.283500 -0.539554
C5    C     C_R   0.998484 0.596459 0.894495 0.761558
C6    C     C_R   0.001516 0.403541 0.105505 0.761540
C7    C     C_R   0.001516 0.096458 0.605505 0.761551
C8    C     C_R   0.998484 0.903542 0.394495 0.761565
O17   O     O_3   0.022790 0.603020 0.723980 -0.377991
O18   O     O_3   0.977210 0.396980 0.276020 -0.377982
O19   O     O_3   0.977210 0.103020 0.776020 -0.377987
O20   O     O_3   0.022790 0.896980 0.223980 -0.377989
V1    V     V_3+5 0.995770 0.877900 0.754830 1.411677
V2    V     V_3+5 0.004230 0.122100 0.245170 1.411674
V3    V     V_3+5 0.004230 0.377900 0.745170 1.411677
V4    V     V_3+5 0.995770 0.622100 0.254830 1.411670
C9    C     C_2   0.001708 0.082688 0.519557 -0.330361
C10   C     C_2   0.998292 0.917312 0.480443 -0.330369
C11   C     C_2   0.998292 0.582688 0.980444 -0.330359
C12   C     C_2   0.001708 0.417312 0.019556 -0.330368
H1    H     H_    0.004504 0.211591 0.487857 0.153716
H2    H     H_    0.995496 0.788408 0.512142 0.153715
H3    H     H_    0.995496 0.711591 0.012144 0.153715
H4    H     H_    0.004504 0.288409 0.987856 0.153716
C13   C     C_R   0.684098 0.020541 0.032321 0.582489
C14   C     C_R   0.315900 0.979183 0.967496 0.582528
C15   C     C_R   0.315901 0.520900 0.467552 0.582522
C16   C     C_R   0.684096 0.479141 0.532462 0.582505
O21   O     O_2   0.714068 0.072957 0.984413 -0.514726
O22   O     O_2   0.285930 0.926537 0.015363 -0.514715
O23   O     O_2   0.285928 0.573645 0.515402 -0.514739
O24   O     O_2   0.714066 0.426454 0.484600 -0.514750
N1    N     N_R   0.702940 0.949218 0.106137 -0.559759
N2    N     N_R   0.297061 0.050703 0.893720 -0.559808
N3    N     N_R   0.297062 0.449295 0.393787 -0.559777
N4    N     N_R   0.702935 0.550709 0.606232 -0.559771
C17   C     C_R   0.673087 0.897753 0.155996 0.587665
C18   C     C_R   0.326907 0.102334 0.843880 0.587734
C19   C     C_R   0.326914 0.397551 0.343971 0.587703
C20   C     C_R   0.673084 0.602412 0.656055 0.587703
C21   C     C_R   0.777648 0.762760 0.147841 -0.078838
C22   C     C_R   0.222337 0.237252 0.852459 -0.078903
C23   C     C_R   0.222344 0.262778 0.352375 -0.078861
C24   C     C_R   0.777652 0.737218 0.647705 -0.078847
C25   C     C_R   0.828099 0.751068 0.172854 -0.193326
C26   C     C_R   0.171885 0.248963 0.827485 -0.193209
C27   C     C_R   0.171891 0.251068 0.327382 -0.193268
C28   C     C_R   0.828105 0.748927 0.672693 -0.193280
C29   C     C_R   0.833515 0.087064 0.169070 -0.191411
C30   C     C_R   0.166509 0.912869 0.830451 -0.191340
C31   C     C_R   0.166500 0.587110 0.330614 -0.191401
C32   C     C_R   0.833502 0.412899 0.669329 -0.191405
C33   C     C_R   0.783191 0.098284 0.144077 -0.084731
C34   C     C_R   0.216834 0.901632 0.855411 -0.084735
C35   C     C_R   0.216826 0.598348 0.355589 -0.084711
C36   C     C_R   0.783177 0.401661 0.644360 -0.084707
C37   C     C_R   0.754865 0.936448 0.132949 0.374873
C38   C     C_R   0.245138 0.063502 0.866926 0.375108
C39   C     C_R   0.245138 0.436502 0.366982 0.374936
C40   C     C_R   0.754861 0.563502 0.633034 0.374898
C41   C     C_R   0.602201 0.979971 0.054884 -0.044380
C42   C     C_R   0.397797 0.019917 0.944944 -0.044362
C43   C     C_R   0.397797 0.480045 0.445034 -0.044384
C44   C     C_R   0.602199 0.519955 0.554989 -0.044380
C45   C     C_R   0.633622 0.038862 0.005840 -0.031408
C46   C     C_R   0.366378 0.960892 0.993973 -0.031430
C47   C     C_R   0.366378 0.539170 0.494039 -0.031397
C48   C     C_R   0.633618 0.460853 0.505980 -0.031396
C49   C     C_R   0.614161 0.123724 0.933309 -0.124003
C50   C     C_R   0.385845 0.875941 0.066481 -0.123989
C51   C     C_R   0.385842 0.624185 0.566536 -0.124002
C52   C     C_R   0.614154 0.375841 0.433482 -0.123988
C53   C     C_R   0.622336 0.914259 0.131592 -0.048898
C54   C     C_R   0.377658 0.085771 0.868262 -0.048933
C55   C     C_R   0.377664 0.414103 0.368363 -0.048921
C56   C     C_R   0.622334 0.585873 0.631663 -0.048916
C57   C     C_R   0.856791 0.913249 0.183611 -0.052693
C58   C     C_R   0.143211 0.086742 0.816340 -0.052703
C59   C     C_R   0.143211 0.413262 0.316360 -0.052720
C60   C     C_R   0.856788 0.586739 0.683646 -0.052719
H5    H     H_    0.854106 0.215237 0.176712 0.135383
H6    H     H_    0.145935 0.784654 0.822482 0.135398
H7    H     H_    0.145916 0.715274 0.322746 0.135424
H8    H     H_    0.854088 0.284736 0.677140 0.135418
H9    H     H_    0.766139 0.233425 0.133296 0.122643
H10   H     H_    0.233903 0.766444 0.865862 0.122477
H11   H     H_    0.233892 0.733494 0.366147 0.122602
H12   H     H_    0.766113 0.266519 0.633752 0.122624
H13   H     H_    0.637454 0.182992 0.896908 0.177555
H14   H     H_    0.362557 0.816581 0.102868 0.177542
H15   H     H_    0.362553 0.683609 0.602905 0.177544
H16   H     H_    0.637442 0.316428 0.397110 0.177550
C61   C     C_R   0.480277 0.058735 0.919746 -0.002076
C62   C     C_R   0.519719 0.941184 0.080072 -0.002116
C63   C     C_R   0.519718 0.558875 0.580161 -0.002085
C64   C     C_R   0.480279 0.441121 0.419865 -0.002129
C65   C     C_R   0.468488 0.939858 0.049721 0.040959
C66   C     C_R   0.531512 0.059988 0.950088 0.040994
C67   C     C_R   0.531510 0.439825 0.450217 0.040964
C68   C     C_R   0.468487 0.560177 0.549808 0.040981
C69   C     C_R   0.449126 0.008553 0.971886 0.068542
C70   C     C_R   0.550871 0.991332 0.027932 0.068542
C71   C     C_R   0.550870 0.508602 0.528039 0.068548
C72   C     C_R   0.449127 0.491397 0.471986 0.068553
C73   C     C_R   0.458220 0.096219 0.838392 -0.030569
C74   C     C_R   0.541768 0.903804 0.161438 -0.030644
C75   C     C_R   0.541768 0.596399 0.661512 -0.030616
C76   C     C_R   0.458229 0.403589 0.338514 -0.030655
C77   C     C_R   0.408152 0.120679 0.815512 -0.154199
C78   C     C_R   0.591836 0.879429 0.184343 -0.154179
C79   C     C_R   0.591836 0.620849 0.684400 -0.154201
C80   C     C_R   0.408163 0.379117 0.315627 -0.154151
O25   O     O_2   0.307585 0.166546 0.770424 -0.514373
O26   O     O_2   0.692402 0.833771 0.229494 -0.514425
O27   O     O_2   0.692400 0.666667 0.729506 -0.514399
O28   O     O_2   0.307599 0.333243 0.270528 -0.514409
C81   C     C_R   0.564322 0.140757 0.907697 -0.157284
C82   C     C_R   0.435686 0.858980 0.092096 -0.157261
C83   C     C_R   0.435683 0.641117 0.592164 -0.157258
C84   C     C_R   0.564313 0.358890 0.407860 -0.157271
H17   H     H_    0.155424 0.385234 0.817331 0.133360
H18   H     H_    0.844544 0.614853 0.183361 0.133450
H19   H     H_    0.844561 0.885147 0.683016 0.133428
H20   H     H_    0.155433 0.114844 0.317113 0.133415
H21   H     H_    0.243691 0.363567 0.861206 0.125369
H22   H     H_    0.756279 0.636475 0.139405 0.125533
H23   H     H_    0.756287 0.863486 0.639108 0.125513
H24   H     H_    0.243707 0.136509 0.361026 0.125493
H25   H     H_    0.392662 0.155784 0.754124 0.172573
H26   H     H_    0.607321 0.844423 0.245744 0.172580
H27   H     H_    0.607321 0.655988 0.745786 0.172592
H28   H     H_    0.392678 0.343965 0.254243 0.172588
H29   H     H_    0.552577 0.226732 0.856121 0.153179
H30   H     H_    0.447442 0.772983 0.143664 0.153188
H31   H     H_    0.447440 0.727139 0.643725 0.153202
H32   H     H_    0.552557 0.272862 0.356300 0.153193
C85   C     C_1   0.483435 0.082139 0.773344 0.309937
N5    N     N_1   0.503240 0.070492 0.720851 -0.359226
C86   C     C_1   0.516536 0.917913 0.226466 0.310065
N6    N     N_1   0.496716 0.929584 0.278940 -0.359189
C87   C     C_1   0.516542 0.582305 0.726547 0.310006
N7    N     N_1   0.496728 0.570636 0.779029 -0.359140
C88   C     C_1   0.483455 0.417702 0.273478 0.310101
N8    N     N_1   0.503269 0.429387 0.220996 -0.359150

loop_
_geom_bond_atom_site_label_1
_geom_bond_atom_site_label_2
_ccdc_geom_bond_type
O17   V3    S    
C47   C51   A    
N1    C17   A    
C22   C26   A    
C87   N7    T    
O19   V1    S    
O13   V1    S    
C27   H20   S    
O1    C5    A    
O3    C7    A    
C11   C12   D    
C14   C46   A    
C44   C48   A    
O4    V2    S    
O15   V3    S    
C62   C70   A    
C78   H26   S    
C61   C69   A    
C68   C83   A    
C42   C54   A    
O7    C3    A    
C41   C53   A    
C32   C60   A    
C73   C85   S    
C21   H22   S    
C63   C71   A    
N3    C39   S    
C18   C54   A    
N2    C38   S    
C24   H23   S    
C14   O22   S    
C52   H16   S    
C25   C57   A    
C25   H18   S    
C31   C35   A    
C67   C84   A    
C82   H30   S    
C76   C88   S    
C27   C59   A    
O1    V3    S    
C15   C47   A    
O2    V4    S    
C74   C86   S    
C21   C37   A    
O3    V1    S    
C34   C38   A    
C19   C55   A    
C73   C77   A    
C1    O15   A    
C2    O16   A    
C7    C9    S    
O2    C6    A    
C33   C37   A    
C63   C68   A    
O14   V2    S    
C79   H27   S    
C43   C55   A    
C31   H7    S    
C76   C80   A    
C16   N4    A    
O11   C7    A    
C44   C71   A    
O12   C8    A    
C31   C59   A    
C50   H14   S    
O10   V2    S    
C49   H13   S    
C13   N1    A    
C84   H32   S    
C50   C82   A    
O5    V1    S    
C53   C78   A    
O7    V3    S    
C55   C80   A    
C63   C75   A    
O8    V4    S    
C51   C83   A    
C12   H4    S    
C42   C69   A    
C81   H29   S    
C28   C60   A    
C41   C70   A    
C64   C72   A    
O18   V4    S    
C80   H28   S    
C75   C87   S    
N4    C40   S    
C46   C50   A    
O11   V3    S    
C24   C40   A    
C8    C10   S    
C68   C72   A    
C32   C36   A    
C74   C78   A    
C11   H3    S    
C32   H8    S    
O5    C1    A    
C54   C77   A    
C42   C46   A    
C75   C79   A    
C88   N8    T    
C1    C60   S    
C41   C45   A    
O8    C4    A    
C13   C45   A    
C43   C72   A    
C9    C10   D    
O9    C5    A    
C36   C40   A    
N2    C18   A    
C21   C25   A    
C44   C56   A    
C62   C65   A    
C52   C84   A    
C66   C70   A    
C61   C66   A    
C14   N2    A    
C65   C69   A    
C3    C58   S    
O6    V2    S    
C23   H24   S    
C67   C71   A    
C65   C82   A    
C26   C58   A    
C17   C53   A    
N1    C37   S    
C4    C57   S    
C56   C79   A    
C23   C39   A    
C6    C12   S    
C22   C38   A    
O16   V4    S    
O9    V1    S    
C83   H31   S    
C18   O25   S    
C35   H11   S    
C3    O13   A    
C10   H2    S    
C48   C52   A    
C17   O26   S    
C16   C48   A    
O6    C2    A    
C34   H10   S    
C64   C76   A    
C5    C11   S    
C33   H9    S    
O12   V4    S    
C36   H12   S    
C23   C27   A    
C30   C58   A    
C24   C28   A    
O10   C6    A    
O20   V2    S    
C30   H6    S    
C29   H5    S    
C77   H25   S    
C62   C74   A    
C35   C39   A    
C22   H21   S    
C15   N3    A    
C30   C34   A    
C2    C59   S    
O4    C8    A    
C29   C33   A    
C29   C57   A    
C66   C81   A    
N3    C19   A    
C26   H17   S    
C9    H1    S    
C20   O27   S    
C43   C47   A    
N4    C20   A    
C20   C56   A    
C51   H15   S    
C19   O28   S    
C4    O14   A    
C86   N6    T    
C13   O21   S    
C61   C73   A    
C85   N5    T    
C15   O23   S    
C64   C67   A    
C45   C49   A    
C16   O24   S    
C49   C81   A    
C28   H19   S    
