data_mof_unit_28055.cif
_audit_creation_date              2012-10-26T20:18:10-0400
_audit_creation_method            fapswitch 2.2
_symmetry_space_group_name_H-M    P1
_symmetry_Int_Tables_number       1
_space_group_crystal_system       triclinic
_cell_length_a                    23.483783
_cell_length_b                    8.66157
_cell_length_c                    7.440303
_cell_angle_alpha                 103.216147
_cell_angle_beta                  94.287353
_cell_angle_gamma                 92.28314
_cell_volume                      1466.67091891

loop_
_atom_site_label
_atom_site_type_symbol
_atom_type_description
_atom_site_fract_x
_atom_site_fract_y
_atom_site_fract_z
_atom_type_partial_charge
C1    C     C_R   0.498269 0.199552 0.452991 0.553831
C2    C     C_R   0.696775 0.480731 0.324717 -0.140091
C3    C     C_R   0.234174 0.486475 0.343690 -0.060654
C4    C     C_R   0.756110 0.480125 0.322328 -0.058036
C5    C     C_R   0.209309 0.501963 0.511323 0.246315
C6    C     C_R   0.790726 0.499093 0.488323 0.242229
C7    C     C_2   0.497442 0.031440 0.426616 -0.149521
C8    C     C_2   0.502541 0.968559 0.573385 -0.149315
C9    C     C_R   0.390943 0.499865 0.502267 0.551071
C10   C     C_R   0.609058 0.500222 0.497737 0.552840
C11   C     C_R   0.883218 0.639404 0.543057 0.380440
C12   C     C_R   0.501724 0.800447 0.547009 0.554228
C13   C     C_R   0.116961 0.360878 0.456157 0.378816
C14   C     C_R   0.876511 0.357224 0.433452 0.422554
C15   C     C_R   0.123348 0.643148 0.564372 0.418348
C16   C     C_R   0.936688 0.352647 0.437382 0.047171
C17   C     C_R   0.063294 0.646945 0.560369 0.039413
C18   C     C_R   0.969907 0.498469 0.495988 -0.096888
C19   C     C_R   0.030119 0.501038 0.502249 -0.093858
C20   C     C_R   0.942903 0.642380 0.547636 -0.028938
C21   C     C_R   0.057162 0.357471 0.450242 -0.027833
C22   C     C_R   0.964085 0.207836 0.384435 0.261137
C23   C     C_R   0.243768 0.516754 0.676884 -0.068548
C24   C     C_R   0.035645 0.790938 0.612607 0.233285
C25   C     C_R   0.024437 0.213160 0.394674 -0.135666
C26   C     C_R   0.975720 0.786539 0.602571 -0.138232
C27   C     C_3   0.954427 0.942435 0.211635 0.012764
C28   C     C_3   0.907703 0.813091 0.124899 -0.230448
C29   C     C_3   0.933270 0.658454 0.032408 -0.480935
C30   C     C_3   0.060998 0.018311 0.836977 0.027911
C31   C     C_3   0.097506 0.174929 0.884473 -0.231604
C32   C     C_3   0.161149 0.149683 0.871477 -0.325821
C33   C     C_R   0.765977 0.518824 0.656666 -0.053452
C34   C     C_R   0.303109 0.515910 0.674659 -0.146292
C35   C     C_R   0.706794 0.519098 0.659480 -0.135254
C36   C     C_R   0.328406 0.500451 0.506449 0.006934
C37   C     C_R   0.671601 0.500009 0.493509 0.006560
C38   C     C_R   0.293338 0.485704 0.340954 -0.141951
Cu1   Cu    Cu3+1 0.506340 0.517380 0.684380 0.960841
Cu2   Cu    Cu3+1 0.493660 0.482620 0.315620 0.959779
H1    H     H_    0.046473 0.104469 0.362050 0.174714
H2    H     H_    0.775249 0.465354 0.191898 0.117559
H3    H     H_    0.492648 0.959180 0.285478 0.135331
H4    H     H_    0.507334 0.040818 0.714523 0.135518
H5    H     H_    0.454838 0.379048 0.948544 0.238035
H6    H     H_    0.545160 0.620954 0.051456 0.239316
H7    H     H_    0.988455 0.888884 0.284951 0.149354
H8    H     H_    0.972334 0.987667 0.098155 0.099659
H9    H     H_    0.880750 0.789355 0.233124 0.221379
H10   H     H_    0.879809 0.854727 0.020302 0.200941
H11   H     H_    0.964116 0.680518 0.934042 0.152915
H12   H     H_    0.954717 0.897361 0.633687 0.191931
H13   H     H_    0.898676 0.571957 0.955906 0.158127
H14   H     H_    0.955936 0.606011 0.138473 0.154277
H15   H     H_    0.074417 0.944985 0.936219 0.137199
H16   H     H_    0.016144 0.050212 0.855366 0.094053
H17   H     H_    0.083263 0.250579 0.789640 0.170443
H18   H     H_    0.090904 0.239328 0.028040 0.127353
H19   H     H_    0.175998 0.071759 0.962973 0.179714
H20   H     H_    0.185817 0.265981 0.915847 0.103400
H21   H     H_    0.169598 0.095728 0.726419 0.252281
H22   H     H_    0.224520 0.528475 0.806789 0.109469
H23   H     H_    0.792699 0.533551 0.785223 0.113422
H24   H     H_    0.329059 0.527298 0.804130 0.127925
H25   H     H_    0.688698 0.534291 0.791671 0.129641
H26   H     H_    0.311515 0.473719 0.209227 0.126194
H27   H     H_    0.670726 0.465994 0.194861 0.130141
H28   H     H_    0.207521 0.475515 0.215701 0.109224
N1    N     N_R   0.851602 0.498643 0.486745 -0.413905
N2    N     N_R   0.148438 0.501926 0.512403 -0.407269
N3    N     N_2   0.484110 0.456420 0.038520 -0.258265
N4    N     N_2   0.515890 0.543580 0.961480 -0.257716
O1    O     O_R   0.504120 0.286130 0.619770 -0.503841
O2    O     O_2   0.143646 0.224332 0.405970 -0.506395
O3    O     O_2   0.842825 0.222228 0.378033 -0.415544
O4    O     O_2   0.156700 0.778651 0.618843 -0.459487
O5    O     O_3   0.930686 0.064793 0.339135 -0.505697
O6    O     O_3   0.066664 0.936391 0.652111 -0.517081
O7    O     O_R   0.495880 0.713870 0.380230 -0.503894
O8    O     O_R   0.493410 0.256770 0.308360 -0.494804
O9    O     O_R   0.506590 0.743230 0.691640 -0.494435
O10   O     O_R   0.423230 0.514630 0.655730 -0.507259
O11   O     O_R   0.576770 0.485370 0.344270 -0.506364
O12   O     O_R   0.412530 0.485280 0.344320 -0.503316
O13   O     O_R   0.587470 0.514720 0.655680 -0.502049
O14   O     O_2   0.856761 0.776175 0.594600 -0.485328

loop_
_geom_bond_atom_site_label_1
_geom_bond_atom_site_label_2
_ccdc_geom_bond_type
C27   H8    S    
C6    N1    S    
C10   O13   A    
Cu2   N3    S    
H5    N3    S    
Cu2   O12   S    
C3    H28   S    
C4    H2    S    
C7    C8    D    
C29   H13   S    
C10   C37   S    
C31   H18   S    
C28   C29   S    
C19   C21   A    
C24   C26   A    
C32   H21   S    
C30   C31   S    
C13   N2    A    
C35   H25   S    
C11   O14   S    
C12   O7    A    
C10   O11   A    
C18   C19   A    
C33   C35   A    
C28   H10   S    
C23   H22   S    
C38   H26   S    
C3    C38   A    
C22   C25   A    
C9    C36   S    
Cu1   N4    S    
Cu2   O8    S    
C7    H3    S    
H6    N4    S    
C8    C12   S    
C9    O10   A    
C15   O4    S    
Cu2   O11   S    
C11   C20   A    
C17   C24   A    
Cu1   O9    S    
C4    C6    A    
C2    H27   S    
C25   H1    S    
Cu1   Cu2   S    
C3    C5    A    
C30   H16   S    
C2    C4    A    
C5    N2    S    
C26   H12   S    
C28   H9    S    
C31   C32   S    
C5    C23   A    
C33   H23   S    
C23   C34   A    
C34   H24   S    
Cu2   O7    S    
C13   C21   A    
C24   O6    S    
C14   N1    A    
C14   C16   A    
Cu1   O13   S    
C29   H11   S    
C27   H7    S    
C15   C17   A    
C15   N2    A    
C21   C25   A    
C16   C22   A    
Cu1   O10   S    
C35   C37   A    
C1    C7    S    
C8    H4    S    
C22   O5    S    
C27   O5    S    
C11   N1    A    
C30   H15   S    
C6    C33   A    
C1    O1    A    
C14   O3    S    
C31   H17   S    
C36   C38   A    
N3    N4    D    
C2    C37   A    
C20   C26   A    
C17   C19   A    
C34   C36   A    
C12   O9    A    
C18   C20   A    
Cu1   O1    S    
C9    O12   A    
C30   O6    S    
C13   O2    S    
C16   C18   A    
C29   H14   S    
C27   C28   S    
C1    O8    A    
C32   H20   S    
C32   H19   S    
