data_mof_unit_64434.cif
_audit_creation_date              2013-03-05T16:16:30-0500
_audit_creation_method            fapswitch 2.2
_symmetry_space_group_name_H-M    P1
_symmetry_Int_Tables_number       1
_space_group_crystal_system       triclinic
_cell_length_a                    44.835321
_cell_length_b                    38.917989
_cell_length_c                    21.721694
_cell_angle_alpha                 89.463424
_cell_angle_beta                  60.174404
_cell_angle_gamma                 90.016999
_cell_volume                      32879.8194439

loop_
_atom_site_label
_atom_site_type_symbol
_atom_site_description
_atom_site_fract_x
_atom_site_fract_y
_atom_site_fract_z
_atom_type_partial_charge
O1    O     O_R   0.050910 0.528740 0.449110 -0.602018
O2    O     O_R   0.949090 0.528740 0.550890 -0.606971
O3    O     O_R   0.550910 0.028740 0.449110 -0.601557
O4    O     O_R   0.449090 0.028740 0.550890 -0.607028
O5    O     O_R   0.050900 0.471250 0.449110 -0.603184
O6    O     O_R   0.949100 0.471250 0.550890 -0.598838
O7    O     O_R   0.550900 0.971250 0.449110 -0.604662
O8    O     O_R   0.449100 0.971250 0.550890 -0.598824
C1    C     C_R   0.067094 0.500086 0.433221 1.005574
C2    C     C_R   0.932914 0.499904 0.567004 1.004813
C3    C     C_R   0.567094 0.000079 0.433178 1.006137
C4    C     C_R   0.432914 0.999904 0.567004 1.004814
O9    O     O_R   0.999990 0.528740 0.590470 -0.611244
O10   O     O_R   0.000010 0.528740 0.409530 -0.609061
O11   O     O_R   0.499990 0.028740 0.590470 -0.611674
O12   O     O_R   0.500010 0.028740 0.409530 -0.608482
O13   O     O_R   0.999990 0.471250 0.590470 -0.611358
O14   O     O_R   0.000010 0.471250 0.409530 -0.615849
O15   O     O_R   0.499990 0.971250 0.590470 -0.611077
O16   O     O_R   0.500010 0.971250 0.409530 -0.616795
C5    C     C_R   0.998757 0.499726 0.620260 1.015838
C6    C     C_R   0.001267 0.500249 0.379697 1.025123
C7    C     C_R   0.498751 0.999725 0.620267 1.016442
C8    C     C_R   0.501260 0.000250 0.379705 1.025447
Zn1   Zn    Zn3+2 1.000000 0.538380 0.500000 1.062306
Zn2   Zn    Zn3+2 0.500000 0.038380 0.500000 1.062273
Zn3   Zn    Zn3+2 1.000000 0.461610 0.500000 1.068963
Zn4   Zn    Zn3+2 0.500000 0.961610 0.500000 1.067988
C9    C     C_2   0.977025 0.520332 0.806648 -0.146002
C10   C     C_2   0.022071 0.478835 0.194169 -0.152547
C11   C     C_2   0.477025 0.020334 0.806650 -0.146134
C12   C     C_2   0.522108 0.978870 0.194138 -0.151528
C13   C     C_2   0.002029 0.505035 0.813099 -0.322237
C14   C     C_2   0.997866 0.495355 0.186960 -0.336654
C15   C     C_2   0.502028 0.005035 0.813100 -0.321928
C16   C     C_2   0.497868 0.995336 0.186959 -0.337087
H1    H     H_    0.955051 0.531683 0.852053 0.174355
H2    H     H_    0.043436 0.466402 0.149368 0.186501
H3    H     H_    0.455053 0.031688 0.852055 0.174381
H4    H     H_    0.543504 0.966487 0.149309 0.186795
H5    H     H_    0.025786 0.497255 0.766617 0.173308
H6    H     H_    0.974488 0.504196 0.233044 0.177900
H7    H     H_    0.525784 0.997253 0.766617 0.173747
H8    H     H_    0.474469 0.004127 0.233059 0.177829
C17   C     C_2   0.980003 0.523293 0.736714 -0.106567
C18   C     C_2   0.018798 0.475853 0.264322 -0.090714
C19   C     C_2   0.480000 0.023296 0.736717 -0.107026
C20   C     C_2   0.518843 0.975888 0.264284 -0.090004
C21   C     C_2   0.995261 0.498259 0.689663 -0.220061
C22   C     C_2   0.004980 0.501661 0.310067 -0.268031
C23   C     C_2   0.495254 0.998259 0.689670 -0.219520
C24   C     C_2   0.504955 0.001662 0.310092 -0.266604
H9    H     H_    0.968541 0.545177 0.725001 0.169002
H10   H     H_    0.028817 0.453187 0.277256 0.205991
H11   H     H_    0.468541 0.045181 0.725003 0.168966
H12   H     H_    0.528941 0.953262 0.277156 0.205314
H13   H     H_    0.003123 0.474568 0.704299 0.151922
H14   H     H_    0.998398 0.525777 0.294208 0.163945
H15   H     H_    0.503113 0.974566 0.704308 0.152117
H16   H     H_    0.498307 0.025757 0.294295 0.163940
C25   C     C_R   0.377088 0.490587 0.071836 -0.184480
C26   C     C_R   0.622665 0.488888 0.928231 -0.185804
C27   C     C_R   0.877048 0.989490 0.072547 -0.186165
C28   C     C_R   0.122665 0.988885 0.928230 -0.185738
H17   H     H_    0.390504 0.482420 0.017071 0.155695
H18   H     H_    0.609050 0.480603 0.983288 0.155744
H19   H     H_    0.890441 0.981329 0.017780 0.155829
H20   H     H_    0.109049 0.980598 0.983285 0.155792
C29   C     C_R   0.341378 0.490866 0.108373 -0.165823
C30   C     C_R   0.658381 0.488286 0.891374 -0.165630
C31   C     C_R   0.841319 0.989046 0.109705 -0.165258
C32   C     C_R   0.158381 0.988283 0.891373 -0.165549
H21   H     H_    0.327900 0.482571 0.081286 0.135382
H22   H     H_    0.671922 0.479892 0.918475 0.140096
H23   H     H_    0.827552 0.980883 0.083108 0.140065
H24   H     H_    0.171921 0.979887 0.918473 0.140152
C33   C     C_R   0.323326 0.501288 0.179404 0.115206
C34   C     C_R   0.676487 0.498993 0.820231 0.110111
C35   C     C_R   0.823500 0.999564 0.180518 0.110329
C36   C     C_R   0.176487 0.998993 0.820232 0.110056
C37   C     C_R   0.341526 0.511083 0.213567 -0.164839
C38   C     C_R   0.658719 0.510037 0.785901 -0.165501
C39   C     C_R   0.841562 0.010316 0.214177 -0.165841
C40   C     C_R   0.158719 0.010039 0.785903 -0.165420
H25   H     H_    0.328181 0.519730 0.267988 0.135813
H26   H     H_    0.672522 0.518237 0.730788 0.140174
H27   H     H_    0.827991 0.018361 0.269027 0.140118
H28   H     H_    0.172522 0.018241 0.730791 0.140242
C41   C     C_R   0.377245 0.510352 0.177286 -0.182052
C42   C     C_R   0.622985 0.510119 0.822394 -0.183176
C43   C     C_R   0.877289 0.010252 0.177403 -0.182601
C44   C     C_R   0.122985 0.010121 0.822396 -0.183058
H29   H     H_    0.390805 0.518178 0.204519 0.156862
H30   H     H_    0.609615 0.518644 0.795037 0.156638
H31   H     H_    0.890875 0.018533 0.204290 0.157061
H32   H     H_    0.109615 0.018648 0.795040 0.156711
C45   C     C_R   0.395197 0.500258 0.106143 -0.038398
C46   C     C_R   0.604792 0.499690 0.893838 -0.037379
C47   C     C_R   0.895204 0.999949 0.106327 -0.037606
C48   C     C_R   0.104792 0.999690 0.893838 -0.037418
C49   C     C_R   0.266997 0.490894 0.288881 -0.180211
C50   C     C_R   0.732205 0.528802 0.747603 -0.178092
C51   C     C_R   0.768136 0.029215 0.253196 -0.178009
C52   C     C_R   0.232205 0.028803 0.747613 -0.177995
H33   H     H_    0.280047 0.481605 0.316351 0.138747
H34   H     H_    0.718754 0.552186 0.749148 0.144367
H35   H     H_    0.781867 0.052516 0.251049 0.144522
H36   H     H_    0.218753 0.052188 0.749163 0.144410
C53   C     C_R   0.231269 0.491103 0.324790 -0.161760
C54   C     C_R   0.767917 0.528934 0.712512 -0.165464
C55   C     C_R   0.732417 0.029335 0.288582 -0.164164
C56   C     C_R   0.267916 0.028935 0.712522 -0.165394
H37   H     H_    0.217226 0.482263 0.379469 0.147501
H38   H     H_    0.781530 0.552595 0.687854 0.147474
H39   H     H_    0.719073 0.052903 0.312836 0.147936
H40   H     H_    0.281530 0.052597 0.687870 0.147497
C57   C     C_R   0.213809 0.501838 0.289642 0.148555
C58   C     C_R   0.785769 0.498951 0.710582 0.149966
C59   C     C_R   0.714218 0.999484 0.291135 0.150342
C60   C     C_R   0.285768 0.998951 0.710584 0.149950
C61   C     C_R   0.232202 0.512861 0.218770 -0.162742
C62   C     C_R   0.767349 0.468875 0.744430 -0.163611
C63   C     C_R   0.732279 0.969521 0.257881 -0.164446
C64   C     C_R   0.267349 0.968874 0.744424 -0.163560
H41   H     H_    0.218888 0.521555 0.191394 0.147514
H42   H     H_    0.780549 0.445279 0.742595 0.148291
H43   H     H_    0.718798 0.946016 0.260245 0.147902
H44   H     H_    0.280549 0.945277 0.742584 0.148294
C65   C     C_R   0.267907 0.513105 0.183109 -0.179048
C66   C     C_R   0.731628 0.468922 0.780398 -0.180236
C67   C     C_R   0.767994 0.969581 0.221657 -0.180334
C68   C     C_R   0.231627 0.968921 0.780392 -0.180168
H45   H     H_    0.281669 0.522302 0.128689 0.139559
H46   H     H_    0.717730 0.445549 0.806319 0.142811
H47   H     H_    0.781606 0.946302 0.196131 0.142586
H48   H     H_    0.217730 0.945546 0.806307 0.142828
C69   C     C_R   0.285583 0.501862 0.217720 0.101430
C70   C     C_R   0.713984 0.498865 0.781981 0.095944
C71   C     C_R   0.786000 0.999421 0.219209 0.096079
C72   C     C_R   0.213984 0.998864 0.781982 0.095927
C73   C     C_R   0.159297 0.483679 0.297289 -0.218522
C74   C     C_R   0.840828 0.481787 0.703269 -0.220526
C75   C     C_R   0.659176 0.982861 0.297866 -0.220477
C76   C     C_R   0.340828 0.981784 0.703266 -0.220492
H49   H     H_    0.174038 0.470735 0.247042 0.184757
H50   H     H_    0.826368 0.468993 0.754353 0.180934
H51   H     H_    0.673625 0.970468 0.246935 0.181043
H52   H     H_    0.326368 0.968986 0.754346 0.180952
C77   C     C_R   0.123478 0.483239 0.331383 0.283477
C78   C     C_R   0.876663 0.482027 0.669273 0.275241
C79   C     C_R   0.623376 0.983117 0.331408 0.285169
C80   C     C_R   0.376663 0.982022 0.669269 0.275245
C81   C     C_R   0.104544 0.500336 0.396851 -0.283239
C82   C     C_R   0.895479 0.499685 0.603647 -0.283714
C83   C     C_R   0.604544 0.000224 0.396811 -0.283213
C84   C     C_R   0.395478 0.999685 0.603648 -0.283710
C85   C     C_R   0.121815 0.517771 0.427098 0.277855
C86   C     C_R   0.878129 0.517028 0.573209 0.281659
C87   C     C_R   0.621884 0.017164 0.427387 0.278889
C88   C     C_R   0.378129 0.017032 0.573215 0.281663
C89   C     C_R   0.157684 0.518190 0.391102 -0.218740
C90   C     C_R   0.842278 0.516713 0.608989 -0.221282
C91   C     C_R   0.657744 0.016897 0.392012 -0.220843
C92   C     C_R   0.342277 0.016717 0.608996 -0.221246
H53   H     H_    0.171182 0.531503 0.413668 0.184467
H54   H     H_    0.828988 0.529311 0.584933 0.180424
H55   H     H_    0.671035 0.029176 0.416143 0.180427
H56   H     H_    0.328988 0.029318 0.584943 0.180448
C93   C     C_R   0.176316 0.501211 0.326683 -0.023328
C94   C     C_R   0.823529 0.499116 0.673675 -0.014245
C95   C     C_R   0.676474 0.999703 0.327661 -0.015172
C96   C     C_R   0.323529 0.999116 0.673677 -0.014247
O17   O     O_R   0.971250 0.449080 0.028720 -0.617715
O18   O     O_R   0.028750 0.449080 0.971280 -0.622398
O19   O     O_R   0.471250 0.949080 0.028720 -0.617773
O20   O     O_R   0.528750 0.949080 0.971280 -0.622212
C97   C     C_R   0.999908 0.432747 0.000061 0.914961
C98   C     C_R   0.499908 0.932747 0.000061 0.914791
O21   O     O_R   0.971260 0.500000 0.938260 -0.611738
O22   O     O_R   0.028740 0.500000 0.061740 -0.613142
O23   O     O_R   0.471260 1.000000 0.938260 -0.611834
O24   O     O_R   0.528740 0.000000 0.061740 -0.612855
O25   O     O_R   0.028750 0.500000 0.880800 -0.613200
O26   O     O_R   0.971250 0.500000 0.119200 -0.612170
O27   O     O_R   0.528750 1.000000 0.880800 -0.612827
O28   O     O_R   0.471250 0.000000 0.119200 -0.612226
C99   C     C_R   0.000363 0.501273 0.880613 0.935892
C100  C     C_R   0.999621 0.498841 0.119384 0.938129
C101  C     C_R   0.500363 0.001273 0.880613 0.935688
C102  C     C_R   0.499621 0.998835 0.119384 0.938126
Zn5   Zn    Zn3+2 0.961620 0.500000 0.038360 0.996763
Zn6   Zn    Zn3+2 0.038380 0.500000 0.961640 0.994656
Zn7   Zn    Zn3+2 0.461620 0.000000 0.038360 0.996939
Zn8   Zn    Zn3+2 0.538380 0.000000 0.961640 0.996295
O29   O     O_R   0.971260 0.550910 0.028730 -0.625906
O30   O     O_R   0.028740 0.550910 0.971270 -0.621887
O31   O     O_R   0.471260 0.050910 0.028730 -0.625848
O32   O     O_R   0.528740 0.050910 0.971270 -0.621618
C103  C     C_R   0.000088 0.567221 0.999905 0.858577
C104  C     C_R   0.500088 0.067219 0.999905 0.858418
O33   O     O_R   0.499990 0.449020 0.050970 -0.623470
O34   O     O_R   0.500010 0.449020 0.949030 -0.622908
O35   O     O_R   0.999990 0.949020 0.050970 -0.623282
O36   O     O_R   0.000010 0.949020 0.949030 -0.622907
C105  C     C_R   0.500006 0.432614 0.000265 0.869523
C106  C     C_R   0.000005 0.932616 0.000266 0.869260
O37   O     O_R   0.449080 0.499930 0.101960 -0.621619
O38   O     O_R   0.550920 0.499930 0.898040 -0.621200
O39   O     O_R   0.949080 0.999930 0.101960 -0.621419
O40   O     O_R   0.050920 0.999930 0.898040 -0.621149
O41   O     O_R   0.449090 0.500000 0.999810 -0.623232
O42   O     O_R   0.550910 0.500000 0.000190 -0.622994
O43   O     O_R   0.949090 0.000000 0.999810 -0.622888
O44   O     O_R   0.050910 0.000000 0.000190 -0.622967
C107  C     C_R   0.432700 0.499993 0.067691 0.871389
C108  C     C_R   0.567297 0.499951 0.932314 0.870835
C109  C     C_R   0.932703 0.999988 0.067703 0.870929
C110  C     C_R   0.067296 0.999951 0.932314 0.870788
Zn9   Zn    Zn3+2 0.499990 0.499920 0.068200 0.960771
Zn10  Zn    Zn3+2 0.500010 0.499920 0.931800 0.960873
Zn11  Zn    Zn3+2 0.999990 0.999920 0.068200 0.961245
Zn12  Zn    Zn3+2 0.000010 0.999920 0.931800 0.961450
O45   O     O_R   0.500000 0.550840 0.051180 -0.623126
O46   O     O_R   0.500000 0.550840 0.948820 -0.623470
O47   O     O_R   1.000000 0.050840 0.051180 -0.623234
O48   O     O_R   0.000000 0.050840 0.948820 -0.623326
C111  C     C_R   0.499999 0.567226 0.999737 0.873394
C112  C     C_R   0.999999 0.067226 0.999737 0.873066
C113  C     C_R   0.503683 0.622820 0.050562 -0.182713
C114  C     C_R   0.495810 0.622851 0.947796 -0.183041
C115  C     C_R   0.003684 0.122819 0.050561 -0.183000
C116  C     C_R   0.995810 0.122851 0.947797 -0.182979
H57   H     H_    0.507032 0.609411 0.090608 0.160937
H58   H     H_    0.492648 0.609453 0.907916 0.160561
H59   H     H_    0.007034 0.109410 0.090607 0.161014
H60   H     H_    0.992648 0.109453 0.907916 0.160765
C117  C     C_R   0.503482 0.658508 0.050284 -0.158458
C118  C     C_R   0.495458 0.658551 0.947735 -0.158821
C119  C     C_R   0.003483 0.158507 0.050283 -0.158582
C120  C     C_R   0.995459 0.158552 0.947736 -0.158958
H61   H     H_    0.506981 0.671991 0.089656 0.141903
H62   H     H_    0.491772 0.672063 0.908224 0.141680
H63   H     H_    0.006983 0.171990 0.089654 0.141999
H64   H     H_    0.991771 0.172063 0.908226 0.141792
C121  C     C_R   0.499300 0.676580 0.998969 0.118403
C122  C     C_R   0.999301 0.176580 0.998969 0.118282
C123  C     C_R   0.499862 0.604767 0.999302 -0.042956
C124  C     C_R   0.999863 0.104767 0.999302 -0.043088
C125  C     C_R   0.480680 0.731921 0.063010 -0.166749
C126  C     C_R   0.517214 0.732625 0.934747 -0.166572
C127  C     C_R   0.980683 0.231921 0.063012 -0.167028
C128  C     C_R   0.017212 0.232625 0.934748 -0.166437
H65   H     H_    0.466118 0.718159 0.112910 0.138877
H66   H     H_    0.531837 0.719413 0.884845 0.138593
H67   H     H_    0.966124 0.218159 0.112913 0.138639
H68   H     H_    0.031832 0.219414 0.884844 0.138643
C129  C     C_R   0.980761 0.267608 0.063039 -0.063464
C130  C     C_R   0.017144 0.268320 0.934802 -0.062037
C131  C     C_R   0.480757 0.767608 0.063036 -0.063499
C132  C     C_R   0.517146 0.768320 0.934801 -0.061982
H69   H     H_    0.966666 0.281088 0.112785 0.141808
H70   H     H_    0.031306 0.282358 0.885110 0.142066
H71   H     H_    0.466660 0.781088 0.112782 0.141870
H72   H     H_    0.531312 0.782358 0.885110 0.142108
C133  C     C_R   0.999008 0.285804 0.998959 0.201566
C134  C     C_R   0.499008 0.785804 0.998958 0.201525
C135  C     C_R   0.499007 0.714217 0.998880 0.092350
C136  C     C_R   0.999007 0.214217 0.998881 0.092423
C137  C     C_R   0.030306 0.341250 0.978889 0.296906
C138  C     C_R   0.968406 0.341493 0.019783 0.295242
C139  C     C_R   0.530305 0.841250 0.978896 0.296858
C140  C     C_R   0.468407 0.841493 0.019772 0.295165
C141  C     C_R   0.030190 0.377093 0.978402 -0.235375
C142  C     C_R   0.968950 0.377309 0.021039 -0.228896
C143  C     C_R   0.530189 0.877093 0.978410 -0.235150
C144  C     C_R   0.468951 0.877309 0.021029 -0.228859
H73   H     H_    0.053908 0.390879 0.963054 0.206121
H74   H     H_    0.945396 0.391280 0.036648 0.208094
H75   H     H_    0.553907 0.890879 0.963069 0.206253
H76   H     H_    0.445398 0.891280 0.036631 0.208117
C145  C     C_R   0.999678 0.395173 0.999901 -0.160257
C146  C     C_R   0.499678 0.895173 0.999900 -0.160245
C147  C     C_R   0.999249 0.323316 0.999125 -0.181340
C148  C     C_R   0.499249 0.823316 0.999123 -0.181328
C149  C     C_R   0.509639 0.377152 0.044632 -0.188478
C150  C     C_R   0.490728 0.376995 0.957396 -0.188015
C151  C     C_R   0.009829 0.877159 0.044325 -0.188266
C152  C     C_R   0.990531 0.877001 0.957708 -0.188416
H77   H     H_    0.517119 0.390680 0.078237 0.156221
H78   H     H_    0.483146 0.390395 0.923459 0.156476
H79   H     H_    0.017461 0.890692 0.077682 0.156186
H80   H     H_    0.982797 0.890403 0.924021 0.156275
C153  C     C_R   0.510016 0.341442 0.044636 -0.177614
C154  C     C_R   0.490677 0.341287 0.958191 -0.177091
C155  C     C_R   0.010211 0.841450 0.044317 -0.177702
C156  C     C_R   0.990476 0.841292 0.958510 -0.177315
H81   H     H_    0.517604 0.327684 0.078206 0.140355
H82   H     H_    0.483221 0.327406 0.924910 0.140313
H83   H     H_    0.017954 0.827693 0.077636 0.140389
H84   H     H_    0.982866 0.827411 0.925477 0.140263
C157  C     C_R   0.500430 0.323597 0.001604 0.106060
C158  C     C_R   0.000428 0.823603 0.001602 0.106250
C159  C     C_R   0.500108 0.395117 0.000800 -0.035261
C160  C     C_R   0.000105 0.895121 0.000802 -0.035035
C161  C     C_R   0.471161 0.267847 0.052192 0.211566
C162  C     C_R   0.530111 0.268477 0.951661 0.211826
C163  C     C_R   0.971283 0.767848 0.052616 0.211810
C164  C     C_R   0.029994 0.768485 0.951214 0.211813
C165  C     C_R   0.971754 0.732040 0.052220 -0.199000
C166  C     C_R   0.029557 0.732671 0.951241 -0.199064
C167  C     C_R   0.471631 0.232039 0.051811 -0.198912
C168  C     C_R   0.529674 0.232663 0.951673 -0.199079
H85   H     H_    0.949578 0.718036 0.092340 0.156702
H86   H     H_    0.051729 0.719179 0.910920 0.156629
H87   H     H_    0.449353 0.218041 0.091622 0.156705
H88   H     H_    0.551947 0.219171 0.911660 0.156576
C169  C     C_R   0.000635 0.714326 0.001540 -0.004318
C170  C     C_R   0.500631 0.214320 0.001550 -0.004198
C171  C     C_R   0.500603 0.286169 0.001936 -0.063688
C172  C     C_R   0.000605 0.786174 0.001926 -0.063797
C173  C     C_R   0.030012 0.658362 0.988348 -0.163806
C174  C     C_R   0.970950 0.658599 0.013005 -0.163626
C175  C     C_R   0.529920 0.158348 0.988915 -0.163650
C176  C     C_R   0.471040 0.158594 0.012444 -0.163507
H89   H     H_    0.052953 0.671686 0.980050 0.134561
H90   H     H_    0.948099 0.672129 0.021656 0.133772
H91   H     H_    0.552785 0.171666 0.981072 0.134705
H92   H     H_    0.448265 0.172125 0.020643 0.133824
C177  C     C_R   0.029956 0.622661 0.987423 -0.178432
C178  C     C_R   0.970761 0.622895 0.012959 -0.183019
C179  C     C_R   0.529869 0.122648 0.987975 -0.178144
C180  C     C_R   0.470848 0.122890 0.012409 -0.182969
H93   H     H_    0.052941 0.609102 0.977873 0.161592
H94   H     H_    0.947673 0.609529 0.022211 0.159122
H95   H     H_    0.552781 0.109081 0.978866 0.161761
H96   H     H_    0.447834 0.109524 0.021219 0.158983
C181  C     C_R   0.000286 0.604736 0.000006 -0.033079
C182  C     C_R   0.500286 0.104730 0.000006 -0.032982
C183  C     C_R   0.000532 0.676594 0.000984 0.147472
C184  C     C_R   0.500531 0.176587 0.000989 0.147310
N1    N     N_R   0.106892 0.466488 0.297615 0.214386
O49   O     O_R   0.081562 0.481346 0.295022 -0.437618
O50   O     O_R   0.120383 0.439117 0.259980 -0.374710
N2    N     N_R   0.893346 0.465245 0.703246 0.218303
O51   O     O_R   0.919071 0.479964 0.704559 -0.423025
O52   O     O_R   0.879813 0.437692 0.741669 -0.366126
N3    N     N_R   0.606714 0.967092 0.297037 0.214387
O53   O     O_R   0.581720 0.982600 0.294259 -0.436484
O54   O     O_R   0.619803 0.939679 0.259261 -0.377981
N4    N     N_R   0.393346 0.965237 0.703238 0.218316
O55   O     O_R   0.419070 0.979955 0.704557 -0.423055
O56   O     O_R   0.379814 0.937681 0.741650 -0.366121
N5    N     N_R   0.103480 0.534250 0.494898 0.217832
O57   O     O_R   0.077254 0.519072 0.547677 -0.420443
O58   O     O_R   0.116004 0.561869 0.507088 -0.372619
N6    N     N_R   0.896380 0.533999 0.505136 0.217379
O59   O     O_R   0.922600 0.519302 0.452504 -0.421126
O60   O     O_R   0.883786 0.561598 0.492637 -0.378253
N7    N     N_R   0.603619 0.033647 0.495191 0.218110
O61   O     O_R   0.577207 0.018636 0.547854 -0.419566
O62   O     O_R   0.616372 0.061054 0.507519 -0.375001
N8    N     N_R   0.396379 0.034007 0.505147 0.217397
O63   O     O_R   0.422597 0.019312 0.452510 -0.421256
O64   O     O_R   0.383785 0.061610 0.492657 -0.378178
N9    N     N_R   0.061893 0.323606 0.960178 0.209471
O65   O     O_R   0.091236 0.337238 0.914103 -0.372877
O66   O     O_R   0.061867 0.296294 0.995231 -0.375675
N10   N     N_R   0.936605 0.324148 0.038188 0.210410
O67   O     O_R   0.907421 0.337506 0.084413 -0.370495
O68   O     O_R   0.936313 0.297473 0.002806 -0.373160
N11   N     N_R   0.561891 0.823606 0.960194 0.209454
O69   O     O_R   0.591235 0.837238 0.914127 -0.372435
O70   O     O_R   0.561861 0.796293 0.995251 -0.375903
N12   N     N_R   0.436607 0.824149 0.038168 0.210478
O71   O     O_R   0.407422 0.837506 0.084387 -0.370188
O72   O     O_R   0.436318 0.797473 0.002781 -0.372991
N13   N     N_2   0.441068 0.284909 0.104060 -0.303792
H97   H     H_    0.444973 0.308914 0.118489 0.240130
C185  C     C_3   0.412473 0.283945 0.090907 -0.764104
H98   H     H_    0.389821 0.296459 0.135279 0.244727
H99   H     H_    0.405367 0.256979 0.087400 0.244222
H100  H     H_    0.419237 0.297934 0.040748 0.237957
N14   N     N_2   0.560180 0.286183 0.899920 -0.303918
H101  H     H_    0.556261 0.310372 0.885668 0.240271
C186  C     C_3   0.588779 0.285038 0.913055 -0.764721
H102  H     H_    0.611418 0.298096 0.868777 0.244243
H103  H     H_    0.595910 0.258026 0.916353 0.244848
H104  H     H_    0.582002 0.298402 0.963319 0.237805
N15   N     N_2   0.941313 0.784905 0.104926 -0.303493
H105  H     H_    0.945321 0.808911 0.119176 0.240138
C187  C     C_3   0.912467 0.783932 0.092578 -0.765818
H106  H     H_    0.889940 0.796441 0.137254 0.244280
H107  H     H_    0.905301 0.756964 0.089270 0.244323
H108  H     H_    0.918972 0.797921 0.042559 0.237862
N16   N     N_2   0.059940 0.786193 0.899033 -0.303846
H109  H     H_    0.055918 0.810381 0.884966 0.240322
C188  C     C_3   0.088791 0.785045 0.911357 -0.764642
H110  H     H_    0.111304 0.798104 0.866778 0.244297
H111  H     H_    0.095983 0.758032 0.914447 0.244753
H112  H     H_    0.082275 0.798407 0.961484 0.237839

loop_
_geom_bond_atom_site_label_1
_geom_bond_atom_site_label_2
_geom_bond_distance
_ccdc_geom_bond_type
C187  H108  1.111557 S    
C35   C71   1.458614 S    
C125  H65   1.083023 S    
C161  C171  1.412127 A    
C74   H50   1.083236 S    
O28   Zn7   2.006007 S    
C14   H6    1.087207 S    
C132  H72   1.083395 S    
C28   C32   1.389584 A    
C54   C58   1.404332 A    
C128  C130  1.389208 A    
C121  C135  1.464834 S    
O41   Zn10  2.009913 S    
C129  H69   1.083414 S    
C62   C66   1.389548 A    
C126  C135  1.403564 A    
C82   C86   1.414672 A    
C131  H71   1.083413 S    
C8    C24   1.437427 S    
C188  H111  1.110893 S    
C173  C183  1.403235 A    
Zn11  O47   2.012447 S    
C120  H64   1.083121 S    
O47   C112  1.281410 A    
C173  C177  1.389756 A    
C10   H2    1.086532 S    
C143  C146  1.398528 A    
C138  C142  1.394837 A    
C80   C84   1.414604 A    
C30   H22   1.083436 S    
O24   Zn8   1.994932 S    
C79   C83   1.413963 A    
O4    C4    1.283565 A    
C73   H49   1.083873 S    
C74   C94   1.399202 A    
O36   Zn12  2.012525 S    
C75   C79   1.394330 A    
C2    C82   1.456594 S    
C66   H46   1.083432 S    
N10   O67   1.301469 A    
N5    O58   1.301402 A    
C176  C184  1.403370 A    
C86   N6    1.438763 S    
C150  C159  1.403488 A    
C92   H56   1.083275 S    
C129  C133  1.398816 A    
O33   Zn9   2.019413 S    
C164  C172  1.412300 A    
C56   C60   1.404332 A    
C26   H18   1.083190 S    
C155  H83   1.083388 S    
O16   Zn4   1.996982 S    
O17   Zn5   2.018852 S    
O13   C5    1.275862 A    
O7    Zn4   2.013229 S    
C52   C72   1.399560 A    
C158  C172  1.456628 S    
O28   C102  1.274836 A    
O15   C7    1.275863 A    
O43   Zn12  2.009913 S    
C34   C38   1.400203 A    
C73   C93   1.395700 A    
O26   Zn5   2.006007 S    
O9    C5    1.283566 A    
O18   C97   1.286456 A    
C155  C158  1.397301 A    
C65   H45   1.082855 S    
C27   C31   1.389748 A    
C118  H62   1.083120 S    
C75   H51   1.083286 S    
N15   H105  1.030353 S    
O8    Zn4   2.017339 S    
C16   H8    1.087204 S    
C113  C117  1.388913 A    
N14   H101  1.030347 S    
C66   C70   1.399684 A    
C152  H80   1.083103 S    
C133  C147  1.459972 S    
C51   H35   1.083423 S    
C166  H86   1.083464 S    
C134  C148  1.459976 S    
O3    Zn2   2.017721 S    
C40   H28   1.083415 S    
C154  H82   1.083408 S    
C151  H79   1.083092 S    
C59   C63   1.404218 A    
C39   C43   1.389676 A    
O39   C109  1.279193 A    
C49   C69   1.404306 A    
C13   H5    1.087103 S    
N9    O65   1.301462 A    
C144  C146  1.398741 A    
C98   C146  1.462399 S    
C118  C121  1.402032 A    
C151  C155  1.389845 A    
C114  H58   1.083045 S    
C175  H91   1.082993 S    
C152  C156  1.389631 A    
N4    O55   1.300725 A    
O3    C3    1.283881 A    
C25   H17   1.083232 S    
C20   C24   1.336671 D    
O21   Zn5   1.994933 S    
N7    O61   1.300673 A    
C137  C147  1.415662 A    
O32   C104  1.285688 A    
O24   C102  1.283410 A    
O19   Zn7   2.018852 S    
C89   H53   1.083823 S    
C59   C95   1.468972 S    
C186  H103  1.110900 S    
C140  C148  1.415424 A    
O40   Zn12  2.020608 S    
C9    C13   1.336375 D    
C29   C33   1.403541 A    
C31   C35   1.400502 A    
C156  C158  1.397409 A    
C26   C30   1.389588 A    
C119  C122  1.401996 A    
C16   C102  1.435536 S    
C28   H20   1.083192 S    
O45   C111  1.281412 A    
N8    O63   1.300734 A    
C167  C170  1.400248 A    
C149  H77   1.083090 S    
C116  H60   1.083049 S    
C21   H13   1.087015 S    
C64   C68   1.389552 A    
C55   C59   1.404167 A    
C58   C62   1.404254 A    
O34   Zn10  2.012525 S    
N12   O71   1.301465 A    
C154  C157  1.397385 A    
C77   C81   1.415238 A    
C24   H16   1.087109 S    
O5    Zn3   2.013229 S    
C103  C181  1.460065 S    
C15   H7    1.087104 S    
C54   H38   1.082872 S    
O8    C4    1.283712 A    
C89   C93   1.395478 A    
O20   C98   1.286456 A    
C48   C110  1.458536 S    
C175  C184  1.403275 A    
C153  H81   1.083387 S    
C130  H70   1.083396 S    
C4    C84   1.456601 S    
O30   C103  1.285729 A    
C122  C136  1.464838 S    
C177  C181  1.401851 A    
C164  C166  1.393912 A    
O29   C103  1.285568 A    
N1    O50   1.301395 A    
C10   C14   1.335383 D    
C83   C87   1.414833 A    
O13   Zn3   2.003878 S    
C144  H76   1.083259 S    
C84   C88   1.414670 A    
C13   C99   1.436896 S    
O44   C110  1.279115 A    
C52   C56   1.389452 A    
C185  H100  1.111559 S    
C157  C171  1.456603 S    
C116  C124  1.402700 A    
O5    C1    1.284031 A    
C63   H43   1.082919 S    
C28   C48   1.402429 A    
C68   H48   1.083432 S    
N6    O60   1.301419 A    
C65   C69   1.404077 A    
O15   Zn4   2.003878 S    
C151  C160  1.403683 A    
C139  N11   1.440677 S    
C92   C96   1.398811 A    
C178  C181  1.401695 A    
C153  C157  1.397277 A    
C56   H40   1.082876 S    
O23   Zn7   1.994933 S    
C187  H107  1.110888 S    
C77   N1    1.437819 S    
O14   C6    1.283267 A    
C10   C18   1.459884 S    
O36   C106  1.277745 A    
C119  H63   1.083137 S    
C12   C16   1.335415 D    
O27   C101  1.275742 A    
C112  C124  1.461000 S    
C166  C169  1.400199 A    
C6    C22   1.437472 S    
C125  C135  1.403594 A    
C105  C159  1.459287 S    
C131  C134  1.398817 A    
C188  H110  1.110416 S    
C106  C160  1.459178 S    
C163  N15   1.425912 S    
C174  H90   1.083006 S    
C168  C170  1.400233 A    
C41   H29   1.083208 S    
Zn5   O29   2.014440 S    
N13   C185  1.446128 S    
C67   C71   1.399571 A    
C111  C123  1.461004 S    
C113  C123  1.402523 A    
C57   C93   1.458727 S    
C175  C179  1.389751 A    
N2    O51   1.300724 A    
C177  H93   1.083169 S    
C115  H59   1.083061 S    
C40   C44   1.389959 A    
C43   C47   1.402780 A    
O1    Zn1   2.017721 S    
C9    C17   1.460741 S    
C114  C123  1.402698 A    
O18   Zn6   2.014747 S    
C126  H66   1.083004 S    
C39   H27   1.083418 S    
O39   Zn11  2.020606 S    
O27   Zn8   2.006007 S    
C36   C40   1.400205 A    
O25   Zn6   2.006007 S    
N10   O68   1.301382 A    
N5    O57   1.300701 A    
C53   C57   1.399646 A    
C185  H98   1.110399 S    
C138  N10   1.440736 S    
C149  C159  1.403727 A    
Zn6   O30   2.018542 S    
C33   C69   1.468416 S    
C167  H87   1.083466 S    
O21   C99   1.283178 A    
C49   C53   1.389863 A    
N11   O69   1.301462 A    
C174  C178  1.389580 A    
C51   C55   1.389660 A    
C137  N9    1.440675 S    
O22   C100  1.283415 A    
C90   H54   1.083272 S    
O23   C101  1.283177 A    
C128  C136  1.403564 A    
O34   C105  1.277774 A    
C29   H21   1.082890 S    
C85   N5    1.438668 S    
C91   C95   1.398960 A    
C76   H52   1.083236 S    
C64   H44   1.082885 S    
C37   C41   1.389806 A    
C15   C101  1.436903 S    
C11   C19   1.460745 S    
C120  C122  1.402033 A    
C12   C20   1.459908 S    
C142  C145  1.398741 A    
C5    C21   1.436609 S    
C42   H30   1.083176 S    
O19   C98   1.286397 A    
O12   Zn2   2.003885 S    
O35   C106  1.277896 A    
C150  H78   1.083095 S    
C22   H14   1.087110 S    
O1    C1    1.283650 A    
C188  H112  1.111572 S    
N3    O53   1.300285 A    
C19   C23   1.336155 D    
C38   H26   1.083415 S    
C17   H9    1.086455 S    
C141  H73   1.083278 S    
O31   C104  1.285528 A    
C143  H75   1.083280 S    
O44   Zn11  2.009872 S    
O25   C99   1.275736 A    
C127  H67   1.083024 S    
C90   C94   1.398812 A    
C33   C37   1.403323 A    
C140  C144  1.394841 A    
C161  N13   1.425900 S    
C18   H10   1.086303 S    
O37   C107  1.279546 A    
N4    O56   1.301432 A    
C80   N4    1.439096 S    
C169  C183  1.468618 S    
C11   C15   1.336377 D    
C50   C54   1.389451 A    
O46   C111  1.281826 A    
C85   C89   1.395290 A    
C52   H36   1.083439 S    
C186  H102  1.110406 S    
C170  C184  1.468697 S    
C165  H85   1.083478 S    
C63   C67   1.389233 A    
C25   C45   1.401126 A    
C163  C172  1.412167 A    
C61   C65   1.388950 A    
O6    C2    1.283712 A    
O4    Zn2   2.013623 S    
N16   H109  1.030330 S    
O42   Zn9   2.009872 S    
C117  H61   1.083139 S    
C68   C72   1.399680 A    
C76   C96   1.399203 A    
C67   H47   1.083436 S    
C38   C42   1.389962 A    
C137  C141  1.394909 A    
C141  C145  1.398532 A    
C74   C78   1.395143 A    
C75   C95   1.398890 A    
C161  C167  1.393780 A    
C127  C129  1.388872 A    
C35   C39   1.399962 A    
O10   C6    1.276594 A    
N8    O64   1.301416 A    
O2    Zn1   2.013623 S    
O10   Zn1   2.003885 S    
C81   C85   1.416240 A    
N12   O72   1.301381 A    
Zn9   O45   2.012447 S    
C156  H84   1.083406 S    
C32   C36   1.400215 A    
C45   C107  1.458823 S    
C9    H1    1.086467 S    
N15   C187  1.446130 S    
Zn12  O48   2.019255 S    
C162  N14   1.425941 S    
O20   Zn8   2.014747 S    
C179  H95   1.083179 S    
C127  C136  1.403595 A    
C76   C80   1.395142 A    
O38   Zn10  2.020608 S    
O41   C107  1.279182 A    
C30   C34   1.400214 A    
C115  C124  1.402520 A    
C44   H32   1.083180 S    
C32   H24   1.083434 S    
C73   C77   1.394476 A    
C187  H106  1.110407 S    
Zn8   O32   2.018542 S    
N1    O49   1.300250 A    
O7    C3    1.283759 A    
C150  C154  1.389628 A    
C139  C143  1.394909 A    
C78   N2    1.439099 S    
N9    O66   1.301375 A    
C173  H89   1.082999 S    
C185  H99   1.110896 S    
C79   N3    1.437943 S    
C58   C94   1.469280 S    
C88   C92   1.394668 A    
C164  N16   1.425955 S    
O35   Zn11  2.019413 S    
C115  C119  1.388913 A    
C50   C70   1.399566 A    
C57   C61   1.399511 A    
C61   H41   1.083472 S    
C26   C46   1.402431 A    
C165  C169  1.400218 A    
C104  C182  1.459906 S    
C47   C109  1.458558 S    
N11   O70   1.301374 A    
C27   C47   1.402261 A    
C17   C21   1.336157 D    
C138  C147  1.415430 A    
C176  H92   1.083001 S    
C128  H68   1.083003 S    
C186  H104  1.111577 S    
O11   C7    1.283571 A    
C174  C183  1.403326 A    
O38   C108  1.279512 A    
C113  H57   1.083059 S    
C162  C171  1.412260 A    
C152  C160  1.403449 A    
O9    Zn1   1.996976 S    
C125  C131  1.388876 A    
C34   C70   1.458548 S    
C126  C132  1.389208 A    
O26   C100  1.274811 A    
C49   H33   1.082816 S    
C27   H19   1.083179 S    
C117  C121  1.401994 A    
O42   C108  1.279115 A    
O22   Zn6   1.994932 S    
C180  C182  1.401630 A    
O43   C109  1.279417 A    
C60   C96   1.469280 S    
O11   Zn2   1.996976 S    
C43   H31   1.083179 S    
C162  C168  1.393913 A    
C168  H88   1.083448 S    
C41   C45   1.401606 A    
C163  C165  1.393788 A    
C62   H42   1.082888 S    
C91   H55   1.083275 S    
N14   C186  1.446104 S    
C51   C71   1.399799 A    
N3    O54   1.301405 A    
C7    C23   1.436620 S    
O6    Zn3   2.017339 S    
O17   C97   1.286397 A    
N7    O62   1.301408 A    
C88   N8    1.438762 S    
C14   C100  1.435494 S    
C53   H37   1.083425 S    
N13   H97   1.030370 S    
C97   C145  1.462398 S    
N2    O52   1.301431 A    
O48   C112  1.281828 A    
C78   C82   1.414600 A    
C87   C91   1.395265 A    
C114  C118  1.389474 A    
C23   H15   1.087015 S    
O2    C2    1.283565 A    
Zn10  O46   2.019255 S    
C44   C48   1.402590 A    
C19   H11   1.086453 S    
C25   C29   1.389104 A    
C20   H12   1.086333 S    
C46   C108  1.458536 S    
O33   C105  1.277925 A    
C142  H74   1.083263 S    
O14   Zn3   1.996982 S    
C180  H96   1.083199 S    
C87   N7    1.438615 S    
C55   H39   1.082876 S    
C179  C182  1.401786 A    
C3    C83   1.457369 S    
C176  C180  1.389581 A    
C18   C22   1.336678 D    
O37   Zn9   2.020606 S    
O40   C110  1.279508 A    
C31   H23   1.083423 S    
N16   C188  1.446107 S    
C139  C148  1.415663 A    
Zn7   O31   2.014440 S    
N6    O59   1.300734 A    
C11   H3    1.086469 S    
C50   H34   1.083434 S    
C12   H4    1.086528 S    
O16   C8    1.283262 A    
C37   H25   1.082872 S    
C86   C90   1.394668 A    
C1    C81   1.457367 S    
O12   C8    1.276572 A    
C178  H94   1.083191 S    
C149  C153  1.389842 A    
C116  C120  1.389470 A    
C36   C72   1.458548 S    
C130  C133  1.398997 A    
C132  C134  1.398998 A    
C42   C46   1.402588 A    
C140  N12   1.440738 S    
C60   C64   1.404256 A    
