data_mof_unit_25510.cif
_audit_creation_date              2013-03-05T15:46:34-0500
_audit_creation_method            fapswitch 2.2
_symmetry_space_group_name_H-M    P1
_symmetry_Int_Tables_number       1
_space_group_crystal_system       triclinic
_cell_length_a                    17.404039
_cell_length_b                    24.223892
_cell_length_c                    15.015266
_cell_angle_alpha                 89.989213
_cell_angle_beta                  125.10431
_cell_angle_gamma                 89.836439
_cell_volume                      5178.85755923

loop_
_atom_site_label
_atom_site_type_symbol
_atom_site_description
_atom_site_fract_x
_atom_site_fract_y
_atom_site_fract_z
_atom_type_partial_charge
C1    C     C_R   0.310170 0.377011 0.909809 -0.061282
C2    C     C_R   0.649471 0.348093 0.088980 -0.126749
C3    C     C_R   0.850144 0.848422 0.911086 -0.118281
C4    C     C_R   0.143821 0.846490 0.087876 -0.150245
N1    N     N_R   0.394180 0.396910 0.943210 -0.030492
N2    N     N_R   0.605820 0.396910 0.056790 -0.048041
N3    N     N_R   0.894180 0.896910 0.943210 -0.042368
N4    N     N_R   0.105820 0.896910 0.056790 -0.049277
C5    C     C_R   0.401390 0.623704 0.091673 -0.089399
C6    C     C_R   0.594808 0.630738 0.910159 -0.089317
C7    C     C_R   0.904706 0.130601 0.089497 -0.123624
C8    C     C_R   0.059031 0.151267 0.907889 -0.079492
H1    H     H_    0.428159 0.628819 0.176185 0.099549
H2    H     H_    0.564706 0.645448 0.829000 0.102913
H3    H     H_    0.934611 0.145489 0.170415 0.097311
H4    H     H_    0.015018 0.164348 0.823820 0.115769
N5    N     N_R   0.450950 0.603070 0.056740 -0.039608
N6    N     N_R   0.549050 0.603070 0.943260 -0.039144
N7    N     N_R   0.950950 0.103070 0.056740 -0.047052
N8    N     N_R   0.049050 0.103070 0.943260 -0.044198
C9    C     C_R   0.550365 0.454812 0.304443 -0.069301
C10   C     C_R   0.509622 0.453651 0.740178 -0.122826
C11   C     C_R   0.989267 0.953809 0.258624 -0.119254
C12   C     C_R   0.952989 0.954711 0.697264 -0.053933
H5    H     H_    0.564082 0.412341 0.331208 0.130782
H6    H     H_    0.516258 0.410774 0.726300 0.126122
H7    H     H_    0.982087 0.910960 0.271982 0.118621
H8    H     H_    0.941448 0.912128 0.671641 0.123436
N9    N     N_R   0.525650 0.471570 0.206150 -0.050983
N10   N     N_R   0.474350 0.471570 0.793850 -0.040360
N11   N     N_R   0.025650 0.971570 0.206150 -0.040821
N12   N     N_R   0.974350 0.971570 0.793850 -0.047980
C13   C     C_R   0.249794 0.546371 0.696287 -0.012166
C14   C     C_R   0.757419 0.545427 0.299893 -0.028563
C15   C     C_R   0.745405 0.045625 0.697095 -0.033419
C16   C     C_R   0.269227 0.045678 0.258882 0.013803
N13   N     N_R   0.319480 0.528420 0.793810 -0.061484
N14   N     N_R   0.680520 0.528420 0.206190 -0.057028
N15   N     N_R   0.819480 0.028420 0.793810 -0.056196
N16   N     N_R   0.180520 0.028420 0.206190 -0.051351
C17   C     C_R   0.552050 0.546258 0.303175 -0.142530
C18   C     C_R   0.502284 0.545684 0.733238 -0.099507
C19   C     C_R   0.997093 0.045781 0.266136 -0.084941
C20   C     C_R   0.950838 0.046480 0.698094 -0.121172
H9    H     H_    0.571758 0.588526 0.329072 0.140829
H10   H     H_    0.495865 0.587485 0.706657 0.101323
H11   H     H_    0.003857 0.087483 0.293234 0.091939
H12   H     H_    0.932197 0.088948 0.672477 0.130732
N17   N     N_R   0.525640 0.528390 0.206120 -0.047434
N18   N     N_R   0.474360 0.528390 0.793880 -0.040269
N19   N     N_R   0.025640 0.028390 0.206120 -0.041600
N20   N     N_R   0.974360 0.028390 0.793880 -0.046151
C21   C     C_R   0.246489 0.455163 0.695516 -0.010556
C22   C     C_R   0.759425 0.453764 0.296892 -0.027969
C23   C     C_R   0.744765 0.953808 0.700044 -0.016739
C24   C     C_R   0.267808 0.953209 0.255947 0.024465
N21   N     N_R   0.319490 0.471590 0.793840 -0.060379
N22   N     N_R   0.680510 0.471590 0.206160 -0.061249
N23   N     N_R   0.819490 0.971590 0.793840 -0.061620
N24   N     N_R   0.180510 0.971590 0.206160 -0.053320
C25   C     C_R   0.309705 0.622798 0.909451 -0.051261
C26   C     C_R   0.688778 0.624759 0.091124 -0.045518
C27   C     C_R   0.810590 0.124181 0.908602 -0.046235
C28   C     C_R   0.146316 0.152574 0.088695 -0.147642
H13   H     H_    0.250785 0.626391 0.825800 0.106725
H14   H     H_    0.748065 0.627544 0.174208 0.110670
H15   H     H_    0.750993 0.126288 0.825393 0.110697
H16   H     H_    0.177608 0.168690 0.169015 0.154006
N25   N     N_R   0.394130 0.603080 0.943110 -0.029813
N26   N     N_R   0.605870 0.603080 0.056890 -0.034352
N27   N     N_R   0.894130 0.103080 0.943110 -0.030823
N28   N     N_R   0.105870 0.103080 0.056890 -0.050168
C29   C     C_R   0.401917 0.376115 0.092053 -0.105866
C30   C     C_R   0.557498 0.348419 0.908073 -0.093214
C31   C     C_R   0.942638 0.848393 0.092024 -0.124723
C32   C     C_R   0.058070 0.848487 0.907564 -0.092666
N29   N     N_R   0.450990 0.396900 0.056840 -0.042125
N30   N     N_R   0.549010 0.396900 0.943160 -0.048648
N31   N     N_R   0.950990 0.896900 0.056840 -0.049356
N32   N     N_R   0.049010 0.896900 0.943160 -0.043164
C33   C     C_R   0.312342 0.363776 0.001130 -0.014495
C34   C     C_R   0.618819 0.316441 0.997926 0.015072
C35   C     C_R   0.881049 0.816660 0.002193 0.029180
C36   C     C_R   0.116567 0.815473 0.997217 0.014970
C37   C     C_R   0.311552 0.635921 0.000605 -0.024968
C38   C     C_R   0.684884 0.641234 0.000743 -0.024331
C39   C     C_R   0.814291 0.140620 0.998886 -0.005177
C40   C     C_R   0.119082 0.183659 0.997901 0.010777
C41   C     C_R   0.569916 0.501154 0.368085 0.046555
C42   C     C_R   0.533311 0.500088 0.706309 0.010351
C43   C     C_R   0.965159 0.000367 0.291966 0.019244
C44   C     C_R   0.934189 0.001206 0.633756 0.027581
C45   C     C_R   0.200804 0.501659 0.634255 -0.145222
C46   C     C_R   0.810079 0.499284 0.354999 -0.076866
C47   C     C_R   0.697281 0.999492 0.639500 -0.082279
C48   C     C_R   0.324574 0.999054 0.284894 -0.141453
Ni1   Ni    Ni4+2 0.434860 0.434850 0.869700 0.267942
Ni2   Ni    Ni4+2 0.565140 0.434850 0.130300 0.259748
Ni3   Ni    Ni4+2 0.934860 0.934850 0.869700 0.254651
Ni4   Ni    Ni4+2 0.065140 0.934850 0.130300 0.251114
Ni5   Ni    Ni4+2 0.565130 0.565140 0.130240 0.278038
Ni6   Ni    Ni4+2 0.434870 0.565140 0.869760 0.280461
Ni7   Ni    Ni4+2 0.065130 0.065140 0.130240 0.257975
Ni8   Ni    Ni4+2 0.934870 0.065140 0.869760 0.267273
C49   C     C_R   0.049516 0.533339 0.584068 0.138949
C50   C     C_R   0.953914 0.530693 0.519463 0.106378
C51   C     C_R   0.539065 0.973242 0.553083 0.104419
C52   C     C_R   0.447900 0.973684 0.467316 0.155705
C53   C     C_R   0.102332 0.505361 0.555137 0.040711
C54   C     C_R   0.909621 0.499586 0.425382 0.034902
C55   C     C_R   0.605792 0.997544 0.543474 0.023342
C56   C     C_R   0.421706 0.997217 0.369417 0.015702
C57   C     C_R   0.058505 0.479901 0.453927 -0.202018
C58   C     C_R   0.961138 0.477147 0.388230 -0.212452
C59   C     C_R   0.583253 0.016234 0.442781 -0.124403
C60   C     C_R   0.489322 0.016093 0.354047 -0.213369
C61   C     C_3   0.947696 0.526379 0.614331 -0.434724
C62   C     C_3   0.054053 0.529712 0.686404 -0.505561
C63   C     C_3   0.413462 0.985156 0.536503 -0.429114
C64   C     C_3   0.515731 0.984636 0.632879 -0.511783
H17   H     H_    0.912937 0.563019 0.621378 0.188185
H18   H     H_    0.088631 0.491172 0.733188 0.201143
H19   H     H_    0.379469 0.026372 0.520189 0.207729
H20   H     H_    0.534093 0.949293 0.689103 0.199830
H21   H     H_    0.920244 0.485802 0.618624 0.232862
H22   H     H_    0.080840 0.568403 0.734701 0.185581
H23   H     H_    0.372580 0.950126 0.536956 0.217065
H24   H     H_    0.541481 0.025545 0.672976 0.200428
C65   C     C_R   0.157924 0.684821 0.900647 -0.160392
C66   C     C_R   0.837774 0.689230 0.101364 -0.150409
C67   C     C_R   0.661034 0.188643 0.898347 -0.155262
C68   C     C_R   0.210953 0.267275 0.097645 -0.165581
H25   H     H_    0.137814 0.668355 0.823206 0.103949
H26   H     H_    0.856278 0.674189 0.179096 0.112833
H27   H     H_    0.642673 0.173779 0.820610 0.115233
H28   H     H_    0.233971 0.249598 0.175319 0.122828
C69   C     C_R   0.612138 0.233572 0.898227 -0.134363
C70   C     C_R   0.257948 0.313461 0.098504 -0.157068
C71   C     C_R   0.110069 0.730919 0.899662 -0.153993
C72   C     C_R   0.886914 0.733878 0.101652 -0.142392
C73   C     C_R   0.641905 0.258710 0.997102 0.137421
C74   C     C_R   0.239329 0.333521 0.000461 0.141596
C75   C     C_R   0.141074 0.757524 0.997694 0.138271
C76   C     C_R   0.857446 0.759118 0.002888 0.133703
C77   C     C_R   0.706075 0.231180 0.095354 -0.167596
C78   C     C_R   0.159668 0.314654 0.901532 -0.160722
C79   C     C_R   0.207665 0.731221 0.096728 -0.165677
C80   C     C_R   0.793092 0.731967 0.904554 -0.167584
H29   H     H_    0.725743 0.246948 0.173068 0.119582
H30   H     H_    0.138868 0.331607 0.824086 0.110068
H31   H     H_    0.230281 0.748649 0.174382 0.121439
H32   H     H_    0.773710 0.747757 0.826907 0.118526
C81   C     C_R   0.255539 0.685260 0.097607 -0.154311
C82   C     C_R   0.743624 0.687367 0.904322 -0.158937
C83   C     C_R   0.755117 0.186206 0.095382 -0.161992
C84   C     C_R   0.112763 0.268284 0.900548 -0.147136
C85   C     C_R   0.237745 0.665772 0.999647 0.145455
C86   C     C_R   0.758680 0.670339 0.002276 0.142953
C87   C     C_R   0.740070 0.169381 0.997363 0.138694
C88   C     C_R   0.144348 0.241319 0.998552 0.140833
C89   C     C_R   0.570685 0.552276 0.596470 -0.156619
C90   C     C_R   0.581729 0.553003 0.513730 -0.190010
C91   C     C_R   0.918558 0.053187 0.485683 -0.180219
C92   C     C_R   0.926531 0.052796 0.400563 -0.149738
C93   C     C_R   0.601381 0.504112 0.481551 0.123963
C94   C     C_R   0.577698 0.502477 0.647857 0.054487
C95   C     C_R   0.920398 0.002942 0.349907 0.047918
C96   C     C_R   0.901796 0.004033 0.519924 0.112961
C97   C     C_R   0.634928 0.457695 0.551515 -0.084707
C98   C     C_R   0.621506 0.456352 0.636033 -0.108535
C99   C     C_R   0.878495 0.956635 0.363497 -0.109827
C100  C     C_R   0.868046 0.957610 0.450275 -0.084998
H33   H     H_    0.251345 0.373256 0.826307 0.110865
H34   H     H_    0.689529 0.333366 0.171132 0.142125
H35   H     H_    0.808888 0.834122 0.828735 0.136586
H36   H     H_    0.171638 0.829461 0.166847 0.151847
H37   H     H_    0.558462 0.251499 0.820506 0.127224
H38   H     H_    0.314995 0.329319 0.176405 0.114733
H39   H     H_    0.055210 0.748223 0.821776 0.116204
H40   H     H_    0.940685 0.751514 0.179398 0.122519
H41   H     H_    0.312678 0.669211 0.175520 0.111508
H42   H     H_    0.687949 0.670247 0.826853 0.110077
H43   H     H_    0.810744 0.168749 0.172786 0.110464
H44   H     H_    0.057890 0.251249 0.822651 0.117973
H45   H     H_    0.546981 0.590320 0.610368 0.114823
H46   H     H_    0.563054 0.590894 0.467598 0.119826
H47   H     H_    0.936845 0.091132 0.531306 0.119379
H48   H     H_    0.947585 0.091110 0.384278 0.112756
C101  C     C_2   0.691394 0.414990 0.542701 0.499257
H49   H     H_    0.685610 0.371718 0.555695 0.103239
O1    O     O_2   0.746967 0.428449 0.521900 -0.598591
C102  C     C_2   0.659738 0.410930 0.717504 0.437414
H50   H     H_    0.688597 0.420377 0.801874 0.035629
O2    O     O_2   0.655716 0.362784 0.691361 -0.598498
C103  C     C_2   0.838755 0.911611 0.281334 0.450747
H51   H     H_    0.811689 0.921159 0.197458 0.035378
O3    O     O_2   0.838670 0.863653 0.306075 -0.597293
C104  C     C_2   0.814143 0.914494 0.461620 0.521935
H52   H     H_    0.826325 0.871067 0.457002 0.095213
O4    O     O_2   0.753962 0.927737 0.475296 -0.595035
C105  C     C_2   0.245686 0.601367 0.651461 0.447648
H53   H     H_    0.186085 0.612532 0.570365 0.021759
O5    O     O_2   0.309968 0.634091 0.703238 -0.590861
C106  C     C_2   0.767034 0.600005 0.349282 0.445142
H54   H     H_    0.831495 0.611456 0.425548 0.022325
O6    O     O_2   0.701603 0.632691 0.305755 -0.592000
C107  C     C_2   0.735397 0.100666 0.649309 0.436085
H55   H     H_    0.671611 0.111523 0.571345 0.028234
O7    O     O_2   0.799177 0.134107 0.695568 -0.600422
C108  C     C_2   0.303659 0.098881 0.315650 0.442320
H56   H     H_    0.371016 0.114639 0.338550 0.023255
O8    O     O_2   0.259723 0.123772 0.343569 -0.596221
C109  C     C_2   0.237865 0.399988 0.649240 0.448199
H57   H     H_    0.175060 0.388938 0.570832 0.022736
O9    O     O_2   0.302116 0.366652 0.697217 -0.598442
C110  C     C_2   0.774213 0.398771 0.345707 0.554163
H58   H     H_    0.845023 0.383853 0.404924 0.008719
O10   O     O_2   0.707601 0.371300 0.326328 -0.606135
C111  C     C_2   0.734705 0.898549 0.653788 0.550891
H59   H     H_    0.665605 0.883126 0.590591 0.019709
O11   O     O_2   0.803867 0.871248 0.680438 -0.624356
C112  C     C_2   0.299622 0.897878 0.304638 0.442844
H60   H     H_    0.361691 0.879619 0.315861 0.021074
O12   O     O_2   0.260384 0.874054 0.339685 -0.600631
H61   H     H_    0.428904 0.370885 0.176611 0.098783
H62   H     H_    0.510875 0.334883 0.824736 0.131432
H63   H     H_    0.989380 0.834628 0.175343 0.110834
H64   H     H_    0.013883 0.835754 0.823413 0.117011
H65   H     H_    0.098975 0.460448 0.428436 0.132550
H66   H     H_    0.926199 0.456561 0.310181 0.130489
H67   H     H_    0.636741 0.032466 0.434426 0.147742
H68   H     H_    0.469157 0.032326 0.276142 0.142085

loop_
_geom_bond_atom_site_label_1
_geom_bond_atom_site_label_2
_geom_bond_distance
_ccdc_geom_bond_type
N6    N26   1.395864 A    
C17   C41   1.374579 A    
N27   Ni8   1.858826 S    
N5    N25   1.395860 A    
N16   N24   1.376642 A    
C23   N23   1.325599 A    
C32   H64   1.080282 S    
N23   Ni3   1.865510 S    
C97   C98   1.416728 A    
C74   C78   1.404569 A    
N7    N27   1.395860 A    
C91   C92   1.362670 A    
N22   Ni2   1.871178 S    
C97   C101  1.482328 S    
C4    N4    1.336844 A    
C28   N28   1.333946 A    
C66   C72   1.379212 A    
C63   H19   1.112074 S    
C32   C36   1.380919 A    
C65   C85   1.404816 A    
C89   C90   1.362137 A    
C84   H44   1.080792 S    
N26   Ni5   1.860620 S    
N15   Ni8   1.871185 S    
C9    C41   1.384829 A    
N25   Ni6   1.858826 S    
C22   C110  1.469277 S    
C48   C56   1.415067 S    
N10   Ni1   1.861200 S    
C1    H33   1.073632 S    
C67   C87   1.401512 A    
C68   C88   1.404894 A    
C31   N31   1.330405 A    
C80   C82   1.382153 A    
N9    Ni2   1.859530 S    
C1    N1    1.335061 A    
C28   H16   1.072139 S    
C43   C95   1.465236 S    
C24   N24   1.324836 A    
C110  O10   1.219846 D    
C82   C86   1.399273 A    
N14   Ni5   1.865523 S    
C67   H27   1.079823 S    
C63   H23   1.111478 S    
C62   H18   1.112447 S    
N13   Ni6   1.871185 S    
C25   C37   1.387460 A    
C83   H43   1.081781 S    
N2    N30   1.395862 A    
C68   C70   1.383456 A    
C59   C60   1.393780 A    
C98   C102  1.486271 S    
C107  O7    1.220412 D    
C26   N26   1.331695 A    
C91   H47   1.080100 S    
N6    Ni6   1.870714 S    
C3    C35   1.379734 A    
C29   C33   1.392292 A    
C101  O1    1.220040 D    
C5    H1    1.078483 S    
N12   N20   1.376402 A    
C77   H29   1.079924 S    
C89   H45   1.077011 S    
C5    C37   1.392941 A    
N14   N22   1.376642 A    
C7    H3    1.072904 S    
C51   C64   1.495263 S    
N20   Ni8   1.860247 S    
N21   Ni1   1.865510 S    
C8    H4    1.080266 S    
C7    C39   1.386177 A    
C4    C36   1.379257 A    
C21   C109  1.474201 S    
C51   C52   1.351237 A    
C100  C104  1.479622 S    
C104  H52   1.082617 S    
C11   H7    1.078293 S    
C19   H11   1.070331 S    
C54   C58   1.408236 A    
C59   H67   1.083205 S    
C89   C94   1.398563 A    
C20   C44   1.378502 A    
C76   C80   1.403444 A    
C20   N20   1.322782 A    
C72   C76   1.399688 A    
N10   N18   1.376402 A    
N15   N23   1.376641 A    
C78   H30   1.080171 S    
C60   H68   1.083062 S    
C105  O5    1.220407 D    
C52   C63   1.493645 S    
C2    N2    1.334724 A    
C71   C75   1.400722 A    
C30   C34   1.377729 A    
C34   C73   1.455975 S    
C79   C81   1.384216 A    
C12   C44   1.386934 A    
C17   N17   1.324141 A    
C14   C46   1.376805 A    
C109  O9    1.220491 D    
C93   C97   1.413919 A    
N13   N21   1.376641 A    
C6    N6    1.337381 A    
C27   H15   1.071751 S    
C81   H41   1.080863 S    
C8    C40   1.383881 A    
C83   C87   1.399404 A    
C107  H55   1.084214 S    
C80   H32   1.079885 S    
N31   Ni4   1.870587 S    
C16   N16   1.335361 A    
C110  H58   1.084899 S    
C23   C47   1.365414 A    
C6    H2    1.072842 S    
C14   C106  1.478090 S    
C111  H59   1.084670 S    
C90   H46   1.080316 S    
C26   H14   1.070273 S    
C23   C111  1.471972 S    
C99   C103  1.487739 S    
C92   H48   1.077186 S    
C109  H57   1.083611 S    
N7    Ni7   1.864928 S    
C46   C54   1.418655 S    
C19   C43   1.385942 A    
C52   C56   1.386030 A    
C64   H20   1.111613 S    
C18   C42   1.386694 A    
C11   N11   1.334962 A    
C79   H31   1.079802 S    
C12   N12   1.337633 A    
C67   C69   1.379002 A    
C22   C46   1.369522 A    
C111  O11   1.219744 D    
C90   C93   1.393198 A    
C26   C38   1.378214 A    
C16   C48   1.384525 A    
C18   H10   1.070066 S    
C17   H9    1.079794 S    
C65   C71   1.386132 A    
C84   C88   1.400555 A    
C68   H28   1.079609 S    
C7    N7    1.336716 A    
C8    N8    1.335062 A    
N30   Ni1   1.864799 S    
C10   C42   1.391946 A    
C1    C33   1.387288 A    
C78   C84   1.385524 A    
N29   Ni2   1.870587 S    
N11   Ni4   1.859530 S    
N9    N17   1.376401 A    
C112  O12   1.221398 D    
C53   C57   1.393374 A    
C38   C86   1.455440 S    
C99   C100  1.415612 A    
C41   C93   1.461128 S    
C27   N27   1.331500 A    
N3    Ni3   1.861816 S    
C18   N18   1.323164 A    
C65   H25   1.080093 S    
C3    H35   1.070028 S    
C33   C74   1.463770 S    
C106  O6    1.220464 D    
N18   Ni6   1.860247 S    
C108  O8    1.220713 D    
C69   C73   1.400309 A    
C50   C61   1.493005 S    
C70   C74   1.399462 A    
C11   C43   1.392023 A    
C49   C62   1.495149 S    
C2    C34   1.380415 A    
C32   N32   1.334906 A    
C37   C85   1.465109 S    
N1    N29   1.395861 A    
C70   H38   1.080816 S    
N12   Ni3   1.861200 S    
N2    Ni2   1.860026 S    
C75   C79   1.404878 A    
C56   C60   1.400911 A    
N3    N31   1.395861 A    
C57   C58   1.388247 A    
C22   N22   1.331611 A    
C96   C100  1.414573 A    
C5    N5    1.336759 A    
C24   C48   1.382337 A    
C9    H5    1.079375 S    
C6    C38   1.386463 A    
C21   N21   1.340876 A    
C10   N10   1.335044 A    
C27   C39   1.378540 A    
C14   N14   1.333469 A    
C51   C55   1.382966 A    
C92   C95   1.398592 A    
N5    Ni5   1.864928 S    
C12   H8    1.079278 S    
N11   N19   1.376401 A    
C104  O4    1.219677 D    
N24   Ni4   1.871178 S    
C13   C45   1.363785 A    
C9    N9    1.340405 A    
C58   H66   1.083609 S    
C95   C99   1.416876 A    
C63   C64   1.516500 S    
C64   H24   1.112554 S    
C57   H65   1.083003 S    
N8    Ni8   1.870714 S    
N28   Ni7   1.860620 S    
C73   C77   1.403159 A    
C49   C50   1.363030 A    
C30   N30   1.329407 A    
C3    N3    1.334103 A    
C36   C75   1.464767 S    
C105  H53   1.085089 S    
C66   C86   1.402230 A    
C25   N25   1.335786 A    
C102  H50   1.085563 S    
C31   H63   1.079755 S    
C91   C96   1.393364 A    
N4    Ni4   1.860026 S    
N32   Ni3   1.864799 S    
C20   H12   1.079774 S    
C47   C55   1.405865 S    
C61   C62   1.516896 S    
C2    H34   1.069695 S    
N16   Ni7   1.865523 S    
C24   C112  1.472212 S    
C31   C35   1.378925 A    
C35   C76   1.456031 S    
C49   C53   1.395997 A    
C19   N19   1.322982 A    
C15   N15   1.337191 A    
C82   H42   1.081712 S    
C13   C105  1.475368 S    
C72   H40   1.080290 S    
C94   C98   1.418499 A    
C39   C87   1.454453 S    
N1    Ni1   1.861816 S    
C40   C88   1.463880 S    
C81   C85   1.399823 A    
C101  H49   1.081693 S    
C66   H26   1.079636 S    
C13   N13   1.326059 A    
C44   C96   1.461294 S    
C29   H61   1.078162 S    
C71   H39   1.080865 S    
C10   H6    1.078270 S    
C103  H51   1.085573 S    
C77   C83   1.381913 A    
C25   H13   1.074635 S    
C15   C107  1.475618 S    
C69   H37   1.080187 S    
C106  H54   1.082240 S    
C50   C54   1.381626 A    
C108  H56   1.084989 S    
C4    H36   1.071926 S    
C45   C53   1.419137 S    
N4    N32   1.395862 A    
C29   N29   1.335749 A    
N8    N28   1.395864 A    
C55   C59   1.400502 A    
C61   H17   1.111534 S    
C62   H22   1.111569 S    
C61   H21   1.112045 S    
N19   Ni7   1.861921 S    
C112  H60   1.085749 S    
C28   C40   1.380078 A    
C21   C45   1.378470 A    
C42   C94   1.466448 S    
C30   H62   1.079639 S    
N17   Ni5   1.861921 S    
C102  O2    1.219941 D    
C15   C47   1.367805 A    
C103  O3    1.219877 D    
C16   C108  1.471033 S    
