data_mof_unit_55891.cif
_audit_creation_date              2012-12-11T15:06:43-0500
_audit_creation_method            fapswitch 2.2
_symmetry_space_group_name_H-M    P1
_symmetry_Int_Tables_number       1
_space_group_crystal_system       triclinic
_cell_length_a                    7.235289
_cell_length_b                    15.353386
_cell_length_c                    22.287456
_cell_angle_alpha                 89.999937
_cell_angle_beta                  89.997837
_cell_angle_gamma                 90.000471
_cell_volume                      2475.82845495

loop_
_atom_site_label
_atom_site_type_symbol
_atom_type_description
_atom_site_fract_x
_atom_site_fract_y
_atom_site_fract_z
_atom_type_partial_charge
O1    O     O_R   0.390810 0.844810 0.447340 -0.545491
O2    O     O_R   0.109190 0.155190 0.947340 -0.545479
O3    O     O_R   0.890810 0.655190 0.552660 -0.545479
O4    O     O_R   0.609190 0.344810 0.052660 -0.545493
O5    O     O_R   0.720550 0.655820 0.440420 -0.538385
O6    O     O_R   0.779450 0.344180 0.940420 -0.538386
O7    O     O_R   0.220550 0.844180 0.559580 -0.538387
O8    O     O_R   0.279450 0.155820 0.059580 -0.538393
C1    C     C_R   0.552610 0.627134 0.426564 0.698113
C2    C     C_R   0.947395 0.372866 0.926565 0.698059
C3    C     C_R   0.052607 0.872867 0.573434 0.698114
C4    C     C_R   0.447388 0.127134 0.073435 0.698191
O9    O     O_R   0.720530 0.844130 0.440420 -0.531043
O10   O     O_R   0.779470 0.155870 0.940420 -0.531000
O11   O     O_R   0.220530 0.655870 0.559580 -0.531048
O12   O     O_R   0.279470 0.344130 0.059580 -0.531072
O13   O     O_R   0.890830 0.844810 0.552660 -0.531900
O14   O     O_R   0.609170 0.155190 0.052660 -0.531887
O15   O     O_R   0.390830 0.655190 0.447340 -0.531904
O16   O     O_R   0.109170 0.344810 0.947340 -0.531912
C5    C     C_R   0.553351 0.873424 0.426716 0.732922
C6    C     C_R   0.946654 0.126580 0.926714 0.732970
C7    C     C_R   0.053346 0.626578 0.573285 0.732932
C8    C     C_R   0.446649 0.373424 0.073284 0.732890
O17   O     O_3   0.557310 0.749980 0.536820 -0.381241
O18   O     O_3   0.942690 0.250020 0.036820 -0.381263
O19   O     O_3   0.057310 0.750020 0.463180 -0.381250
O20   O     O_3   0.442690 0.249980 0.963180 -0.381229
V1    V     V_3+5 0.832160 0.749980 0.493170 1.441665
V2    V     V_3+5 0.667840 0.250020 0.993170 1.441732
V3    V     V_3+5 0.332160 0.750020 0.506830 1.441652
V4    V     V_3+5 0.167840 0.249980 0.006830 1.441625
C9    C     C_R   0.878814 0.595309 0.860950 -0.001241
C10   C     C_R   0.621421 0.404717 0.360931 -0.001254
C11   C     C_R   0.378514 0.904725 0.139073 -0.001252
C12   C     C_R   0.121264 0.095302 0.639052 -0.001238
H1    H     H_    0.867308 0.537550 0.948844 0.148680
H2    H     H_    0.632907 0.462469 0.448827 0.148693
H3    H     H_    0.367035 0.962474 0.051176 0.148679
H4    H     H_    0.132773 0.037543 0.551158 0.148665
H5    H     H_    0.784272 0.700479 0.768222 0.154391
H6    H     H_    0.715977 0.299571 0.268189 0.154402
H7    H     H_    0.283988 0.799574 0.231817 0.154413
H8    H     H_    0.215756 0.200479 0.731781 0.154407
C13   C     C_R   0.952123 0.444658 0.882755 -0.088878
C14   C     C_R   0.547906 0.555344 0.382752 -0.088897
C15   C     C_R   0.452086 0.055344 0.117248 -0.088905
C16   C     C_R   0.047885 0.944659 0.617244 -0.088879
C17   C     C_R   0.170613 0.480386 0.597692 0.199188
C18   C     C_R   0.329263 0.519591 0.097711 0.199257
C19   C     C_R   0.670702 0.019599 0.402293 0.199203
C20   C     C_R   0.829464 0.980371 0.902315 0.199078
C21   C     C_R   0.235394 0.422243 0.640754 -0.125961
C22   C     C_R   0.264439 0.577707 0.140783 -0.125978
C23   C     C_R   0.735493 0.077730 0.359223 -0.125967
C24   C     C_R   0.764724 0.922209 0.859260 -0.125910
C25   C     C_R   0.180592 0.429251 0.700245 -0.103964
C26   C     C_R   0.319307 0.570709 0.200267 -0.103961
C27   C     C_R   0.680649 0.070724 0.299738 -0.103954
C28   C     C_R   0.819470 0.929231 0.799764 -0.103962
C29   C     C_R   0.052202 0.493092 0.718665 0.102696
C30   C     C_R   0.447790 0.506900 0.218669 0.102677
C31   C     C_R   0.552192 0.006904 0.281332 0.102677
C32   C     C_R   0.947814 0.993090 0.781336 0.102685
C33   C     C_R   0.998038 0.557295 0.675700 -0.008209
C34   C     C_R   0.501989 0.442713 0.175696 -0.008209
C35   C     C_R   0.498007 0.942712 0.324305 -0.008202
C36   C     C_R   0.001957 0.057301 0.824298 -0.008201
C37   C     C_R   0.990748 0.500193 0.779777 0.074483
C38   C     C_R   0.509295 0.499810 0.279775 0.074482
C39   C     C_R   0.490687 0.999812 0.220226 0.074494
C40   C     C_R   0.009264 0.000193 0.720222 0.074496
C41   C     C_R   0.912177 0.580477 0.799041 0.014766
C42   C     C_R   0.587979 0.419544 0.299027 0.014778
C43   C     C_R   0.411986 0.919548 0.200975 0.014774
C44   C     C_R   0.087856 0.080476 0.700959 0.014759
C45   C     C_R   0.859659 0.642344 0.755795 -0.119985
C46   C     C_R   0.640521 0.357691 0.255773 -0.120017
C47   C     C_R   0.359452 0.857693 0.244230 -0.120044
C48   C     C_R   0.140359 0.142345 0.744206 -0.120004
C49   C     C_R   0.894126 0.628744 0.695169 -0.206441
C50   C     C_R   0.605978 0.371282 0.195152 -0.206461
C51   C     C_R   0.394016 0.871280 0.304850 -0.206457
C52   C     C_R   0.105865 0.128752 0.804830 -0.206429
C53   C     C_R   0.998451 0.430239 0.821987 0.127996
C54   C     C_R   0.501533 0.569759 0.321989 0.127987
C55   C     C_R   0.498454 0.069760 0.178011 0.127978
C56   C     C_R   0.001554 0.930239 0.678011 0.128002
C57   C     C_R   0.896991 0.526911 0.901691 -0.229545
C58   C     C_R   0.603169 0.473104 0.401678 -0.229561
C59   C     C_R   0.396792 0.973108 0.098324 -0.229564
C60   C     C_R   0.103061 0.026907 0.598310 -0.229541
C61   C     C_R   0.058516 0.551143 0.614953 -0.090934
C62   C     C_R   0.441460 0.448858 0.114955 -0.090962
C63   C     C_R   0.558539 0.948856 0.385045 -0.090958
C64   C     C_R   0.941488 0.051149 0.885045 -0.090920
H9    H     H_    0.250470 0.387147 0.731526 0.155299
H10   H     H_    0.249410 0.612792 0.231559 0.155319
H11   H     H_    0.750540 0.112814 0.268448 0.155317
H12   H     H_    0.749596 0.887118 0.768488 0.155310
H13   H     H_    0.334463 0.372595 0.628278 0.138219
H14   H     H_    0.165296 0.627329 0.128321 0.138231
H15   H     H_    0.834605 0.127365 0.371688 0.138242
H16   H     H_    0.665711 0.872539 0.871742 0.138226
H17   H     H_    0.842922 0.676090 0.663592 0.125830
H18   H     H_    0.657182 0.323938 0.163571 0.125862
H19   H     H_    0.342818 0.823935 0.336430 0.125864
H20   H     H_    0.157060 0.176099 0.836407 0.125824
C65   C     C_2   0.836612 0.682447 0.885656 0.739715
O21   O     O_2   0.919701 0.746171 0.866968 -0.558481
O22   O     O_R   0.710645 0.690887 0.932901 -0.660213
H21   H     H_    0.698022 0.753194 0.947349 0.291689
C66   C     C_2   0.663805 0.317592 0.385626 0.739756
O23   O     O_2   0.580798 0.253839 0.366950 -0.558487
O24   O     O_R   0.789860 0.309193 0.432846 -0.660229
H22   H     H_    0.802601 0.246891 0.447288 0.291691
C67   C     C_2   0.336025 0.817608 0.114381 0.739765
O25   O     O_2   0.419016 0.753839 0.133039 -0.558486
O26   O     O_R   0.209869 0.809234 0.067187 -0.660262
H23   H     H_    0.197001 0.746929 0.052759 0.291668
C68   C     C_2   0.163597 0.182429 0.614350 0.739743
O27   O     O_2   0.080525 0.246172 0.633013 -0.558473
O28   O     O_R   0.289689 0.190839 0.567137 -0.660222
H24   H     H_    0.302430 0.253143 0.552695 0.291670
N1    N     N_3   0.032929 0.342997 0.802409 -0.681540
H25   H     H_    0.149333 0.320665 0.825442 0.213568
H26   H     H_    0.919484 0.304056 0.813623 0.230000
N2    N     N_3   0.466980 0.656997 0.302415 -0.681519
H27   H     H_    0.350585 0.679319 0.325460 0.213589
H28   H     H_    0.580412 0.695954 0.313616 0.229983
N3    N     N_3   0.533001 0.156999 0.197584 -0.681515
H29   H     H_    0.649410 0.179319 0.174543 0.213580
H30   H     H_    0.419579 0.195956 0.186374 0.229981
N4    N     N_3   0.967075 0.842997 0.697588 -0.681548
H31   H     H_    0.850667 0.820665 0.674555 0.213567
H32   H     H_    0.080516 0.804055 0.686371 0.230005
N5    N     N_3   0.230058 0.471350 0.536603 -0.653205
H33   H     H_    0.188720 0.409984 0.521318 0.246440
H34   H     H_    0.374519 0.473390 0.535754 0.221003
N6    N     N_3   0.269728 0.528613 0.036631 -0.653144
H35   H     H_    0.310712 0.590047 0.021365 0.246376
H36   H     H_    0.125267 0.526395 0.035802 0.220991
N7    N     N_3   0.730208 0.028628 0.463375 -0.653197
H37   H     H_    0.688930 0.090001 0.478665 0.246413
H38   H     H_    0.874670 0.026562 0.464207 0.220997
N8    N     N_3   0.770124 0.971310 0.963413 -0.653317
H39   H     H_    0.812064 0.910063 0.978735 0.246538
H40   H     H_    0.625661 0.973047 0.964279 0.221007

loop_
_geom_bond_atom_site_label_1
_geom_bond_atom_site_label_2
_ccdc_geom_bond_type
O17   V3    S    
C39   C43   A    
C26   C30   A    
C8    C62   S    
C23   C27   A    
O19   V1    S    
O13   V1    S    
O3    C7    A    
O22   H21   S    
C26   H10   S    
C48   C52   A    
C32   C40   A    
O15   V3    S    
N2    H27   S    
C14   C54   A    
O28   H24   S    
C10   C66   S    
O1    C5    A    
N5    H34   S    
C11   C43   A    
C36   C64   A    
C32   C36   A    
O9    V1    S    
N6    H36   S    
N8    H39   S    
C17   N5    S    
C65   O22   S    
H5    C45   S    
O4    C8    A    
C18   N6    S    
N7    H37   S    
H7    C47   S    
O24   H22   S    
C23   H15   S    
O1    V3    S    
C27   H11   S    
C30   C38   A    
O2    V4    S    
C55   N3    S    
O3    V1    S    
C12   C44   A    
C53   N1    S    
C1    O15   A    
C2    O16   A    
C19   C63   A    
C38   C42   A    
C16   C56   A    
C37   C41   A    
O14   V2    S    
C13   C57   A    
O5    V1    S    
C40   C44   A    
C34   C62   A    
C12   C60   A    
O11   C7    A    
C1    C14   S    
O12   C8    A    
C35   C63   A    
C3    C16   S    
C15   C59   A    
O10   V2    S    
C4    C15   S    
H3    C59   S    
C40   C56   A    
O16   V4    S    
N8    H40   S    
C31   C35   A    
O7    V3    S    
C30   C34   A    
C54   N2    S    
O8    V4    S    
H8    C48   S    
N6    H35   S    
C24   H16   S    
C65   O21   D    
C21   H13   S    
C21   C25   A    
O18   V4    S    
C18   C62   A    
N4    H32   S    
C5    C63   S    
C28   H12   S    
C7    C61   S    
C36   C52   A    
O7    C3    A    
C10   C58   A    
O5    C1    A    
C9    C57   A    
C34   C50   A    
C46   C50   A    
C33   C49   A    
C45   C49   A    
O8    C4    A    
C25   H9    S    
C2    C13   S    
O9    C5    A    
C18   C22   A    
C35   C51   A    
H4    C60   S    
C25   C29   A    
C68   O27   D    
C10   C42   A    
C39   C55   A    
C9    C41   A    
O6    V2    S    
C31   C39   A    
H6    C46   S    
C16   C60   A    
N1    H25   S    
C11   C67   S    
C9    C65   S    
N3    H29   S    
C38   C54   A    
C37   C53   A    
C66   O23   D    
C22   C26   A    
C29   C37   A    
N7    H38   S    
C49   H17   S    
C3    O13   A    
C20   N8    S    
C6    C64   S    
C22   H14   S    
C44   C48   A    
N3    H30   S    
N2    H28   S    
O6    C2    A    
O26   H23   S    
O11   V3    S    
N4    H31   S    
C14   C58   A    
C19   N7    S    
O12   V4    S    
N5    H33   S    
H2    C58   S    
C27   C31   A    
H1    C57   S    
C13   C53   A    
C28   C32   A    
O10   C6    A    
C67   O26   S    
C12   C68   S    
C56   N4    S    
O2    C6    A    
C47   C51   A    
C17   C21   A    
O20   V2    S    
C33   C61   A    
C52   H20   S    
C51   H19   S    
C20   C64   A    
C19   C23   A    
C50   H18   S    
C68   O28   S    
C29   C33   A    
C24   C28   A    
C42   C46   A    
C4    O14   A    
N1    H26   S    
C41   C45   A    
C17   C61   A    
C67   O25   D    
C43   C47   A    
O4    V2    S    
C20   C24   A    
C15   C55   A    
C66   O24   S    
C11   C59   A    
