data_mof_unit_34367.cif
_audit_creation_date              2012-12-10T17:48:53-0500
_audit_creation_method            fapswitch 2.2
_symmetry_space_group_name_H-M    P1
_symmetry_Int_Tables_number       1
_space_group_crystal_system       triclinic
_cell_length_a                    10.745231
_cell_length_b                    14.724743
_cell_length_c                    14.801384
_cell_angle_alpha                 65.006365
_cell_angle_beta                  103.846716
_cell_angle_gamma                 102.947884
_cell_volume                      2040.68457749

loop_
_atom_site_label
_atom_site_type_symbol
_atom_type_description
_atom_site_fract_x
_atom_site_fract_y
_atom_site_fract_z
_atom_type_partial_charge
C1    C     C_R   0.477696 0.119642 0.312514 0.788179
C2    C     C_3   0.878197 0.999268 0.501924 -0.356388
C3    C     C_3   0.922307 0.896883 0.579658 0.418102
C4    C     C_3   0.964758 0.087310 0.529251 0.436344
C5    C     C_R   0.460180 0.187440 0.205358 -0.092194
C6    C     C_R   0.529128 0.812490 0.794674 -0.149090
C7    C     C_R   0.399793 0.217025 0.028224 -0.145757
C8    C     C_R   0.413388 0.150116 0.129092 -0.163638
C9    C     C_R   0.489372 0.291843 0.179816 -0.119333
C10   C     C_R   0.464627 0.361075 0.079611 0.123952
C11   C     C_R   0.427205 0.321854 0.002985 0.140760
C12   C     C_R   0.260050 0.999904 0.500571 0.909735
C13   C     C_R   0.483979 0.467837 0.053039 -0.159955
C14   C     C_R   0.479492 0.533483 0.949236 0.018372
C15   C     C_R   0.457196 0.490569 0.876367 -0.049805
C16   C     C_R   0.424898 0.387189 0.902280 -0.203378
C17   C     C_R   0.507163 0.511895 0.125626 0.511123
C18   C     C_R   0.548161 0.614987 0.099028 0.581308
C19   C     C_R   0.550549 0.679347 0.998057 -0.147135
C20   C     C_R   0.503903 0.640123 0.921856 -0.098933
C21   C     C_R   0.592659 0.783388 0.971703 -0.059998
C22   C     C_R   0.586528 0.848921 0.870559 -0.209134
C23   C     C_R   0.519536 0.880330 0.687457 0.875092
C24   C     C_R   0.480291 0.709548 0.821081 0.591140
C25   C     C_R   0.718556 0.285679 0.667041 0.459566
C26   C     C_R   0.682461 0.203097 0.639116 0.633034
C27   C     C_R   0.517944 0.285265 0.509653 0.763203
C28   C     C_R   0.541729 0.367926 0.540909 -0.177701
C29   C     C_R   0.649913 0.368965 0.617322 -0.178952
C30   C     C_R   0.466874 0.450884 0.497424 0.032969
C31   C     C_R   0.514569 0.539899 0.519319 0.039076
C32   C     C_R   0.626846 0.538464 0.592261 -0.167655
C33   C     C_R   0.690166 0.453670 0.642266 -0.021938
C34   C     C_R   0.740012 0.999419 0.500831 0.931081
C35   C     C_R   0.342504 0.446311 0.438346 0.704111
C36   C     C_R   0.278997 0.530948 0.388050 -0.167318
C37   C     C_R   0.329790 0.621010 0.401326 -0.092670
C38   C     C_R   0.445722 0.626010 0.469989 -0.086154
C39   C     C_R   0.261693 0.704628 0.350742 0.587835
C40   C     C_R   0.306287 0.791439 0.370855 0.058928
C41   C     C_R   0.485316 0.716952 0.487265 0.073142
C42   C     C_3   0.039772 0.010750 0.396002 0.457663
C43   C     C_3   0.897141 0.014338 0.395625 -0.653649
C44   C     C_3   0.068213 0.899374 0.583800 0.393670
C45   C     C_3   0.107081 0.089981 0.525240 0.907718
C46   C     C_3   0.121948 0.999631 0.501442 -0.414410
Cu1   Cu    Cu3+1 0.465900 0.918260 0.475680 1.037421
Cu2   Cu    Cu3+1 0.534100 0.081740 0.524320 1.126814
H1    H     H_    0.369064 0.186856 0.969854 0.170904
H2    H     H_    0.390455 0.069518 0.147176 0.178302
H3    H     H_    0.537837 0.317232 0.239139 0.238056
H4    H     H_    0.631398 0.814163 0.029168 0.216309
H5    H     H_    0.773889 0.455798 0.699584 0.206964
H6    H     H_    0.865800 0.834708 0.556554 0.158919
N1    N     N_R   0.585360 0.204570 0.560800 -0.357860
N2    N     N_R   0.414550 0.795430 0.439160 -0.236862
O1    O     O_R   0.455060 0.022100 0.338110 -0.610367
O2    O     O_R   0.512640 0.160150 0.379180 -0.537794
O3    O     O_R   0.288900 0.930980 0.479450 -0.498714
O4    O     O_R   0.346480 0.069030 0.520520 -0.499099
O5    O     O_R   0.487360 0.839850 0.620820 -0.531124
O6    O     O_R   0.544940 0.977900 0.661890 -0.550334
O7    O     O_R   0.653520 0.930970 0.479480 -0.621534
O8    O     O_R   0.711100 0.069020 0.520550 -0.518074
F1    F     F_    0.046285 0.931023 0.371453 -0.573968
F2    F     F_    0.952389 0.076761 0.624594 -0.491251
H7    H     H_    0.121940 0.894482 0.659629 0.170062
F3    F     F_    0.898344 0.876376 0.674904 -0.604048
H8    H     H_    0.404302 0.357904 0.843431 0.165212
F4    F     F_    0.396802 0.680311 0.750283 -0.646629
H9    H     H_    0.623226 0.928386 0.851868 0.223308
F5    F     F_    0.578362 0.652754 0.172210 -0.609691
H10   H     H_    0.078228 0.081676 0.336628 0.145660
H11   H     H_    0.468542 0.534846 0.798652 0.202833
F6    F     F_    0.483124 0.458595 0.221465 -0.604676
H12   H     H_    0.570408 0.727001 0.539668 0.139404
H13   H     H_    0.252672 0.855199 0.333718 0.193380
H14   H     H_    0.185232 0.523871 0.341995 0.232613
F7    F     F_    0.819955 0.283970 0.742687 -0.589661
F8    F     F_    0.746923 0.121890 0.689206 -0.535143
F9    F     F_    0.437066 0.288182 0.423405 -0.523459
H15   H     H_    0.869038 0.088527 0.339044 0.176367
H16   H     H_    0.666965 0.601107 0.614690 0.136811
F10   F     F_    0.271870 0.357847 0.438820 -0.532914
F11   F     F_    0.150837 0.701563 0.284097 -0.620666
H17   H     H_    0.833201 0.954711 0.372001 0.274770
F12   F     F_    0.086047 0.815384 0.570963 -0.570246
F13   F     F_    0.182787 0.085978 0.616888 -0.576955
F14   F     F_    0.147720 0.180521 0.450245 -0.591683
H18   H     H_    0.932462 0.160742 0.474295 0.117727

loop_
_geom_bond_atom_site_label_1
_geom_bond_atom_site_label_2
_ccdc_geom_bond_type
Cu2   N1    S    
C19   C20   A    
C9    H3    S    
C26   N1    A    
C24   F4    S    
C7    C8    A    
C45   C46   S    
C7    C11   A    
C30   C35   A    
C1    C5    S    
C36   C37   A    
C19   C21   A    
Cu1   O7    S    
C30   C31   A    
C3    H6    S    
C27   N1    A    
Cu2   O8    S    
C15   C16   A    
C6    C22   A    
C29   C33   A    
C18   C19   A    
C42   C46   S    
C20   C24   A    
C12   O3    A    
C23   O6    A    
C3    F3    S    
C40   N2    A    
C18   F5    S    
C42   F1    S    
C44   F12   S    
C45   F14   S    
C9    C10   A    
C2    C34   S    
C21   C22   A    
C25   C29   A    
C44   C46   S    
Cu2   O4    S    
C4    H18   S    
C4    C45   S    
C33   H5    S    
C3    C44   S    
Cu1   Cu2   S    
C14   C20   A    
C27   F9    S    
C45   F13   S    
C7    H1    S    
C38   C41   A    
C12   C46   S    
C39   C40   A    
C25   C26   A    
C26   F8    S    
C35   C36   A    
C2    C4    S    
C41   N2    A    
C5    C9    A    
C37   C38   A    
C1    O1    A    
Cu1   O1    S    
C11   C16   A    
Cu2   O6    S    
C31   C32   A    
C2    C43   S    
C6    C24   A    
C34   O8    A    
C17   C18   A    
C42   C43   S    
C39   F11   S    
C8    H2    S    
C22   H9    S    
C32   H16   S    
C28   C29   A    
C42   H10   S    
C25   F7    S    
C43   H17   S    
C16   H8    S    
C10   C13   A    
Cu1   O5    S    
C5    C8    A    
C35   F10   S    
Cu2   O2    S    
C31   C38   A    
C13   C17   A    
C32   C33   A    
C28   C30   A    
C2    C3    S    
C37   C39   A    
C36   H14   S    
C1    O2    A    
C41   H12   S    
C4    F2    S    
C6    C23   S    
C34   O7    A    
C40   H13   S    
C10   C11   A    
Cu1   O3    S    
C12   O4    A    
C23   O5    A    
C15   H11   S    
C27   C28   A    
C17   F6    S    
C43   H15   S    
C14   C15   A    
C44   H7    S    
C13   C14   A    
C21   H4    S    
Cu1   N2    S    
