data_mof_unit_35660.cif
_audit_creation_date              2012-12-10T19:10:06-0500
_audit_creation_method            fapswitch 2.2
_symmetry_space_group_name_H-M    P1
_symmetry_Int_Tables_number       1
_space_group_crystal_system       triclinic
_cell_length_a                    10.914997
_cell_length_b                    10.780456
_cell_length_c                    9.609233
_cell_angle_alpha                 90.269173
_cell_angle_beta                  91.057698
_cell_angle_gamma                 90.01306
_cell_volume                      1130.50023681

loop_
_atom_site_label
_atom_site_type_symbol
_atom_type_description
_atom_site_fract_x
_atom_site_fract_y
_atom_site_fract_z
_atom_type_partial_charge
C1    C     C_R   0.498858 0.262733 0.499880 0.804258
C2    C     C_R   0.821206 0.678547 0.935346 -0.154513
C3    C     C_R   0.799455 0.583504 0.029541 -0.103336
C4    C     C_R   0.262379 0.500745 0.498412 0.775597
C5    C     C_R   0.827830 0.460651 0.994987 -0.135983
C6    C     C_R   0.873121 0.432148 0.863615 -0.137186
C7    C     C_R   0.890975 0.527131 0.767094 0.154809
C8    C     C_R   0.550692 0.064951 0.609243 0.096131
C9    C     C_R   0.492493 0.129523 0.501580 -0.066822
C10   C     C_R   0.422444 0.064393 0.401466 -0.175652
C11   C     C_R   0.421276 0.934870 0.402931 -0.215256
C12   C     C_R   0.169470 0.613956 0.966684 -0.105402
C13   C     C_R   0.492405 0.870756 0.502283 -0.082255
C14   C     C_R   0.552732 0.937091 0.608090 0.070128
C15   C     C_3   0.684475 0.933401 0.655305 -0.219762
C16   C     C_R   0.498724 0.737350 0.500304 0.795636
C17   C     C_3   0.681048 0.074433 0.658441 -0.498034
C18   C     C_R   0.450939 0.596062 0.072597 0.189874
C19   C     C_R   0.541813 0.400195 0.073827 0.634920
C20   C     C_R   0.541157 0.400181 0.925738 -0.153890
C21   C     C_R   0.451239 0.595999 0.926066 0.229941
C22   C     C_3   0.487074 0.728957 0.920724 -0.472636
C23   C     C_R   0.931573 0.501810 0.377812 -0.210507
C24   C     C_3   0.487147 0.729505 0.078479 -0.464949
C25   C     C_R   0.737687 0.500713 0.501721 0.799504
C26   C     C_R   0.140153 0.704920 0.064271 -0.147351
C27   C     C_R   0.109544 0.670710 0.199070 -0.139713
C28   C     C_R   0.108008 0.545035 0.236556 0.144497
C29   C     C_R   0.138660 0.453928 0.138838 -0.110561
C30   C     C_R   0.170728 0.488602 0.004547 -0.153804
C31   C     C_1   0.766775 0.883479 0.548683 0.261654
C32   C     C_R   0.871853 0.500253 0.504829 -0.079252
C33   C     C_R   0.942249 0.500487 0.629628 -0.007357
C34   C     C_R   0.068684 0.491733 0.622837 -0.242595
C35   C     C_R   0.128382 0.499865 0.495822 -0.083326
C36   C     C_R   0.057943 0.510052 0.371843 -0.007570
C37   C     C_R   0.867102 0.650589 0.804466 -0.120209
Cu1   Cu    Cu3+1 0.499990 0.499980 0.640670 0.945252
Cu2   Cu    Cu3+1 0.500010 0.500020 0.359330 0.992383
F1    F     F_    0.590505 0.301089 0.140738 -0.672126
H1    H     H_    0.194032 0.641417 0.862767 0.130156
H2    H     H_    0.140396 0.801776 0.035156 0.125459
H3    H     H_    0.577702 0.320893 0.871184 0.167536
H4    H     H_    0.579229 0.742422 0.876817 0.212044
H5    H     H_    0.413603 0.787591 0.873766 0.192607
H6    H     H_    0.579437 0.744798 0.126246 0.210506
H7    H     H_    0.413269 0.788521 0.120616 0.196652
H8    H     H_    0.083887 0.741656 0.273244 0.135085
H9    H     H_    0.136077 0.356616 0.166141 0.116637
H10   H     H_    0.196352 0.418049 0.930207 0.125539
H11   H     H_    0.879671 0.503445 0.281744 0.160686
H12   H     H_    0.760575 0.605706 0.129157 0.140919
H13   H     H_    0.120833 0.485543 0.718576 0.158102
H14   H     H_    0.885234 0.724916 0.732607 0.125132
H15   H     H_    0.802003 0.773769 0.963636 0.123358
H16   H     H_    0.813518 0.387287 0.069335 0.168166
H17   H     H_    0.894007 0.336813 0.837104 0.117339
H18   H     H_    0.370652 0.113292 0.321644 0.157968
H19   H     H_    0.366885 0.885207 0.325793 0.142704
H20   H     H_    0.698158 0.891293 0.759529 0.135587
H21   H     H_    0.688340 0.113396 0.765598 0.190204
H22   H     H_    0.740515 0.121045 0.581577 0.196707
N1    N     N_R   0.500790 0.500930 0.147930 -0.243438
N2    N     N_R   0.500790 0.500890 0.852020 -0.214431
N3    N     N_1   0.831158 0.844088 0.464931 -0.318021
O1    O     O_R   0.500000 0.319640 0.618810 -0.596584
O2    O     O_R   0.500010 0.319680 0.381230 -0.508016
O3    O     O_R   0.319640 0.499990 0.618790 -0.591729
O4    O     O_R   0.319650 0.500030 0.381210 -0.579091
O5    O     O_R   0.499990 0.680320 0.618770 -0.585664
O6    O     O_R   0.500000 0.680360 0.381190 -0.583608
O7    O     O_R   0.680350 0.499970 0.618790 -0.571453
O8    O     O_R   0.680360 0.500010 0.381210 -0.571594

loop_
_geom_bond_atom_site_label_1
_geom_bond_atom_site_label_2
_ccdc_geom_bond_type
C27   H8    S    
Cu1   O5    S    
C18   C21   A    
C15   H20   S    
C5    H16   S    
C35   C36   A    
C29   H9    S    
C26   C27   A    
C29   C30   A    
C18   C24   S    
C28   C29   A    
C10   H18   S    
C2    H15   S    
C5    C6    A    
C18   N1    A    
C31   N3    T    
C34   C35   A    
C21   N2    A    
C17   H21   S    
C22   H4    S    
Cu1   O1    S    
C19   N1    A    
C8    C9    A    
C9    C10   A    
C25   C32   S    
C30   H10   S    
C4    C35   S    
C13   C14   A    
C7    C33   S    
C6    H17   S    
C16   O6    A    
C11   H19   S    
C4    O4    A    
C1    O1    A    
Cu1   N2    S    
C7    C37   A    
Cu1   O7    S    
C16   O5    A    
C19   F1    S    
C4    O3    A    
C12   C26   A    
C20   N2    A    
C12   H1    S    
C17   H22   S    
C23   H11   S    
C33   C34   A    
Cu2   O4    S    
C1    C9    S    
C25   O7    A    
C37   H14   S    
Cu1   O3    S    
C22   C24   S    
C20   H3    S    
C26   H2    S    
C15   C17   S    
C8    C14   A    
C12   C30   A    
C24   H7    S    
Cu2   O2    S    
C3    C5    A    
C3    H12   S    
C15   C31   S    
C6    C7    A    
Cu2   N1    S    
C8    C17   S    
C24   H6    S    
C32   C33   A    
C19   C20   A    
C2    C3    A    
C23   C32   A    
C11   C13   A    
C2    C37   A    
Cu1   Cu2   S    
C1    O2    A    
C25   O8    A    
Cu2   O8    S    
C10   C11   A    
C22   H5    S    
C28   C36   S    
C34   H13   S    
C23   C36   A    
C13   C16   S    
C27   C28   A    
Cu2   O6    S    
C14   C15   S    
C21   C22   S    
