data_mof_unit_18151.cif
_audit_creation_date              2013-03-05T15:48:24-0500
_audit_creation_method            fapswitch 2.2
_symmetry_space_group_name_H-M    P1
_symmetry_Int_Tables_number       1
_space_group_crystal_system       triclinic
_cell_length_a                    11.678575
_cell_length_b                    13.057266
_cell_length_c                    11.726113
_cell_angle_alpha                 99.880179
_cell_angle_beta                  92.866835
_cell_angle_gamma                 91.730429
_cell_volume                      1758.0263232

loop_
_atom_site_label
_atom_site_type_symbol
_atom_site_description
_atom_site_fract_x
_atom_site_fract_y
_atom_site_fract_z
_atom_type_partial_charge
O1    O     O_R   0.505930 0.354460 0.582000 -0.533736
O2    O     O_R   0.494070 0.645540 0.418000 -0.533753
O3    O     O_R   0.491820 0.341410 0.386200 -0.594779
O4    O     O_R   0.508180 0.658590 0.613800 -0.594808
C1    C     C_R   0.495543 0.299633 0.478807 0.804807
C2    C     C_R   0.504457 0.700366 0.521190 0.804918
O5    O     O_R   0.344250 0.506540 0.597900 -0.528188
O6    O     O_R   0.655750 0.493460 0.402100 -0.528188
O7    O     O_R   0.330140 0.493480 0.402100 -0.592377
O8    O     O_R   0.669860 0.506520 0.597900 -0.592395
C3    C     C_R   0.284100 0.500295 0.500959 0.827186
C4    C     C_R   0.715903 0.499762 0.499051 0.827349
Cu1   Cu    Cu3+1 0.508350 0.507730 0.615930 1.006106
Cu2   Cu    Cu3+1 0.491650 0.492270 0.384070 1.006125
C5    C     C_1   0.162536 0.500562 0.502558 -0.143076
C6    C     C_1   0.837472 0.499595 0.497484 -0.142879
C7    C     C_1   0.059947 0.500378 0.501428 -0.027425
C8    C     C_1   0.940064 0.499835 0.498643 -0.027299
C9    C     C_R   0.513074 0.813461 0.531851 -0.105139
C10   C     C_R   0.486919 0.186534 0.468132 -0.105144
C11   C     C_R   0.392244 0.021258 0.385535 -0.239105
C12   C     C_R   0.607773 0.978731 0.614426 -0.239054
C13   C     C_R   0.404738 0.127819 0.388904 -0.027120
C14   C     C_R   0.595252 0.872176 0.611068 -0.027293
C15   C     C_R   0.556296 0.137262 0.543308 -0.058485
C16   C     C_R   0.443720 0.862729 0.456652 -0.058481
C17   C     C_R   0.541207 0.029265 0.539908 0.096045
C18   C     C_R   0.458817 0.970725 0.460046 0.096051
H1    H     H_    0.326688 0.978852 0.325698 0.158851
H2    H     H_    0.673317 0.021132 0.674283 0.158895
N1    N     N_R   0.520920 0.519350 0.790130 -0.233913
N2    N     N_R   0.479080 0.480650 0.209870 -0.233908
C19   C     C_R   0.375687 0.418187 0.027681 -0.278061
C20   C     C_R   0.624337 0.581779 0.972312 -0.278170
C21   C     C_R   0.389739 0.424601 0.148119 -0.003628
C22   C     C_R   0.610295 0.575350 0.851872 -0.003674
C23   C     C_R   0.557540 0.532828 0.154043 0.517518
C24   C     C_R   0.442453 0.467180 0.845958 0.517507
C25   C     C_R   0.546155 0.528996 0.031961 -0.083170
C26   C     C_R   0.453847 0.470999 0.968039 -0.083206
H3    H     H_    0.671751 0.614527 0.807123 0.177466
H4    H     H_    0.328320 0.385361 0.192849 0.177412
H5    H     H_    0.303396 0.372200 0.982352 0.202256
H6    H     H_    0.696649 0.627741 0.017635 0.202206
C27   C     C_R   0.355406 0.800847 0.374912 0.110728
C28   C     C_R   0.375739 0.773983 0.256580 -0.093407
C29   C     C_R   0.295429 0.711531 0.180901 -0.147773
C30   C     C_R   0.193866 0.676675 0.222507 -0.085195
C31   C     C_R   0.172443 0.704302 0.339821 -0.114265
C32   C     C_R   0.253218 0.765650 0.416146 -0.167819
H7    H     H_    0.454155 0.800572 0.223519 0.157559
H8    H     H_    0.312052 0.689975 0.090094 0.141145
H9    H     H_    0.131723 0.628354 0.163845 0.140031
H10   H     H_    0.093511 0.677633 0.371721 0.147022
H11   H     H_    0.236591 0.785314 0.507183 0.124112
C33   C     C_R   0.644621 0.199143 0.625036 0.110665
C34   C     C_R   0.746798 0.234344 0.583783 -0.167804
C35   C     C_R   0.827576 0.295706 0.660091 -0.114254
C36   C     C_R   0.806168 0.323341 0.777409 -0.085205
C37   C     C_R   0.704615 0.288481 0.819033 -0.147717
C38   C     C_R   0.624301 0.226018 0.743370 -0.093357
H12   H     H_    0.763413 0.214675 0.492742 0.124159
H13   H     H_    0.906497 0.322382 0.628175 0.147029
H14   H     H_    0.868312 0.371673 0.836058 0.140039
H15   H     H_    0.688002 0.310045 0.909843 0.141162
H16   H     H_    0.545889 0.199433 0.776444 0.157567
C39   C     C_R   0.677155 0.825415 0.685952 0.131721
C40   C     C_R   0.765082 0.764357 0.636844 -0.130641
C41   C     C_R   0.851394 0.731979 0.708227 -0.142778
C42   C     C_R   0.850318 0.760011 0.828708 -0.134358
C43   C     C_R   0.762585 0.820137 0.878167 -0.160277
C44   C     C_R   0.676462 0.853082 0.807157 -0.144576
H17   H     H_    0.768507 0.744437 0.543527 0.140879
H18   H     H_    0.920032 0.686317 0.670261 0.146262
H19   H     H_    0.917232 0.734925 0.883710 0.143331
H20   H     H_    0.761694 0.841724 0.971468 0.149224
H21   H     H_    0.610354 0.901613 0.846339 0.129613
C45   C     C_R   0.322761 0.174582 0.314077 0.131608
C46   C     C_R   0.322958 0.146541 0.192887 -0.144943
C47   C     C_R   0.236752 0.179539 0.122018 -0.159930
C48   C     C_R   0.149411 0.240078 0.171601 -0.134449
C49   C     C_R   0.148803 0.268454 0.292056 -0.142955
C50   C     C_R   0.235208 0.236038 0.363297 -0.130134
H22   H     H_    0.388735 0.097672 0.153614 0.129620
H23   H     H_    0.237248 0.157645 0.028737 0.149172
H24   H     H_    0.082419 0.265194 0.116716 0.143367
H25   H     H_    0.080443 0.314410 0.330115 0.146339
H26   H     H_    0.232136 0.256242 0.456612 0.140732
N3    N     N_R   0.347745 0.409026 0.781204 0.120206
O9    O     O_R   0.245951 0.446694 0.788249 -0.397903
O10   O     O_R   0.356897 0.310196 0.743356 -0.405018
N4    N     N_R   0.652244 0.590989 0.218799 0.120206
O11   O     O_R   0.643092 0.689821 0.256629 -0.405060
O12   O     O_R   0.754038 0.553318 0.211770 -0.397922

loop_
_geom_bond_atom_site_label_1
_geom_bond_atom_site_label_2
_geom_bond_distance
_ccdc_geom_bond_type
C15   C33   1.490085 S    
C48   C49   1.397844 A    
C34   H12   1.083019 S    
C1    C10   1.460460 S    
C27   C28   1.405615 A    
O5    C3    1.295043 A    
C2    C9    1.460432 S    
C24   N3    1.429659 S    
C36   H14   1.082331 S    
C47   H23   1.082418 S    
O1    C1    1.293920 A    
C43   H20   1.082582 S    
C10   C15   1.414967 A    
C31   H10   1.082003 S    
C33   C34   1.403606 A    
C39   C44   1.405596 A    
O4    Cu1   1.974319 S    
C9    C16   1.414960 A    
C21   H4    1.076943 S    
C14   C39   1.481215 S    
C3    C5    1.420857 S    
C38   H16   1.082592 S    
C4    C6    1.420856 S    
C40   C41   1.399366 A    
C42   C43   1.397956 A    
N3    O10   1.300067 A    
C48   H24   1.082323 S    
C16   C27   1.490082 S    
C50   H26   1.083343 S    
C36   C37   1.397694 A    
Cu1   Cu2   2.688305 S    
C22   H3    1.076916 S    
O2    C2    1.293887 A    
C45   C50   1.404346 A    
C30   H9    1.082325 S    
C19   C26   1.410380 A    
C39   C40   1.404522 A    
C19   H5    1.082046 S    
N2    C21   1.358309 A    
C20   H6    1.082047 S    
O4    C2    1.295659 A    
C25   C26   1.404470 A    
C45   C46   1.405476 A    
C35   C36   1.398104 A    
C11   H1    1.082764 S    
C28   H7    1.082584 S    
C20   C25   1.410381 A    
C37   C38   1.397981 A    
O7    Cu2   1.908736 S    
C44   H21   1.083437 S    
C29   C30   1.397682 A    
C10   C13   1.412073 A    
O6    C4    1.295084 A    
N4    O12   1.301228 A    
C7    C8    1.398586 S    
C41   H18   1.081527 S    
N2    C23   1.381188 A    
O7    C3    1.292550 A    
O3    Cu2   1.974317 S    
O8    C4    1.292510 A    
C30   C31   1.398097 A    
C11   C18   1.401472 A    
C37   H15   1.082534 S    
C31   C32   1.398729 A    
C12   C17   1.401486 A    
C11   C13   1.388209 A    
C12   C14   1.388179 A    
O1    Cu1   1.971408 S    
C17   C18   1.416633 A    
C35   H13   1.082013 S    
C5    C7    1.197429 T    
C28   C29   1.397973 A    
O6    Cu2   1.916841 S    
C12   H2    1.082770 S    
C23   N4    1.429662 S    
C33   C38   1.405620 A    
Cu1   N1    2.019763 S    
Cu2   N2    2.019764 S    
C47   C48   1.397720 A    
O3    C1    1.295636 A    
O8    Cu1   1.908735 S    
C29   H8    1.082529 S    
C15   C17   1.409303 A    
C16   C18   1.409314 A    
C32   H11   1.083013 S    
N1    C24   1.381192 A    
C9    C14   1.411980 A    
C40   H17   1.083497 S    
C43   C44   1.398316 A    
C23   C25   1.423205 A    
C24   C26   1.423207 A    
C34   C35   1.398734 A    
C46   H22   1.083279 S    
C27   C32   1.403595 A    
N4    O11   1.300066 A    
C19   C21   1.401377 A    
C20   C22   1.401377 A    
C13   C45   1.481353 S    
C41   C42   1.398082 A    
O2    Cu2   1.971409 S    
C46   C47   1.398290 A    
O5    Cu1   1.916840 S    
C6    C8    1.197424 T    
C49   C50   1.399317 A    
C42   H19   1.082355 S    
N1    C22   1.358279 A    
N3    O9    1.301228 A    
C49   H25   1.081334 S    
