data_mof_unit_38780.cif
_audit_creation_date              2012-12-10T16:58:30-0500
_audit_creation_method            fapswitch 2.2
_symmetry_space_group_name_H-M    P1
_symmetry_Int_Tables_number       1
_space_group_crystal_system       triclinic
_cell_length_a                    7.921582
_cell_length_b                    8.698701
_cell_length_c                    23.436573
_cell_angle_alpha                 93.576724
_cell_angle_beta                  86.886199
_cell_angle_gamma                 93.476841
_cell_volume                      1606.77126272

loop_
_atom_site_label
_atom_site_type_symbol
_atom_type_description
_atom_site_fract_x
_atom_site_fract_y
_atom_site_fract_z
_atom_type_partial_charge
C1    C     C_R   0.544913 0.794063 0.499660 0.992694
C2    C     C_R   0.428910 0.351540 0.298121 0.042725
C3    C     C_R   0.534875 0.617611 0.766330 0.004682
C4    C     C_R   0.442580 0.342985 0.237754 0.016288
C5    C     C_R   0.514126 0.471503 0.789703 0.125000
C6    C     C_R   0.477576 0.478760 0.208871 0.137363
C7    C     C_2   0.567848 0.957751 0.500612 -0.276256
C8    C     C_2   0.432378 0.042403 0.499773 -0.358467
C9    C     C_R   0.503061 0.501364 0.609837 0.886471
C10   C     C_R   0.496345 0.495568 0.389999 0.936666
C11   C     C_R   0.343648 0.421061 0.118693 0.590575
C12   C     C_R   0.455150 0.206021 0.500841 0.967270
C13   C     C_R   0.654909 0.507991 0.878938 0.586707
C14   C     C_R   0.630269 0.520362 0.118804 0.553070
C15   C     C_R   0.367919 0.410002 0.879247 0.555567
C16   C     C_R   0.635133 0.533016 0.059194 -0.150446
C17   C     C_R   0.365780 0.392566 0.938604 -0.133309
C18   C     C_R   0.497753 0.463466 0.028885 -0.039475
C19   C     C_R   0.503749 0.461148 0.968876 -0.039339
C20   C     C_R   0.354844 0.395411 0.058788 -0.029431
C21   C     C_R   0.646353 0.529679 0.938959 -0.013358
C22   C     C_R   0.769692 0.615259 0.029665 -0.055340
C23   C     C_R   0.487808 0.336327 0.754019 -0.042376
C24   C     C_R   0.232487 0.308397 0.968034 -0.035412
C25   C     C_R   0.772056 0.619435 0.969497 0.099701
C26   C     C_R   0.230066 0.304415 0.028273 0.091231
C27   C     C_2   0.899215 0.710211 0.061610 1.000388
C28   C     C_2   0.105048 0.211540 0.935782 0.991366
C29   C     C_3   0.888130 0.740872 0.940089 -0.395897
C30   C     C_3   0.065629 0.686287 0.925435 -0.597478
C31   C     C_3   0.114459 0.183182 0.057954 -0.398906
C32   C     C_3   0.935666 0.236246 0.071512 -0.591917
C33   C     C_2   0.460919 0.184736 0.779622 0.968854
C34   C     C_R   0.515896 0.619560 0.239257 -0.027602
C35   C     C_2   0.503128 0.762583 0.208996 0.968229
C36   C     C_2   0.469528 0.206149 0.656019 0.900856
C37   C     C_2   0.646285 0.750972 0.326091 0.925030
C38   C     C_3   0.532040 0.786851 0.681847 -0.398806
C39   C     C_3   0.713119 0.848305 0.667745 -0.691012
C40   C     C_3   0.353979 0.214304 0.329840 -0.448233
C41   C     C_3   0.477246 0.088104 0.332073 -0.734247
C42   C     C_2   0.569317 0.757061 0.804481 0.914147
C43   C     C_2   0.429398 0.194871 0.203010 0.939963
C44   C     C_3   0.019969 0.379388 0.433250 -0.144547
C45   C     C_R   0.487132 0.347094 0.694586 -0.121148
C46   C     C_3   0.917482 0.230829 0.417303 -0.850415
C47   C     C_3   0.981991 0.624099 0.566516 -0.132160
C48   C     C_3   0.086552 0.773681 0.579412 -0.872119
C49   C     C_R   0.546277 0.620304 0.297747 -0.165116
C50   C     C_R   0.507632 0.492943 0.671441 -0.119444
C51   C     C_R   0.488185 0.489741 0.327887 -0.144617
C52   C     C_R   0.526556 0.629312 0.706933 0.025645
H1    H     H_    0.696089 0.008318 0.502785 0.178124
H2    H     H_    0.939818 0.357488 0.088776 0.314813
H3    H     H_    0.860610 0.226343 0.032845 0.236180
H4    H     H_    0.869978 0.162725 0.103834 0.298476
H5    H     H_    0.107064 0.073168 0.031213 0.195097
H6    H     H_    0.169151 0.150218 0.097725 0.253131
H7    H     H_    0.304587 0.996111 0.791206 0.372864
H8    H     H_    0.376689 0.860566 0.149039 0.341239
H9    H     H_    0.315821 0.033843 0.623314 0.328889
H10   H     H_    0.851833 0.899526 0.322209 0.343588
H11   H     H_    0.740419 0.959449 0.692372 0.298793
H12   H     H_    0.304275 0.991935 0.497452 0.170338
H13   H     H_    0.806902 0.765876 0.678320 0.265729
H14   H     H_    0.728933 0.869391 0.621478 0.229967
H15   H     H_    0.458944 0.783278 0.642786 0.180210
H16   H     H_    0.467389 0.870149 0.711874 0.232391
H17   H     H_    0.556115 0.073637 0.291897 0.291138
H18   H     H_    0.561977 0.115094 0.367858 0.245103
H19   H     H_    0.402931 0.978451 0.339671 0.268136
H20   H     H_    0.313860 0.246838 0.374318 0.187350
H21   H     H_    0.236169 0.167856 0.309906 0.259403
H22   H     H_    0.739368 0.928315 0.828046 0.374881
H23   H     H_    0.138098 0.732013 0.087624 0.367410
H24   H     H_    0.526538 0.073381 0.133405 0.337469
H25   H     H_    0.906287 0.155498 0.453939 0.257002
H26   H     H_    0.791220 0.254282 0.403762 0.287630
H27   H     H_    0.983050 0.167729 0.380757 0.218453
H28   H     H_    0.027568 0.457081 0.397217 0.194540
H29   H     H_    0.142690 0.340162 0.440733 0.222260
H30   H     H_    0.214228 0.751237 0.591864 0.282830
H31   H     H_    0.093140 0.844906 0.541680 0.256191
H32   H     H_    0.028150 0.841685 0.615859 0.242558
H33   H     H_    0.856417 0.661602 0.560861 0.223660
H34   H     H_    0.868631 0.188482 0.907333 0.361462
H35   H     H_    0.979854 0.549834 0.603453 0.199278
H36   H     H_    0.128828 0.755900 0.891441 0.289585
H37   H     H_    0.144364 0.699720 0.963226 0.241641
H38   H     H_    0.058707 0.563703 0.909935 0.312659
H39   H     H_    0.832501 0.775708 0.900910 0.247052
H40   H     H_    0.897635 0.850207 0.967174 0.194572
N1    N     N_R   0.483401 0.473114 0.147250 -0.327678
N2    N     N_R   0.512943 0.461451 0.850732 -0.329827
N3    N     N_2   0.950330 0.457950 0.484560 -0.031938
N4    N     N_2   0.049670 0.542050 0.515440 -0.033259
O1    O     O_R   0.389250 0.738570 0.503790 -0.620186
O2    O     O_2   0.802706 0.531522 0.848574 -0.505781
O3    O     O_2   0.769920 0.554805 0.148689 -0.488114
O4    O     O_2   0.227210 0.376917 0.849812 -0.509613
O5    O     O_2   0.862539 0.833113 0.085884 -0.600168
O6    O     O_R   0.060950 0.656962 0.064929 -0.786004
O7    O     O_2   0.143583 0.088014 0.912480 -0.611488
O8    O     O_R   0.943624 0.263989 0.930720 -0.788683
O9    O     O_2   0.560184 0.146548 0.813487 -0.627962
O10   O     O_R   0.315515 0.091269 0.768173 -0.723677
O11   O     O_2   0.613098 0.866943 0.211240 -0.542916
O12   O     O_R   0.610750 0.261430 0.496210 -0.598537
O13   O     O_R   0.365527 0.771021 0.174572 -0.770267
O14   O     O_2   0.592360 0.163024 0.626920 -0.646034
O15   O     O_R   0.311821 0.126579 0.651626 -0.741171
O16   O     O_2   0.605163 0.800150 0.374429 -0.674602
O17   O     O_R   0.793682 0.812491 0.298451 -0.701529
O18   O     O_2   0.469269 0.790480 0.844245 -0.646937
O19   O     O_R   0.721694 0.844527 0.796620 -0.753550
O20   O     O_2   0.306656 0.104414 0.209194 -0.600557
O21   O     O_R   0.555677 0.165238 0.160319 -0.795884
O22   O     O_R   0.678390 0.711620 0.493890 -0.632769
O23   O     O_R   0.321610 0.288380 0.506110 -0.646359
O24   O     O_R   0.355400 0.513520 0.588790 -0.616646
O25   O     O_R   0.644600 0.486480 0.411210 -0.604979
O26   O     O_R   0.644550 0.486570 0.578900 -0.629606
O27   O     O_R   0.355450 0.513430 0.421100 -0.653628
O28   O     O_2   0.194842 0.397894 0.148485 -0.497809
Zn1   Zn    Zn3+2 0.306930 0.518000 0.506610 0.951388
Zn2   Zn    Zn3+2 0.693070 0.482000 0.493390 0.971068

loop_
_geom_bond_atom_site_label_1
_geom_bond_atom_site_label_2
_ccdc_geom_bond_type
C3    C42   S    
C23   C45   A    
C11   O28   S    
C28   O7    D    
C15   O4    S    
C30   H38   S    
C10   O25   A    
H34   O8    S    
C15   N2    A    
C5    N2    S    
C7    C8    D    
C47   H33   S    
C31   H6    S    
C41   H17   S    
C19   C21   A    
C24   C26   A    
C18   C19   A    
C46   H27   S    
O27   Zn1   S    
C37   O17   S    
C40   H21   S    
C34   C35   S    
C13   O2    S    
C37   O16   D    
H8    O13   S    
C42   O18   D    
N3    N4    D    
C23   C33   S    
C22   C25   A    
H23   O6    S    
C50   C52   A    
C47   N4    S    
C40   H20   S    
C14   N1    A    
C35   O13   S    
C41   H19   S    
C11   N1    A    
C26   C31   S    
C39   H13   S    
C30   H37   S    
C10   C51   S    
C32   H2    S    
C44   C46   S    
C25   C29   S    
C11   C20   A    
H7    O10   S    
C33   O10   S    
C17   C24   A    
C14   O3    S    
C33   O9    D    
H10   O17   S    
O1    Zn1   S    
C10   O27   A    
C1    O1    A    
C12   O12   A    
O24   Zn1   S    
C49   C51   A    
C27   O5    D    
C48   H32   S    
C47   H35   S    
O26   Zn2   S    
C2    C4    A    
C29   C30   S    
C2    C40   S    
C43   O20   D    
C12   O23   A    
C37   C49   S    
C28   O8    S    
C47   C48   S    
C5    C23   A    
C44   H28   S    
C8    C12   S    
C6    N1    S    
C36   O15   S    
C9    O26   A    
C13   C21   A    
C36   C45   S    
C8    H12   S    
O23   Zn1   S    
C4    C6    A    
C40   C41   S    
C38   H16   S    
C44   H29   S    
C22   C27   S    
C36   O14   D    
C39   H14   S    
C14   C16   A    
C7    H1    S    
C30   H36   S    
H9    O15   S    
C29   H39   S    
C46   H26   S    
C15   C17   A    
C21   C25   A    
C34   C49   A    
C16   C22   A    
C32   H3    S    
C1    C7    S    
C31   C32   S    
C9    C50   S    
C24   C28   S    
C3    C5    A    
C46   H25   S    
C3    C52   A    
C4    C43   S    
C39   H11   S    
C27   O6    S    
H24   O21   S    
C48   H31   S    
C13   N2    A    
C31   H5    S    
O25   Zn2   S    
C44   N3    S    
N3    Zn2   S    
C38   C39   S    
C20   C26   A    
C45   C50   A    
H22   O19   S    
C17   C19   A    
C48   H30   S    
N4    Zn1   S    
C18   C20   A    
C1    O22   A    
C35   O11   D    
C2    C51   A    
C6    C34   A    
C42   O19   S    
C38   C52   S    
C38   H15   S    
C16   C18   A    
C43   O21   S    
C9    O24   A    
O22   Zn2   S    
O12   Zn2   S    
C32   H4    S    
C29   H40   S    
C41   H18   S    
