data_mof_unit_54506.cif
_audit_creation_date              2013-03-05T15:56:08-0500
_audit_creation_method            fapswitch 2.2
_symmetry_space_group_name_H-M    P1
_symmetry_Int_Tables_number       1
_space_group_crystal_system       triclinic
_cell_length_a                    8.263464
_cell_length_b                    16.539366
_cell_length_c                    26.929221
_cell_angle_alpha                 95.806053
_cell_angle_beta                  93.158885
_cell_angle_gamma                 86.100577
_cell_volume                      3648.81079359

loop_
_atom_site_label
_atom_site_type_symbol
_atom_site_description
_atom_site_fract_x
_atom_site_fract_y
_atom_site_fract_z
_atom_type_partial_charge
P1    P     P_3+3 0.086060 0.566890 0.610430 0.468726
O1    O     O_2   0.915540 0.542930 0.617950 -0.336325
O2    O     O_3   0.147530 0.542870 0.557780 -0.410149
O3    O     O_3   0.664390 0.396160 0.588360 -0.382365
O4    O     O_2   0.779669 0.460650 0.677518 -0.331822
O5    O     O_3   0.065757 0.672960 0.622329 -0.588593
O6    O     O_3   0.741537 0.303812 0.668233 -0.475723
H1    H     H_    0.721760 0.236196 0.599440 0.141060
C1    C     C_3   0.680815 0.163226 0.658874 -0.964180
H2    H     H_    0.810628 0.142725 0.663834 0.288744
H3    H     H_    0.624499 0.169923 0.695696 0.238567
P2    P     P_3+3 0.625290 0.314770 0.461990 0.492730
P3    P     P_3+3 0.096682 0.247255 0.560801 0.503672
O7    O     O_2   0.802410 0.302720 0.476520 -0.332959
O8    O     O_3   0.070880 0.354870 0.564040 -0.333064
O9    O     O_2   0.960865 0.211336 0.525526 -0.379087
O10   O     O_3   0.619074 0.297222 0.396592 -0.569137
O11   O     O_3   0.052341 0.212850 0.617767 -0.488156
C2    C     C_3   0.193928 0.203632 0.648825 0.427370
H4    H     H_    0.305912 0.191291 0.627904 -0.016340
C3    C     C_3   0.180831 0.130293 0.678170 -0.988052
H5    H     H_    0.077824 0.140578 0.703351 0.263424
H6    H     H_    0.161455 0.075169 0.651897 0.271633
C4    C     C_3   0.156905 0.271776 0.346897 0.572674
C5    C     C_3   0.019435 0.212738 0.339295 -0.928160
H7    H     H_    0.906511 0.243858 0.325060 0.252472
H8    H     H_    0.050328 0.159272 0.312383 0.244465
H9    H     H_    0.994568 0.189730 0.375348 0.241838
Ba1   Ba    Ba6+2 0.851940 0.461560 0.523510 1.601661
C6    C     C_3   0.017092 0.708184 0.578469 0.415143
H10   H     H_    0.901943 0.684048 0.562824 0.110449
H11   H     H_    0.110429 0.695626 0.550326 0.133205
C7    C     C_3   0.993897 0.799879 0.591105 -0.960150
H12   H     H_    0.892535 0.814442 0.616594 0.285853
H13   H     H_    0.966183 0.830661 0.556789 0.231668
H14   H     H_    0.106768 0.823719 0.609555 0.246915
C8    C     C_3   0.676030 0.363631 0.375907 0.428785
H15   H     H_    0.807875 0.364357 0.384300 0.105221
H16   H     H_    0.615185 0.422423 0.390689 0.133685
C9    C     C_3   0.643665 0.353969 0.319289 -1.032319
H17   H     H_    0.642707 0.288782 0.304667 0.286132
H18   H     H_    0.738101 0.382545 0.300532 0.239766
H19   H     H_    0.524823 0.384363 0.309290 0.264715
P4    P     P_3+3 0.103630 0.433040 0.389570 0.478806
O12   O     O_2   0.274150 0.457040 0.382020 -0.363888
O13   O     O_3   0.042160 0.457070 0.442220 -0.347074
O14   O     O_3   0.525310 0.603770 0.411640 -0.364628
O15   O     O_3   0.120766 0.325562 0.390418 -0.588989
P5    P     P_3+3 0.092302 0.751179 0.433394 0.455556
O16   O     O_3   0.637620 0.597020 0.524620 -0.364819
O17   O     O_3   0.118810 0.645070 0.435950 -0.345415
O18   O     O_2   0.228017 0.789038 0.468159 -0.410426
O19   O     O_3   0.141986 0.774138 0.374261 -0.498459
Ba2   Ba    Ba6+2 0.337880 0.538370 0.476480 1.562990
P6    P     P_3+3 0.658810 0.398988 0.653298 0.492033
C10   C     C_3   0.664301 0.243953 0.636105 0.536908
H20   H     H_    0.532443 0.259675 0.629693 -0.076413
H21   H     H_    0.618293 0.116417 0.633744 0.251099
O20   O     O_3   0.552080 0.402920 0.475380 -0.388989
C11   C     C_3   0.492065 0.696222 0.632516 0.572194
H22   H     H_    0.380001 0.675971 0.611711 0.100407
C12   C     C_3   0.582209 0.623448 0.654575 -0.784212
H23   H     H_    0.698096 0.641593 0.674067 0.255866
H24   H     H_    0.508269 0.597649 0.681387 0.191294
H25   H     H_    0.608362 0.575226 0.623903 0.259015
P7    P     P_3+3 0.572394 0.698680 0.538471 0.423308
O21   O     O_2   0.387280 0.697260 0.523450 -0.396695
O22   O     O_3   0.598988 0.729747 0.602537 -0.604216
H26   H     H_    0.294761 0.119132 0.701051 0.224746
C13   C     C_3   0.000714 0.782058 0.342986 0.342284
H27   H     H_    0.968117 0.720624 0.326469 0.074444
H28   H     H_    0.895486 0.812303 0.362612 0.027978
C14   C     C_3   0.034723 0.833458 0.300939 -0.405836
H29   H     H_    0.143580 0.805259 0.282213 0.212108
H30   H     H_    0.933470 0.831673 0.272117 0.163284
P8    P     P_3+3 0.527424 0.602472 0.347043 0.481608
C15   C     C_3   0.529092 0.757661 0.360936 0.488256
H31   H     H_    0.661066 0.740190 0.365734 -0.076822
O23   O     O_2   0.409720 0.539175 0.323488 -0.389548
O24   O     O_3   0.441588 0.697215 0.332541 -0.491289
H32   H     H_    0.479390 0.769387 0.398679 0.104771
H33   H     H_    0.580005 0.883004 0.360447 0.129201
C16   C     C_3   0.513138 0.836991 0.335955 -0.465715
H34   H     H_    0.384541 0.860114 0.333956 0.221597
C17   C     C_R   0.950476 0.448047 0.175520 0.502643
O25   O     O_2   0.893952 0.390330 0.191801 -0.628781
N1    N     N_R   0.963573 0.519001 0.206464 -0.147743
C18   C     C_R   0.024909 0.586228 0.189694 0.514835
C19   C     C_2   0.764662 0.560901 0.270389 0.111072
C20   C     C_3   0.739936 0.582507 0.326082 0.081866
C21   C     C_1   0.977394 0.490168 0.343893 0.242861
C22   C     C_2   0.025551 0.495239 0.297896 -0.308105
C23   C     C_2   0.910727 0.523893 0.257520 0.181037
C24   C     C_R   0.043961 0.514549 0.105813 -0.052779
C25   C     C_R   0.996138 0.442974 0.125009 -0.134866
C26   C     C_R   0.990636 0.369667 0.092456 -0.021881
C27   C     C_R   0.059234 0.587481 0.138331 -0.153028
C28   C     C_2   0.840622 0.528074 0.359356 -0.425178
H35   H     H_    0.151075 0.481978 0.289099 0.179333
C29   C     C_2   0.338174 0.467838 0.640664 -0.347326
C30   C     C_R   0.070091 0.442657 0.968520 0.045831
C31   C     C_R   0.174634 0.578804 0.983814 0.060563
C32   C     C_R   0.137975 0.509826 0.950439 0.097894
C33   C     C_R   0.021761 0.378382 0.933249 -0.193397
C34   C     C_R   0.049814 0.377680 0.882672 -0.052256
C35   C     C_R   0.127106 0.441040 0.864841 -0.066453
C36   C     C_R   0.170231 0.507685 0.898576 -0.062199
C37   C     C_R   0.246153 0.571919 0.880519 -0.054225
C38   C     C_R   0.281878 0.567557 0.829345 0.597205
N2    N     N_R   0.242555 0.500716 0.796845 -0.161004
C39   C     C_R   0.162626 0.438784 0.813953 0.574844
C40   C     C_2   0.426382 0.444939 0.730994 -0.145873
C41   C     C_3   0.446299 0.419561 0.675432 -0.000403
C42   C     C_1   0.214263 0.515611 0.657583 0.309238
C43   C     C_2   0.181417 0.528342 0.705698 -0.214006
C44   C     C_2   0.291872 0.492771 0.745211 0.184871
O26   O     O_2   0.123872 0.381018 0.784925 -0.563264
C45   C     C_R   0.051247 0.442007 0.020929 0.014573
C46   C     C_R   0.076122 0.513014 0.053895 0.091943
C47   C     C_R   0.132298 0.582429 0.035004 -0.011973
C48   C     C_R   0.014339 0.371012 0.041503 -0.180742
H36   H     H_    0.011294 0.326526 0.857474 0.166287
H37   H     H_    0.957527 0.328393 0.943465 0.138204
H38   H     H_    0.013458 0.313548 0.018691 0.160577
O27   O     O_2   0.048053 0.644942 0.219859 -0.642085
C49   C     C_R   0.104229 0.659210 0.118117 0.225051
C50   C     C_R   0.253977 0.641555 0.964648 -0.209304
C51   C     C_R   0.288353 0.638130 0.914274 -0.077055
O28   O     O_2   0.350112 0.622606 0.813946 -0.606883
C52   C     C_R   0.140748 0.654406 0.067409 -0.208793
H39   H     H_    0.296521 0.693375 0.987994 0.127366
H40   H     H_    0.349736 0.687798 0.901893 0.165543
H41   H     H_    0.071504 0.563628 0.716910 0.147024
H42   H     H_    0.169530 0.709037 0.052601 0.152868
H43   H     H_    0.817913 0.535332 0.398902 0.161226
H44   H     H_    0.348378 0.451454 0.600863 0.159825
C53   C     C_R   0.386330 0.266028 0.518082 -0.439167
C54   C     C_R   0.525561 0.240723 0.492874 0.280415
C55   C     C_R   0.574955 0.157993 0.485244 -0.289533
C56   C     C_R   0.480980 0.099455 0.502209 0.187932
C57   C     C_R   0.335704 0.125618 0.525708 -0.285776
C58   C     C_R   0.289582 0.209051 0.533788 0.188553
C59   C     C_R   0.623975 0.854832 0.510765 -0.188195
C60   C     C_R   0.661996 0.770236 0.502002 0.213032
C61   C     C_R   0.712224 0.909437 0.486506 0.172517
N3    N     N_2   0.524039 0.014356 0.494733 -0.058802
N4    N     N_2   0.672052 0.995458 0.489890 -0.055426
C62   C     C_R   0.791969 0.740703 0.473251 -0.464378
H45   H     H_    0.259319 0.081310 0.537705 0.158964
C63   C     C_R   0.894300 0.794083 0.456230 0.200126
C64   C     C_R   0.851942 0.878269 0.461305 -0.354305
H46   H     H_    0.682125 0.139437 0.464514 0.167837
H47   H     H_    0.929264 0.919584 0.446651 0.161816
H48   H     H_    0.348162 0.330123 0.522902 0.173751
H49   H     H_    0.824380 0.675930 0.469024 0.159808
C65   C     C_3   0.443673 0.764276 0.673511 -0.365449
C66   C     C_3   0.343614 0.737385 0.714288 -0.877238
H50   H     H_    0.243941 0.700200 0.698117 0.277487
H51   H     H_    0.422605 0.701825 0.739924 0.297834
H52   H     H_    0.290283 0.791878 0.736583 0.269209
H53   H     H_    0.554793 0.791010 0.691578 0.223617
H54   H     H_    0.372242 0.813547 0.655358 0.190664
C67   C     C_3   0.064973 0.922429 0.320228 -0.259497
C68   C     C_3   0.908077 0.975355 0.328068 -0.890464
H55   H     H_    0.839798 0.980872 0.291791 0.260952
H56   H     H_    0.831131 0.949826 0.354301 0.251149
H57   H     H_    0.937786 0.037218 0.344306 0.258586
H58   H     H_    0.138875 0.925227 0.356023 0.219695
H59   H     H_    0.134808 0.949100 0.292465 0.199103
C69   C     C_2   0.210525 0.278399 0.684544 0.608439
H60   H     H_    0.311049 0.280781 0.712211 -0.072748
O29   O     O_2   0.111838 0.336575 0.682931 -0.478273
C70   C     C_3   0.584148 0.827904 0.283858 -0.227160
C71   C     C_3   0.455625 0.811760 0.241858 -0.882073
H61   H     H_    0.391545 0.756963 0.247336 0.283726
H62   H     H_    0.366230 0.864880 0.240709 0.253028
H63   H     H_    0.514363 0.801521 0.205452 0.243110
H64   H     H_    0.638913 0.885288 0.277882 0.200922
H65   H     H_    0.681324 0.778066 0.281089 0.172700
C72   C     C_2   0.969897 0.288782 0.110179 0.591458
H66   H     H_    0.017352 0.274618 0.146798 0.055851
O30   O     O_2   0.902628 0.235909 0.083274 -0.583786
C73   C     C_2   0.538721 0.405183 0.767627 0.567015
H67   H     H_    0.616073 0.352327 0.755135 0.057669
O31   O     O_2   0.549262 0.431531 0.811612 -0.590830
C74   C     C_3   0.643148 0.592209 0.231336 -0.377748
C75   C     C_3   0.541407 0.524737 0.205869 -0.785134
H68   H     H_    0.616717 0.481060 0.181531 0.266851
H69   H     H_    0.487174 0.491294 0.233851 0.273391
H70   H     H_    0.441714 0.551776 0.182216 0.237084
H71   H     H_    0.560400 0.640609 0.248847 0.229411
H72   H     H_    0.704660 0.620876 0.202644 0.183640
C76   C     C_3   0.109265 0.741188 0.150207 -0.281622
C77   C     C_3   0.147583 0.815725 0.124601 -0.981327
H73   H     H_    0.271301 0.807644 0.109940 0.267664
H74   H     H_    0.055384 0.827157 0.094094 0.273992
H75   H     H_    0.144380 0.870176 0.152383 0.269665
H76   H     H_    0.989014 0.755896 0.166636 0.214201
H77   H     H_    0.203559 0.735021 0.180646 0.227656
C78   C     C_2   0.507373 0.884814 0.549698 0.577573
H78   H     H_    0.395316 0.855195 0.551945 0.044448
O32   O     O_2   0.539509 0.940654 0.581164 -0.598243
C79   C     C_3   0.172873 0.313084 0.298046 -0.396908
C80   C     C_3   0.225041 0.257650 0.251794 -0.805894
H79   H     H_    0.354329 0.235574 0.255868 0.283536
H80   H     H_    0.146959 0.205574 0.243652 0.266906
H81   H     H_    0.213927 0.293627 0.218991 0.235887
H82   H     H_    0.052270 0.341529 0.287678 0.208487
H83   H     H_    0.262491 0.359806 0.304741 0.185263
C81   C     C_2   0.309865 0.221979 0.360922 0.600607
H84   H     H_    0.360850 0.230351 0.398790 0.024392
O33   O     O_2   0.369875 0.167630 0.332255 -0.612927

loop_
_geom_bond_atom_site_label_1
_geom_bond_atom_site_label_2
_geom_bond_distance
_ccdc_geom_bond_type
P7    O22   1.755863 S    
N1    C18   1.378622 Am   
C4    C79   1.558206 S    
C66   H50   1.105195 S    
P2    Ba1   3.407258 S    
C14   H29   1.107391 S    
C77   H74   1.110842 S    
C25   C26   1.424313 A    
C2    C69   1.497031 S    
O6    P6    1.748849 S    
C60   C62   1.391164 A    
H1    C10   1.111094 S    
C42   C43   1.331396 D    
C57   H45   1.083104 S    
C33   H37   1.078327 S    
C15   H31   1.112963 S    
C10   H20   1.111071 S    
C5    H9    1.112226 S    
C59   C78   1.488193 S    
C8    H15   1.101053 S    
P3    O8    1.772020 S    
P3    O11   1.754509 S    
O1    Ba1   2.794934 S    
C47   C52   1.406414 A    
C30   C45   1.429586 A    
C65   C66   1.528455 S    
C2    C3    1.526009 S    
C62   C63   1.389512 A    
O14   P8    1.738535 S    
C1    H21   1.110917 S    
C8    C9    1.527510 S    
C73   O31   1.220595 D    
C6    H10   1.102606 S    
O2    Ba2   2.757459 S    
C77   H75   1.110881 S    
P7    C60   1.829709 S    
C35   C36   1.407985 A    
C70   H65   1.110835 S    
C59   C60   1.411963 A    
C55   H46   1.083028 S    
C7    H14   1.109761 S    
C37   C38   1.418898 A    
C11   C12   1.526591 S    
P1    O1    1.518948 D    
C19   C74   1.518380 S    
C74   H71   1.102472 S    
O2    Ba1   2.928093 S    
C45   C46   1.418251 A    
C40   C41   1.527318 S    
C48   H38   1.078448 S    
C12   H24   1.105947 S    
C31   C32   1.417979 A    
C71   H61   1.106553 S    
P2    O20   1.555416 S    
C9    H19   1.104863 S    
C67   C68   1.526489 S    
C72   O30   1.221555 D    
C78   H78   1.083943 S    
C75   H70   1.110879 S    
P2    O10   1.754155 S    
C53   H48   1.082267 S    
C36   C37   1.409795 A    
P8    O23   1.542892 D    
C13   H27   1.111491 S    
C62   H49   1.082608 S    
C1    H2    1.107887 S    
O3    Ba1   2.744118 S    
C6    C7    1.521756 S    
Ba2   O20   2.757840 S    
C9    H18   1.108800 S    
C77   H73   1.110932 S    
C65   H54   1.111231 S    
C30   C32   1.417822 A    
C70   C71   1.524327 S    
C3    H5    1.110801 S    
C19   C23   1.361730 D    
C14   H30   1.109269 S    
C52   H42   1.069860 S    
O6    C10   1.409910 S    
O19   C13   1.407990 S    
C51   H40   1.083535 S    
C33   C34   1.392904 A    
C61   N4    1.433706 S    
P4    O13   1.537565 S    
C76   H76   1.111824 S    
O8    Ba1   2.704817 S    
C40   C73   1.488134 S    
C71   H62   1.110516 S    
Ba1   O16   2.758539 S    
C17   N1    1.375768 Am   
C8    H16   1.110871 S    
C53   C58   1.387978 A    
P1    O5    1.749469 S    
C4    O15   1.430259 S    
Ba1   O20   2.911876 S    
C29   C42   1.322458 D    
C56   C57   1.409443 A    
C31   C50   1.418310 A    
C56   N3    1.424997 S    
C21   C22   1.333996 D    
C4    C81   1.512400 S    
O11   C2    1.409015 S    
Ba2   O21   2.844129 S    
P6    C41   1.883598 S    
C24   C27   1.425698 A    
P5    O17   1.761570 S    
C5    H7    1.103539 S    
C17   O25   1.220473 D    
C28   H43   1.084818 S    
C15   C16   1.528642 S    
C37   C51   1.400955 A    
N2    C39   1.385191 Am   
C3    H26   1.111541 S    
C11   H22   1.109350 S    
P1    O2    1.537544 S    
C45   C48   1.406315 A    
C66   H51   1.108532 S    
C76   C77   1.531233 S    
C73   H67   1.083586 S    
C11   C65   1.543235 S    
C12   H23   1.111056 S    
C1    H3    1.110720 S    
C24   C46   1.434843 A    
C16   H34   1.104982 S    
C80   H81   1.110302 S    
C15   H32   1.111158 S    
C55   C56   1.407120 A    
P5    O18   1.545136 D    
O13   Ba2   2.928866 S    
C13   C14   1.531704 S    
P1    Ba1   3.375034 S    
C7    H12   1.110489 S    
C1    C10   1.519510 S    
O10   C8    1.400407 S    
P3    C58   1.834984 S    
C4    C5    1.539676 S    
O16   P7    1.740324 S    
C71   H63   1.110432 S    
C61   C64   1.412065 A    
P4    C21   1.858392 S    
O14   Ba2   2.743307 S    
C26   C48   1.399271 A    
C9    H17   1.110146 S    
O5    C6    1.396840 S    
C80   H80   1.108164 S    
C65   H53   1.112583 S    
H33   C16   1.111286 S    
C30   C33   1.415417 A    
C81   O33   1.221087 D    
C16   C70   1.539861 S    
O3    P6    1.747680 S    
C38   O28   1.221010 D    
P2    C54   1.813727 S    
C5    H8    1.110115 S    
P1    C42   1.844298 S    
O7    Ba1   2.843774 S    
C50   C51   1.395993 A    
N2    C44   1.461140 S    
O16   Ba2   2.911186 S    
C31   C47   1.435211 A    
P4    O12   1.519344 D    
N3    N4    1.252207 D    
C53   C54   1.386659 A    
C15   O24   1.410576 S    
C59   C61   1.426768 A    
C68   H55   1.109661 S    
C12   H25   1.108151 S    
O4    P6    1.547610 D    
C68   H57   1.109133 S    
C29   C41   1.508167 S    
P8    O24   1.747349 S    
P2    O7    1.499335 D    
C27   C49   1.433512 A    
O12   Ba2   2.795314 S    
C13   H28   1.106194 S    
C46   C47   1.417411 A    
C40   C44   1.368916 D    
Ba1   Ba2   4.574093 S    
C66   H52   1.110245 S    
C43   H41   1.085899 S    
C34   C35   1.401174 A    
C35   C39   1.413505 A    
Ba1   O13   2.756598 S    
C39   O26   1.220379 D    
O17   Ba2   2.705573 S    
C26   C72   1.488696 S    
C2    H4    1.106300 S    
C3    H6    1.110987 S    
C67   H58   1.110927 S    
C19   C20   1.527788 S    
C18   C27   1.429653 A    
C75   H68   1.107552 S    
C14   C67   1.542321 S    
C76   H77   1.106878 S    
C57   C58   1.404870 A    
C6    H11   1.105991 S    
C17   C25   1.424337 A    
C49   C76   1.534108 S    
C43   C44   1.502681 S    
C69   O29   1.220891 D    
C70   H64   1.108537 S    
P5    O19   1.750484 S    
N1    C23   1.458247 S    
C68   H56   1.108141 S    
C22   C23   1.495494 S    
C7    H13   1.105281 S    
P5    C63   1.850260 S    
C34   H36   1.083631 S    
P7    O21   1.561692 D    
C79   H82   1.106633 S    
C64   H47   1.082887 S    
C21   C28   1.321550 D    
C74   H72   1.109226 S    
C24   C25   1.426444 A    
C67   H59   1.111528 S    
C50   H39   1.077507 S    
C75   H69   1.109003 S    
C18   O27   1.219840 D    
C54   C55   1.399092 A    
C29   H44   1.085070 S    
P4    Ba2   3.375485 S    
C80   H79   1.108559 S    
C11   O22   1.405576 S    
C78   O32   1.221360 D    
C81   H84   1.081022 S    
C69   H60   1.084874 S    
P3    O9    1.540742 D    
C49   C52   1.407919 A    
C63   C64   1.407283 A    
C79   H83   1.101366 S    
C32   C36   1.432699 A    
C79   C80   1.533676 S    
C74   C75   1.527000 S    
C38   N2    1.384001 Am   
C20   C28   1.511553 S    
C72   H66   1.082908 S    
P4    O15   1.775988 S    
C22   H35   1.079704 S    
P8    C20   1.871942 S    
