data_mof_unit_54729.cif
_audit_creation_date              2013-03-05T16:44:41-0500
_audit_creation_method            fapswitch 2.2
_symmetry_space_group_name_H-M    P1
_symmetry_Int_Tables_number       1
_space_group_crystal_system       triclinic
_cell_length_a                    27.729471
_cell_length_b                    10.700996
_cell_length_c                    9.865811
_cell_angle_alpha                 89.622704
_cell_angle_beta                  90.816648
_cell_angle_gamma                 90.639597
_cell_volume                      2926.97108468

loop_
_atom_site_label
_atom_site_type_symbol
_atom_site_description
_atom_site_fract_x
_atom_site_fract_y
_atom_site_fract_z
_atom_type_partial_charge
O1    O     O_R   0.500010 0.316790 0.614690 -0.616093
O2    O     O_R   0.500000 0.316760 0.385350 -0.624087
C1    C     C_R   0.501645 0.259924 0.500313 0.886568
O3    O     O_R   0.428760 0.500040 0.614660 -0.624148
O4    O     O_R   0.428750 0.500000 0.385310 -0.618390
C2    C     C_R   0.406027 0.500323 0.499182 0.871354
Zn1   Zn    Zn3+2 0.500000 0.500020 0.653130 0.961373
Zn2   Zn    Zn3+2 0.500000 0.499980 0.346870 0.959414
O5    O     O_R   0.500000 0.683240 0.614650 -0.620557
O6    O     O_R   0.499990 0.683210 0.385310 -0.615605
O7    O     O_R   0.571250 0.500000 0.614690 -0.622897
O8    O     O_R   0.571240 0.499960 0.385340 -0.628697
C3    C     C_R   0.501567 0.740040 0.499771 0.886757
C4    C     C_R   0.593962 0.498727 0.500797 0.905330
C5    C     C_R   0.177990 0.384838 0.487670 0.505666
O9    O     O_2   0.203273 0.278564 0.475004 -0.549620
N1    N     N_R   0.201618 0.497102 0.496760 -0.359610
C6    C     C_R   0.177551 0.606829 0.509682 0.505630
C7    C     C_R   0.278310 0.508342 0.619465 -0.104742
C8    C     C_R   0.328369 0.509010 0.620281 -0.219494
C9    C     C_R   0.327509 0.493087 0.374594 -0.213183
C10   C     C_R   0.277379 0.491995 0.374205 -0.099929
C11   C     C_R   0.252911 0.499436 0.496628 0.326065
C12   C     C_R   0.101857 0.491680 0.506306 -0.052705
C13   C     C_R   0.127630 0.379883 0.492748 -0.021707
C14   C     C_R   0.102750 0.266099 0.484131 -0.134861
C15   C     C_R   0.127172 0.606306 0.514285 -0.021687
C16   C     C_R   0.353335 0.500902 0.497817 -0.039835
H1    H     H_    0.345923 0.487446 0.278888 0.153864
H2    H     H_    0.257500 0.485343 0.279200 0.136728
H3    H     H_    0.121744 0.179178 0.470869 0.191637
C17   C     C_R   0.646575 0.492231 0.502171 -0.100496
C18   C     C_R   0.975210 0.369586 0.523959 0.038358
C19   C     C_R   0.974244 0.599778 0.513435 0.048983
C20   C     C_R   0.949384 0.482969 0.519424 0.077028
C21   C     C_R   0.949447 0.256769 0.543869 -0.246972
C22   C     C_R   0.899307 0.253013 0.547623 0.005879
C23   C     C_R   0.872847 0.364513 0.531286 -0.066633
C24   C     C_R   0.898245 0.479725 0.519870 -0.053371
C25   C     C_R   0.872492 0.592307 0.508074 -0.018988
C26   C     C_R   0.822226 0.588787 0.504940 0.578976
N2    N     N_R   0.798320 0.477083 0.511386 -0.338184
C27   C     C_R   0.821915 0.366403 0.525717 0.569072
C28   C     C_R   0.722297 0.499795 0.380309 0.367495
C29   C     C_R   0.672021 0.508527 0.381287 -0.272787
C30   C     C_R   0.671558 0.466184 0.623245 -0.173706
C31   C     C_R   0.721425 0.459148 0.624151 -0.126737
C32   C     C_R   0.746916 0.476445 0.504148 0.192392
O10   O     O_2   0.795835 0.259435 0.532033 -0.526831
C33   C     C_R   0.025999 0.372292 0.510236 0.054663
C34   C     C_R   0.050868 0.488865 0.511857 0.071710
C35   C     C_R   0.025304 0.602668 0.518699 0.047900
C36   C     C_R   0.052874 0.262129 0.492338 -0.212379
H4    H     H_    0.652691 0.526908 0.287228 0.194735
H5    H     H_    0.967711 0.169423 0.560929 0.135793
H6    H     H_    0.036324 0.171230 0.480150 0.141834
O11   O     O_2   0.202403 0.715784 0.517914 -0.548976
C37   C     C_R   0.101865 0.717329 0.528183 -0.133888
H7    H     H_    0.347408 0.515991 0.716557 0.156216
H8    H     H_    0.259158 0.514179 0.714074 0.136107
H9    H     H_    0.120606 0.806347 0.537234 0.190678
C38   C     C_R   0.947068 0.710095 0.500004 -0.208965
C39   C     C_R   0.897200 0.706120 0.497465 -0.112929
O12   O     O_2   0.797179 0.696052 0.494845 -0.525642
C40   C     C_R   0.051881 0.715805 0.530627 -0.212217
H10   H     H_    0.963202 0.801311 0.486826 0.140988
H11   H     H_    0.652640 0.450790 0.717217 0.179879
H12   H     H_    0.878026 0.793241 0.485830 0.201998
H13   H     H_    0.740546 0.441379 0.718706 0.178287
H14   H     H_    0.035199 0.805034 0.545285 0.139923
C41   C     C_R   0.509370 0.062938 0.623105 0.126053
C42   C     C_R   0.509544 0.128656 0.501036 -0.101959
C43   C     C_R   0.518683 0.065835 0.379801 -0.204981
H15   H     H_    0.522518 0.115455 0.284420 0.174794
C44   C     C_R   0.518548 0.936461 0.379567 -0.190421
H16   H     H_    0.522325 0.888310 0.284110 0.186531
C45   C     C_R   0.509279 0.871531 0.500567 -0.127907
C46   C     C_R   0.509278 0.935094 0.623384 0.114305
C47   C     C_3   0.474040 0.927346 0.737013 -0.208443
C48   C     C_3   0.474840 0.068955 0.737397 -0.536874
H17   H     H_    0.438615 0.885292 0.707286 0.156906
H18   H     H_    0.439689 0.110413 0.706813 0.199223
H19   H     H_    0.492547 0.110463 0.828638 0.205774
C49   C     C_R   0.458998 0.470662 0.069767 0.219263
N3    N     N_R   0.499670 0.499140 0.142800 -0.117868
C50   C     C_R   0.538213 0.545920 0.074213 -0.137647
H20   H     H_    0.568937 0.582528 0.130721 0.160875
C51   C     C_R   0.538049 0.548154 0.930429 0.003945
N4    N     N_R   0.499670 0.499180 0.857150 -0.134701
C52   C     C_R   0.458841 0.471652 0.927523 0.199160
C53   C     C_3   0.429687 0.354314 0.921021 -0.506991
C54   C     C_3   0.430671 0.351754 0.075144 -0.495688
H21   H     H_    0.393099 0.369922 0.877183 0.202666
H22   H     H_    0.449667 0.277353 0.875195 0.214856
H23   H     H_    0.394525 0.364532 0.119742 0.200533
H24   H     H_    0.451785 0.273023 0.118791 0.215771
C55   C     C_1   0.494918 0.874334 0.862301 0.252699
N5    N     N_1   0.511072 0.834233 0.961982 -0.232577
C56   C     C_1   0.577327 0.611687 0.864835 0.256665
N6    N     N_1   0.608954 0.664865 0.814219 -0.174880
N7    N     N_R   0.747541 0.514603 0.254306 0.220510
O13   O     O_R   0.726965 0.570565 0.151548 -0.373078
O14   O     O_R   0.789387 0.463661 0.237159 -0.374478
C57   C     C_1   0.876909 0.132038 0.570356 0.282286
N8    N     N_1   0.859167 0.035110 0.588779 -0.146055

loop_
_geom_bond_atom_site_label_1
_geom_bond_atom_site_label_2
_geom_bond_distance
_ccdc_geom_bond_type
N7    O13   1.301949 A    
C22   C57   1.447099 S    
C26   N2    1.361923 A    
C20   C24   1.418161 A    
C7    C8    1.387951 A    
C12   C15   1.408560 A    
C19   C38   1.412071 A    
C55   N5    1.156766 T    
C45   C46   1.393443 A    
Zn1   O7    2.017098 S    
N1    C11   1.422301 S    
C25   C39   1.394780 A    
C21   C22   1.391527 A    
Zn2   N3    2.013285 S    
C48   H19   1.111982 S    
C23   C24   1.417648 A    
O7    C4    1.296139 A    
C50   C51   1.418527 A    
C5    C13   1.398470 A    
C5    O9    1.350039 S    
Zn1   N4    2.012934 S    
C54   H24   1.112247 S    
C18   C21   1.409967 A    
Zn1   O5    1.994596 S    
C19   C20   1.421990 A    
C17   C29   1.403265 A    
O5    C3    1.283597 A    
C41   C48   1.491814 S    
C6    O11   1.350043 S    
C30   C31   1.385577 A    
C2    C16   1.461087 S    
C31   C32   1.397731 A    
C37   H9    1.083604 S    
C14   H3    1.083596 S    
N7    O14   1.301232 A    
O1    Zn1   1.999538 S    
C9    C10   1.389948 A    
C43   C44   1.384417 A    
C49   C52   1.403262 A    
O3    Zn1   2.006260 S    
C57   N8    1.157407 T    
C33   C34   1.418683 A    
C43   H15   1.083405 S    
C3    C45   1.420940 S    
C33   C36   1.415034 A    
C38   H10   1.077068 S    
C34   C35   1.418391 A    
C49   N3    1.362370 A    
O3    C2    1.294168 A    
C24   C25   1.410648 A    
C47   H17   1.112265 S    
C46   C47   1.498864 S    
C27   O10   1.348701 S    
C8    C16   1.404679 A    
C18   C33   1.416723 A    
N3    C50   1.361969 A    
C9    H1    1.082180 S    
O6    C3    1.286074 A    
C54   H23   1.110556 S    
C30   H11   1.082476 S    
O1    C1    1.287168 A    
C7    C11   1.396239 A    
C44   H16   1.083408 S    
C22   C23   1.414780 A    
C53   H21   1.111128 S    
C37   C40   1.386492 A    
C56   N6    1.157550 T    
Zn2   O8    2.006260 S    
C38   C39   1.382873 A    
N1    C6    1.364636 A    
N2    C32   1.426127 S    
C12   C13   1.408471 A    
C8    H7    1.082711 S    
C44   C45   1.402760 A    
C48   H18   1.112391 S    
C25   C26   1.393832 A    
C9    C16   1.404626 A    
O8    C4    1.293912 A    
C29   H4    1.083009 S    
N2    C27   1.365032 A    
C14   C36   1.386719 A    
C53   C54   1.520472 S    
C28   C29   1.398457 A    
C36   H6    1.077612 S    
C5    N1    1.364802 A    
C39   H12   1.083012 S    
C10   H2    1.082918 S    
C50   H20   1.082590 S    
C17   C30   1.400278 A    
C47   C55   1.470556 S    
O2    Zn2   1.994597 S    
C6    C15   1.398305 A    
C4    C17   1.461201 S    
C42   C43   1.403494 A    
C15   C37   1.395063 A    
O4    Zn2   2.017100 S    
C28   N7    1.442286 S    
C7    H8    1.082975 S    
C19   C35   1.416085 A    
C31   H13   1.083210 S    
O2    C1    1.283931 A    
C13   C14   1.395237 A    
C23   C27   1.412952 A    
C21   H5    1.079135 S    
C53   H22   1.100834 S    
C52   C53   1.487014 S    
O4    C2    1.295917 A    
C12   C34   1.415726 A    
C18   C20   1.415899 A    
C1    C42   1.424039 S    
C51   C56   1.437028 S    
C47   C48   1.515294 S    
C28   C32   1.413230 A    
C41   C42   1.390639 A    
C51   N4    1.378591 A    
Zn2   O6    1.999537 S    
C10   C11   1.396888 A    
C49   C54   1.488922 S    
C26   O12   1.350620 S    
N4    C52   1.364866 A    
C41   C46   1.368016 A    
C35   C40   1.414996 A    
C40   H14   1.077132 S    
