data_mof_unit_24348.cif
_audit_creation_date              2012-12-10T19:10:31-0500
_audit_creation_method            fapswitch 2.2
_symmetry_space_group_name_H-M    P1
_symmetry_Int_Tables_number       1
_space_group_crystal_system       triclinic
_cell_length_a                    10.881584
_cell_length_b                    10.048694
_cell_length_c                    15.641901
_cell_angle_alpha                 90.112391
_cell_angle_beta                  89.362265
_cell_angle_gamma                 91.987202
_cell_volume                      1709.23810471

loop_
_atom_site_label
_atom_site_type_symbol
_atom_type_description
_atom_site_fract_x
_atom_site_fract_y
_atom_site_fract_z
_atom_type_partial_charge
C1    C     C_R   0.257914 0.497846 0.505576 0.916103
C2    C     C_3   0.656851 0.505266 0.945829 0.354094
C3    C     C_3   0.654677 0.503066 0.049493 0.311986
C4    C     C_1   0.509244 0.500919 0.824320 -0.035756
C5    C     C_1   0.508301 0.499611 0.175339 0.006952
C6    C     C_1   0.504000 0.499585 0.250690 -0.116143
C7    C     C_3   0.068410 0.581642 0.590899 0.408174
C8    C     C_3   0.060149 0.345630 0.513658 0.454885
C9    C     C_3   0.925124 0.595388 0.583240 -0.047570
C10   C     C_3   0.918132 0.354971 0.526093 -0.049428
C11   C     C_3   0.074497 0.557482 0.425954 -0.590160
C12   C     C_3   0.118901 0.494448 0.510974 -0.082285
C13   C     C_3   0.876105 0.502656 0.509871 -0.124038
C14   C     C_R   0.500265 0.499856 0.339305 0.939960
C15   C     C_3   0.932630 0.559231 0.422636 0.423403
C16   C     C_3   0.401772 0.075361 0.555002 0.184042
C17   C     C_3   0.406107 0.917216 0.558462 0.124402
C18   C     C_3   0.482012 0.080579 0.409037 0.423197
C19   C     C_3   0.476769 0.916829 0.409472 0.422383
C20   C     C_3   0.616531 0.083337 0.530665 -0.332712
C21   C     C_3   0.618912 0.925054 0.526317 -0.303205
C22   C     C_R   0.740631 0.501688 0.503595 0.946863
C23   C     C_R   0.500647 0.500146 0.660619 0.930222
C24   C     C_3   0.439143 0.624355 0.051729 -0.089638
C25   C     C_3   0.434359 0.373839 0.050421 -0.086674
C26   C     C_3   0.440455 0.363308 0.949587 0.303697
C27   C     C_3   0.441910 0.632756 0.950985 0.305606
C28   C     C_1   0.505131 0.500663 0.749088 -0.112493
C29   C     C_3   0.513240 0.500184 0.083348 0.097823
C30   C     C_3   0.512504 0.500504 0.916109 0.096554
H1    H     H_    0.907797 0.697848 0.561257 0.207467
H2    H     H_    0.873790 0.291275 0.476191 0.217023
H3    H     H_    0.115752 0.659177 0.418287 0.222802
H4    H     H_    0.111029 0.504823 0.369191 0.208391
H5    H     H_    0.311517 0.099332 0.529551 0.145636
H6    H     H_    0.314635 0.878156 0.540802 0.114721
H7    H     H_    0.697332 0.126049 0.495426 0.220401
H8    H     H_    0.695289 0.895758 0.483745 0.241825
H9    H     H_    0.631487 0.115715 0.597797 0.206261
H10   H     H_    0.644675 0.885548 0.589670 0.207244
H11   H     H_    0.342012 0.600203 0.070316 0.162699
H12   H     H_    0.337912 0.395839 0.067207 0.156838
N1    N     N_3   0.499750 0.138610 0.498180 -0.126412
N2    N     N_3   0.499750 0.861390 0.498180 -0.120847
O1    O     O_R   0.314910 0.616040 0.499980 -0.650410
O2    O     O_R   0.314910 0.383960 0.499980 -0.592012
O3    O     O_R   0.500120 0.616090 0.377110 -0.580273
O4    O     O_R   0.500120 0.383910 0.377110 -0.590666
O5    O     O_R   0.685320 0.616040 0.499960 -0.585060
O6    O     O_R   0.685320 0.383960 0.499960 -0.615617
O7    O     O_R   0.500110 0.615990 0.622830 -0.582115
O8    O     O_R   0.500110 0.384010 0.622830 -0.568887
Zn1   Zn    Zn3+2 0.500150 0.654960 0.499960 0.990390
Zn2   Zn    Zn3+2 0.500150 0.345040 0.499960 1.002347
C31   C     C_3   0.306029 0.641230 0.918811 -0.820903
H13   H     H_    0.300229 0.628706 0.848454 0.291335
H14   H     H_    0.239428 0.574145 0.951445 0.212512
H15   H     H_    0.266372 0.738874 0.934516 0.238777
C32   C     C_3   0.305976 0.343710 0.912071 -0.771423
H16   H     H_    0.231258 0.369508 0.956850 0.195418
H17   H     H_    0.294842 0.396142 0.850698 0.282558
H18   H     H_    0.277793 0.239256 0.896938 0.254487
Br1   Br    Br    0.890539 0.743314 0.396429 -0.477116
Br2   Br    Br    0.868587 0.462476 0.322715 -0.517229
Br3   Br    Br    0.397286 0.151346 0.671687 -0.385966
Br4   Br    Br    0.422194 0.852301 0.677271 -0.489321
C33   C     C_3   0.364521 0.132484 0.365846 -0.869184
H19   H     H_    0.352859 0.237949 0.371341 0.277954
H20   H     H_    0.365285 0.109432 0.296420 0.248442
H21   H     H_    0.277989 0.092047 0.393634 0.199448
C34   C     C_3   0.352518 0.856683 0.373081 -0.850374
H22   H     H_    0.343394 0.748539 0.373279 0.282020
H23   H     H_    0.269757 0.886206 0.408817 0.190316
H24   H     H_    0.341920 0.884890 0.305073 0.242920
Br5   Br    Br    0.618183 0.154756 0.334395 -0.424699
Br6   Br    Br    0.600993 0.852100 0.326191 -0.405224
C35   C     C_3   0.438697 0.241643 0.102085 -0.847488
H25   H     H_    0.376273 0.164982 0.072786 0.244005
H26   H     H_    0.529721 0.198935 0.107744 0.266096
H27   H     H_    0.403896 0.256473 0.168330 0.246711
C36   C     C_3   0.449298 0.757615 0.102820 -0.839455
H28   H     H_    0.385258 0.829765 0.075635 0.239573
H29   H     H_    0.419721 0.742017 0.170366 0.256048
H30   H     H_    0.540494 0.807387 0.104431 0.263880
C37   C     C_3   0.502549 0.231647 0.920644 -0.748831
H31   H     H_    0.439055 0.142778 0.920806 0.231254
H32   H     H_    0.540218 0.239159 0.854592 0.260453
H33   H     H_    0.570295 0.196705 0.965890 0.210380
C38   C     C_3   0.500427 0.768953 0.918274 -0.748542
H34   H     H_    0.541375 0.759982 0.853460 0.261474
H35   H     H_    0.433574 0.849394 0.912179 0.241673
H36   H     H_    0.565779 0.815923 0.963130 0.212010
C39   C     C_3   0.728785 0.624077 0.088940 -0.759925
H37   H     H_    0.722825 0.624607 0.159874 0.287321
H38   H     H_    0.828064 0.620433 0.071888 0.237467
H39   H     H_    0.699649 0.720974 0.067033 0.218224
C40   C     C_3   0.724189 0.382728 0.086584 -0.776042
H40   H     H_    0.692287 0.285854 0.062410 0.215971
H41   H     H_    0.823905 0.390669 0.070370 0.240290
H42   H     H_    0.716886 0.378424 0.157379 0.287616
C41   C     C_3   0.734134 0.627858 0.906711 -0.862650
H43   H     H_    0.721063 0.635317 0.836629 0.244315
H44   H     H_    0.722940 0.726131 0.933746 0.227059
H45   H     H_    0.834641 0.619203 0.916246 0.243575
C42   C     C_3   0.735463 0.391310 0.903828 -0.849904
H46   H     H_    0.835858 0.409057 0.913124 0.243879
H47   H     H_    0.727069 0.290619 0.928604 0.225534
H48   H     H_    0.721786 0.385551 0.833640 0.237509
C43   C     C_3   0.124051 0.724613 0.595589 -0.821336
H49   H     H_    0.075858 0.783589 0.645065 0.259736
H50   H     H_    0.219710 0.721583 0.616757 0.304307
H51   H     H_    0.117771 0.779195 0.534503 0.223865
C44   C     C_3   0.084423 0.265063 0.429941 -0.895070
H52   H     H_    0.172621 0.293793 0.400315 0.234600
H53   H     H_    0.079851 0.155981 0.441580 0.267411
H54   H     H_    0.017392 0.280905 0.379238 0.266292
Br7   Br    Br    0.116598 0.509319 0.702380 -0.534625
Br8   Br    Br    0.130130 0.232711 0.602051 -0.465472
C45   C     C_3   0.851669 0.595971 0.668875 -0.874062
H55   H     H_    0.888142 0.678099 0.710019 0.263568
H56   H     H_    0.753595 0.616041 0.658098 0.226837
H57   H     H_    0.855656 0.504110 0.706584 0.272120
C46   C     C_3   0.866513 0.290223 0.610591 -0.792461
H58   H     H_    0.771443 0.317032 0.627054 0.233836
H59   H     H_    0.866165 0.180004 0.604585 0.244548
H60   H     H_    0.922096 0.317027 0.666948 0.299688

loop_
_geom_bond_atom_site_label_1
_geom_bond_atom_site_label_2
_ccdc_geom_bond_type
C31   H13   S    
C18   Br5   S    
C7    Br7   S    
C19   C34   S    
C24   C27   S    
C36   H30   S    
C40   H40   S    
C8    Br8   S    
C46   H58   S    
C35   H25   S    
O4    Zn2   S    
C42   H47   S    
C17   Br4   S    
C39   H37   S    
C25   C35   S    
C19   Br6   S    
C43   H50   S    
C16   H5    S    
C5    C6    T    
C27   C31   S    
C1    O2    A    
C46   H59   S    
C18   C19   S    
C3    C29   S    
C9    C13   S    
C24   C29   S    
C40   H41   S    
C11   C15   S    
N2    Zn1   S    
C21   H8    S    
C16   C17   S    
C15   Br2   S    
C17   H6    S    
C38   H35   S    
C26   C32   S    
O3    Zn1   S    
C44   H54   S    
C37   H32   S    
O1    Zn1   S    
C32   H16   S    
C39   H38   S    
C27   C30   S    
C24   H11   S    
C1    C12   S    
C4    C28   T    
O8    Zn2   S    
C36   H28   S    
C5    C29   S    
C45   H56   S    
C25   C29   S    
C7    C12   S    
C42   H48   S    
C32   H17   S    
C33   H19   S    
C41   H43   S    
C11   H3    S    
C10   C46   S    
C43   H51   S    
C34   H23   S    
C20   H9    S    
C46   H60   S    
C14   O4    A    
C2    C41   S    
C18   C33   S    
C37   H31   S    
C7    C43   S    
O7    Zn1   S    
C24   C36   S    
C6    C14   S    
C21   N2    S    
C3    C40   S    
N1    Zn2   S    
C23   O7    A    
C8    C12   S    
O2    Zn2   S    
C35   H26   S    
C3    C39   S    
O6    Zn2   S    
C23   C28   S    
C38   H36   S    
C16   N1    S    
C8    C44   S    
C22   O5    A    
C8    C10   S    
C26   C30   S    
C41   H45   S    
C31   H14   S    
C9    C45   S    
C40   H42   S    
C19   N2    S    
C44   H52   S    
C37   H33   S    
C7    C9    S    
C32   H18   S    
C11   H4    S    
C10   C13   S    
C25   H12   S    
C36   H29   S    
C34   H24   S    
C45   H55   S    
C14   O3    A    
C39   H39   S    
C42   H46   S    
C2    C42   S    
C22   O6    A    
C2    C30   S    
C33   H21   S    
C13   C15   S    
C2    C3    S    
C25   C26   S    
C17   N2    S    
C34   H22   S    
C18   N1    S    
C20   H7    S    
C35   H27   S    
C1    O1    A    
C23   O8    A    
C21   H10   S    
C26   C37   S    
O5    Zn1   S    
C45   H57   S    
C13   C22   S    
C27   C38   S    
C20   N1    S    
C9    H1    S    
C10   H2    S    
C20   C21   S    
C41   H44   S    
C31   H15   S    
C15   Br1   S    
C16   Br3   S    
C33   H20   S    
C38   H34   S    
C43   H49   S    
C4    C30   S    
C11   C12   S    
C44   H53   S    
