data_mof_unit_7327.cif
_audit_creation_date              2012-12-10T19:59:21-0500
_audit_creation_method            fapswitch 2.2
_symmetry_space_group_name_H-M    P1
_symmetry_Int_Tables_number       1
_space_group_crystal_system       triclinic
_cell_length_a                    14.925913
_cell_length_b                    14.20147
_cell_length_c                    10.678563
_cell_angle_alpha                 90.077688
_cell_angle_beta                  90.818257
_cell_angle_gamma                 89.486512
_cell_volume                      2263.21056789

loop_
_atom_site_label
_atom_site_type_symbol
_atom_type_description
_atom_site_fract_x
_atom_site_fract_y
_atom_site_fract_z
_atom_type_partial_charge
C1    C     C_R   0.327397 0.500607 0.501535 0.883783
C2    C     C_R   0.671942 0.499563 0.494673 0.878556
C3    C     C_R   0.189142 0.429397 0.427531 -0.122209
C4    C     C_R   0.818021 0.436672 0.550421 -0.113821
C5    C     C_R   0.097546 0.429278 0.411396 -0.176361
C6    C     C_R   0.909734 0.435353 0.540660 -0.163960
C7    C     C_R   0.046584 0.501574 0.462776 0.010948
C8    C     C_R   0.950635 0.494618 0.455346 -0.000936
C9    C     C_R   0.437034 0.105952 0.571283 -0.084773
C10   C     C_R   0.563675 0.104728 0.429615 -0.105963
C11   C     C_R   0.438677 0.205532 0.568590 0.053946
C12   C     C_R   0.561741 0.204314 0.432109 0.077419
C13   C     C_R   0.500372 0.053923 0.500397 -0.052647
C14   C     C_R   0.566249 0.896323 0.564568 -0.183920
C15   C     C_R   0.434080 0.897734 0.436122 -0.202041
C16   C     C_R   0.565293 0.796654 0.565443 0.120196
C17   C     C_R   0.434547 0.798056 0.435435 0.116923
C18   C     C_R   0.500328 0.947757 0.500205 -0.042935
C19   C     C_R   0.503344 0.499983 0.260338 0.992213
C20   C     C_R   0.503696 0.500173 0.739792 0.944196
C21   C     C_R   0.472789 0.574185 0.062512 0.059351
C22   C     C_R   0.475820 0.576462 0.935788 0.134686
C23   C     C_R   0.513910 0.501476 0.128948 -0.221097
C24   C     C_R   0.515367 0.502464 0.871461 -0.288621
C25   C     C_R   0.570964 0.437403 0.066953 0.298000
C26   C     C_R   0.570979 0.437202 0.935808 0.348231
C27   C     C_3   0.384563 0.621020 0.923260 -0.267330
C28   C     C_3   0.381179 0.619140 0.066121 -0.282716
C29   C     C_R   0.085908 0.575463 0.530943 0.454386
C30   C     C_R   0.900711 0.552934 0.374020 0.475814
C31   C     C_R   0.179311 0.576733 0.546977 -0.135960
C32   C     C_R   0.806988 0.555211 0.383783 -0.124454
C33   C     C_R   0.230474 0.502121 0.494749 -0.184744
C34   C     C_R   0.767056 0.497905 0.475668 -0.148774
H1    H     H_    0.617465 0.934277 0.616325 0.202965
H2    H     H_    0.382745 0.936796 0.384939 0.201387
H3    H     H_    0.335627 0.574249 0.874908 0.121862
H4    H     H_    0.383191 0.689993 0.110208 0.144271
H5    H     H_    0.227983 0.373018 0.385703 0.198066
H6    H     H_    0.786842 0.392202 0.619481 0.202227
H7    H     H_    0.066006 0.372214 0.360250 0.187691
H8    H     H_    0.949335 0.390785 0.602929 0.182260
H9    H     H_    0.391112 0.246257 0.622323 0.177023
H10   H     H_    0.609617 0.244064 0.379137 0.210519
N1    N     N_R   0.500000 0.252470 0.500000 -0.138067
N2    N     N_R   0.500000 0.747550 0.500000 -0.179718
O1    O     O_R   0.369060 0.579480 0.500010 -0.660385
O2    O     O_R   0.630940 0.579480 0.499990 -0.671241
O3    O     O_R   0.369050 0.420520 0.500010 -0.615675
O4    O     O_R   0.630950 0.420520 0.499990 -0.590868
O5    O     O_R   0.499990 0.579490 0.316780 -0.676541
O6    O     O_R   0.500010 0.579490 0.683220 -0.630500
O7    O     O_R   0.499980 0.420540 0.316780 -0.564294
O8    O     O_R   0.500020 0.420540 0.683220 -0.577168
Zn1   Zn    Zn3+2 0.500000 0.606140 0.500000 0.941253
Zn2   Zn    Zn3+2 0.500000 0.393860 0.500000 1.025578
Cl1   Cl    Cl    0.641788 0.358519 0.150758 -0.514122
Cl2   Cl    Cl    0.639946 0.356261 0.854758 -0.494588
C35   C     C_2   0.635020 0.747942 0.641605 0.526368
H11   H     H_    0.624109 0.679211 0.680191 0.127014
O9    O     O_2   0.706509 0.785795 0.664939 -0.522985
C36   C     C_2   0.363654 0.750578 0.361749 0.416698
H12   H     H_    0.372686 0.679987 0.328149 0.113582
O10   O     O_2   0.293472 0.791213 0.335160 -0.533920
C37   C     C_2   0.384852 0.719781 0.871537 0.454545
H13   H     H_    0.323777 0.761669 0.874171 0.101499
O11   O     O_2   0.452114 0.753434 0.826438 -0.556670
C38   C     C_2   0.305794 0.559074 0.113476 0.415680
H14   H     H_    0.238875 0.589239 0.117455 0.122388
O12   O     O_2   0.317871 0.477526 0.146087 -0.557289
Cl3   Cl    Cl    0.016399 0.660648 0.604202 -0.437799
Cl4   Cl    Cl    0.957186 0.619372 0.259615 -0.449500
C39   C     C_2   0.222712 0.651826 0.623056 0.533553
H15   H     H_    0.281191 0.635305 0.680091 0.010765
O13   O     O_2   0.195598 0.733146 0.619889 -0.461490
C40   C     C_2   0.750407 0.613046 0.296789 0.553260
H16   H     H_    0.683945 0.589491 0.270075 0.038449
O14   O     O_2   0.776039 0.688392 0.256537 -0.461211
C41   C     C_2   0.370238 0.057757 0.650127 0.466092
H17   H     H_    0.370488 0.981692 0.658727 0.112655
O15   O     O_2   0.313864 0.102655 0.707322 -0.531852
C42   C     C_2   0.630813 0.055302 0.351151 0.483091
H18   H     H_    0.631169 0.979186 0.343269 0.098193
O16   O     O_2   0.686783 0.099226 0.293452 -0.488437

loop_
_geom_bond_atom_site_label_1
_geom_bond_atom_site_label_2
_ccdc_geom_bond_type
O2    Zn1   S    
C7    C29   A    
C15   C18   A    
C39   H15   S    
C14   C18   A    
C1    C33   S    
C7    C8    S    
C13   C18   S    
C28   C38   S    
C40   O14   D    
C31   C39   S    
C3    C33   A    
C9    C41   S    
C9    C13   A    
C36   O10   D    
C2    O4    A    
C4    H6    S    
N1    Zn2   S    
C38   H14   S    
C37   O11   D    
N2    Zn1   S    
C31   C33   A    
C11   H9    S    
O5    Zn1   S    
O6    Zn1   S    
C19   O7    A    
C3    H5    S    
C35   H11   S    
C21   C22   A    
C39   O13   D    
C25   Cl1   S    
O8    Zn2   S    
C4    C34   A    
C35   O9    D    
C20   C24   S    
C17   N2    A    
C4    C6    A    
C16   N2    A    
C14   H1    S    
C41   O15   D    
C1    O1    A    
C6    C8    A    
C2    O2    A    
C25   C26   A    
C10   C42   S    
O4    Zn2   S    
C16   C35   S    
C32   C34   A    
C19   C23   S    
C36   H12   S    
C27   C37   S    
C17   C36   S    
C26   Cl2   S    
C28   H4    S    
C40   H16   S    
C9    C11   A    
C10   C12   A    
C20   O8    A    
C21   C28   S    
C37   H13   S    
C42   O16   D    
C22   C27   S    
C21   C23   A    
C14   C16   A    
C11   N1    A    
C15   H2    S    
O1    Zn1   S    
O7    Zn2   S    
C15   C17   A    
C5    H7    S    
C24   C26   A    
C12   N1    A    
C3    C5    A    
C10   C13   A    
C32   C40   S    
C30   Cl4   S    
O3    Zn2   S    
C8    C30   A    
C5    C7    A    
C20   O6    A    
C30   C32   A    
C2    C34   S    
C27   H3    S    
C22   C24   A    
C23   C25   A    
C41   H17   S    
C19   O5    A    
C29   C31   A    
C42   H18   S    
C6    H8    S    
C27   C28   S    
C38   O12   D    
C12   H10   S    
C1    O3    A    
C29   Cl3   S    
