data_mof_unit_56190.cif
_audit_creation_date              2012-12-10T17:11:03-0500
_audit_creation_method            fapswitch 2.2
_symmetry_space_group_name_H-M    P1
_symmetry_Int_Tables_number       1
_space_group_crystal_system       triclinic
_cell_length_a                    11.754204
_cell_length_b                    12.972077
_cell_length_c                    13.425737
_cell_angle_alpha                 94.863163
_cell_angle_beta                  77.059458
_cell_angle_gamma                 99.080353
_cell_volume                      1967.51448343

loop_
_atom_site_label
_atom_site_type_symbol
_atom_type_description
_atom_site_fract_x
_atom_site_fract_y
_atom_site_fract_z
_atom_type_partial_charge
C1    C     C_R   0.522206 0.700607 0.497387 0.932816
C2    C     C_R   0.445968 0.449213 0.971377 0.043416
C3    C     C_R   0.481314 0.443854 0.863030 0.080875
C4    C     C_R   0.534864 0.462293 0.030088 0.107347
C5    C     C_R   0.655006 0.471197 0.979575 0.077650
C6    C     C_R   0.684651 0.443632 0.875665 -0.098454
C7    C     C_R   0.597812 0.425466 0.818801 -0.117175
C8    C     C_R   0.509197 0.471119 0.137069 -0.266898
C9    C     C_R   0.714417 0.536823 0.137851 0.407038
C10   C     C_R   0.399780 0.459242 0.803316 -0.165394
C11   C     C_R   0.474657 0.186408 0.482331 -0.117518
C12   C     C_R   0.437049 0.484169 0.694149 0.885508
C13   C     C_R   0.539064 0.814179 0.490780 -0.155193
C14   C     C_R   0.646233 0.983971 0.526491 0.439309
C15   C     C_R   0.632771 0.875527 0.525720 -0.182599
C16   C     C_R   0.464829 0.861273 0.446654 -0.108250
C17   C     C_R   0.471054 0.970140 0.451521 -0.011547
C18   C     C_R   0.559623 0.031679 0.496877 -0.018174
C19   C     C_R   0.558379 0.139007 0.512985 -0.157229
C20   C     C_R   0.391694 0.127316 0.432798 -0.246132
C21   C     C_R   0.389732 0.019592 0.415166 0.394310
C22   C     C_R   0.926999 0.547863 0.624951 -0.261088
C23   C     C_R   0.480722 0.299451 0.495315 0.791179
C24   C     C_R   0.820010 0.564982 0.605977 0.560828
C25   C     C_R   0.859433 0.461611 0.450448 0.072280
C26   C     C_R   0.977715 0.460732 0.461157 0.026147
C27   C     C_R   0.013398 0.512756 0.546816 -0.097800
C28   C     C_R   0.135060 0.534843 0.549824 0.532892
C29   C     C_R   0.178267 0.417949 0.404116 0.015022
C30   C     C_R   0.061259 0.410491 0.390133 -0.187470
C31   C     C_R   0.563039 0.506837 0.304313 0.848071
C32   C     C_R   0.743558 0.510407 0.033005 -0.161943
C33   C     C_R   0.597740 0.506128 0.191942 -0.170458
C34   C     C_R   0.280469 0.457383 0.850515 -0.229408
C35   C     C_R   0.242502 0.448351 0.955487 0.451843
C36   C     C_R   0.324714 0.448661 0.016082 -0.217517
Cu1   Cu    Cu3+1 0.386470 0.492430 0.492410 1.033136
Cu2   Cu    Cu3+1 0.613530 0.507570 0.507590 1.044921
H1    H     H_    0.329726 0.166001 0.406251 0.180458
H2    H     H_    0.036406 0.365133 0.324883 0.199869
H3    H     H_    0.828841 0.418508 0.386586 0.173470
H4    H     H_    0.624618 0.398692 0.739972 0.156798
N1    N     N_R   0.215880 0.481050 0.481000 -0.236608
N2    N     N_R   0.784100 0.518950 0.519000 -0.259053
O1    O     O_R   0.419710 0.645650 0.494620 -0.513969
O2    O     O_R   0.611450 0.658430 0.507430 -0.535039
O3    O     O_R   0.357340 0.490460 0.641450 -0.554166
O4    O     O_R   0.549080 0.503250 0.654260 -0.566411
O5    O     O_R   0.388550 0.341570 0.492570 -0.600261
O6    O     O_R   0.580290 0.354350 0.505380 -0.609903
O7    O     O_R   0.450920 0.496750 0.345740 -0.606873
O8    O     O_R   0.642660 0.509540 0.358550 -0.542082
S1    S     S_3+6 0.821338 0.618673 0.193913 0.087423
O9    O     O_2   0.892347 0.552122 0.234741 -0.246893
O10   O     O_2   0.902034 0.686741 0.114511 -0.183753
O11   O     O_3   0.756196 0.696545 0.289257 -0.533565
H5    H     H_    0.819140 0.727187 0.325714 0.395891
S2    S     S_3+6 0.773083 0.056230 0.563291 0.004694
O12   O     O_2   0.825354 0.142434 0.491336 -0.306559
O13   O     O_2   0.737964 0.102788 0.670126 -0.287158
O14   O     O_3   0.875424 0.978226 0.559985 -0.485510
H6    H     H_    0.941378 0.024092 0.583025 0.388413
S3    S     S_3+6 0.285700 0.951894 0.346208 0.060135
O15   O     O_2   0.345224 0.881314 0.262809 -0.217696
O16   O     O_2   0.189426 0.886992 0.417507 -0.221001
O17   O     O_3   0.225460 0.036399 0.292367 -0.483671
H7    H     H_    0.158839 0.056325 0.346246 0.362888
H8    H     H_    0.695260 0.838857 0.553415 0.251718
H9    H     H_    0.401530 0.812041 0.410363 0.239380
S4    S     S_3+6 0.180723 0.659454 0.611272 0.049758
O18   O     O_2   0.270342 0.654849 0.673799 -0.272537
O19   O     O_2   0.232375 0.732077 0.526779 -0.259642
O20   O     O_3   0.072462 0.717523 0.687881 -0.497761
H10   H     H_    0.109240 0.789804 0.702165 0.400989
H11   H     H_    0.240374 0.376230 0.350304 0.146222
H12   H     H_    0.945031 0.568042 0.699973 0.222814
S5    S     S_3+6 0.760833 0.669543 0.686718 0.050453
O21   O     O_2   0.636916 0.684872 0.688412 -0.261956
O22   O     O_2   0.769555 0.655730 0.794675 -0.304914
O23   O     O_3   0.849818 0.779657 0.647395 -0.466439
H13   H     H_    0.837357 0.830756 0.706574 0.402430
H14   H     H_    0.775578 0.439511 0.837548 0.141271
H15   H     H_    0.834321 0.526583 0.991729 0.208047
H16   H     H_    0.420384 0.450173 0.179317 0.173201
H17   H     H_    0.216433 0.465718 0.806020 0.185376
H18   H     H_    0.291329 0.450803 0.097576 0.170145
S6    S     S_3+6 0.092443 0.449044 0.011763 0.050576
O24   O     O_2   0.063104 0.405734 0.116242 -0.247047
O25   O     O_2   0.068239 0.560053 0.021407 -0.215388
O26   O     O_3   0.007989 0.377065 0.937885 -0.510711
H19   H     H_    0.001148 0.424770 0.886345 0.331964
H20   H     H_    0.620331 0.186787 0.552276 0.217843

loop_
_geom_bond_atom_site_label_1
_geom_bond_atom_site_label_2
_ccdc_geom_bond_type
S6    O24   D    
S3    O16   D    
C6    H14   S    
O20   H10   S    
C14   C18   A    
C35   C36   A    
C22   H12   S    
C31   O8    A    
C4    C8    A    
S5    O21   D    
C11   C19   A    
C26   C27   A    
Cu1   Cu2   S    
C34   C35   A    
C3    C7    A    
C5    C6    A    
Cu1   O7    S    
C1    O2    A    
C23   O5    A    
Cu2   O8    S    
S2    O13   D    
O11   H5    S    
C18   C19   A    
C7    H4    S    
C19   H20   S    
C9    C32   A    
C35   S6    S    
C16   C17   A    
C31   C33   S    
S4    O18   D    
Cu1   O3    S    
Cu2   O4    S    
C12   O4    A    
C5    C32   A    
S2    O14   S    
S5    O22   D    
O17   H7    S    
S3    O17   S    
C29   N1    A    
C9    C33   A    
C12   O3    A    
C25   N2    A    
S1    O10   D    
C14   S2    S    
C11   C20   A    
C21   S3    S    
C25   H3    S    
C20   H1    S    
C4    C5    A    
C23   O6    A    
C36   H18   S    
S2    O12   D    
S1    O9    D    
C17   C21   A    
C34   H17   S    
Cu1   N1    S    
C2    C4    A    
Cu2   N2    S    
C29   C30   A    
Cu1   O5    S    
S4    O20   S    
C17   C18   A    
C30   H2    S    
C10   C34   A    
C10   C12   S    
C29   H11   S    
C26   C30   A    
C22   C27   A    
C13   C15   A    
C24   N2    A    
C22   C24   A    
S6    O26   S    
C9    S1    S    
Cu1   O1    S    
S1    O11   S    
C2    C36   A    
C32   H15   S    
C8    H16   S    
C28   S4    S    
C16   H9    S    
C31   O7    A    
O23   H13   S    
C6    C7    A    
Cu2   O6    S    
C28   N1    A    
S6    O25   D    
C2    C3    A    
C25   C26   A    
C3    C10   A    
S5    O23   S    
C1    O1    A    
O26   H19   S    
C15   H8    S    
C11   C23   S    
C8    C33   A    
O14   H6    S    
Cu2   O2    S    
S3    O15   D    
C24   S5    S    
C1    C13   S    
C20   C21   A    
C13   C16   A    
C27   C28   A    
C14   C15   A    
S4    O19   D    
