data_mof_unit_7759.cif
_audit_creation_date              2012-12-10T17:15:55-0500
_audit_creation_method            fapswitch 2.2
_symmetry_space_group_name_H-M    P1
_symmetry_Int_Tables_number       1
_space_group_crystal_system       triclinic
_cell_length_a                    10.139755
_cell_length_b                    10.651885
_cell_length_c                    10.706124
_cell_angle_alpha                 88.738683
_cell_angle_beta                  94.570997
_cell_angle_gamma                 83.21755
_cell_volume                      1144.02022024

loop_
_atom_site_label
_atom_site_type_symbol
_atom_type_description
_atom_site_fract_x
_atom_site_fract_y
_atom_site_fract_z
_atom_type_partial_charge
C1    C     C_R   0.444253 0.501405 0.267417 0.930444
C2    C     C_2   0.486598 0.437948 0.934416 -0.176856
C3    C     C_2   0.077574 0.477289 0.502862 -0.063089
C4    C     C_R   0.497524 0.261083 0.502374 0.831744
C5    C     C_2   0.931610 0.501444 0.515698 -0.091535
C6    C     C_R   0.555186 0.486038 0.732999 0.981728
C7    C     C_R   0.501155 0.739410 0.490565 0.907493
C8    C     C_R   0.398553 0.150809 0.281059 -0.163103
C9    C     C_R   0.375509 0.097257 0.165664 -0.171950
C10   C     C_R   0.418821 0.970565 0.150711 -0.067086
C11   C     C_R   0.480482 0.894423 0.252934 -0.037061
C12   C     C_R   0.455930 0.075592 0.386575 0.106598
C13   C     C_R   0.484386 0.944601 0.376194 -0.035637
C14   C     C_2   0.562695 0.121867 0.731595 0.364763
C15   C     C_2   0.873876 0.376016 0.342301 0.538326
C16   C     C_2   0.563041 0.776762 0.222382 0.376828
C17   C     C_2   0.562145 0.847933 0.725829 0.502480
C18   C     C_R   0.489046 0.129465 0.501645 -0.152536
C19   C     C_R   0.529275 0.057544 0.612357 -0.106134
C20   C     C_R   0.535706 0.926316 0.607460 -0.039219
C21   C     C_R   0.512502 0.871358 0.489855 -0.168178
C22   C     C_2   0.412098 0.483619 0.135814 -0.289580
C23   C     C_2   0.508700 0.433606 0.068273 -0.097535
C24   C     C_2   0.585411 0.461266 0.865794 -0.275896
H1    H     H_    0.312071 0.514347 0.093527 0.163580
H2    H     H_    0.686344 0.463731 0.907654 0.179699
H3    H     H_    0.514143 0.215735 0.747457 0.054753
H4    H     H_    0.815252 0.300312 0.316697 0.061452
H5    H     H_    0.649459 0.739544 0.283302 0.117725
H6    H     H_    0.514125 0.878291 0.808953 0.084610
H7    H     H_    0.897828 0.564503 0.587993 0.171973
H8    H     H_    0.119315 0.396740 0.452730 0.200635
H9    H     H_    0.116182 0.628270 0.597668 0.176418
H10   H     H_    0.369168 0.251175 0.287285 0.143148
H11   H     H_    0.330864 0.155850 0.085869 0.154707
H12   H     H_    0.411573 0.934235 0.056989 0.173596
H13   H     H_    0.385313 0.436022 0.893012 0.178143
H14   H     H_    0.609234 0.403754 0.110020 0.189186
N1    N     N_2   0.157290 0.551390 0.551110 -0.209733
N2    N     N_2   0.842740 0.448550 0.448960 -0.164179
O1    O     O_R   0.568950 0.489660 0.307530 -0.631484
O2    O     O_2   0.956647 0.403951 0.272919 -0.607377
O3    O     O_2   0.541922 0.725502 0.123092 -0.569666
O4    O     O_2   0.641741 0.752271 0.732824 -0.562138
O5    O     O_R   0.348880 0.522640 0.340350 -0.601961
O6    O     O_R   0.610060 0.300270 0.483590 -0.627042
O7    O     O_R   0.389990 0.333260 0.516410 -0.637952
O8    O     O_R   0.651120 0.477360 0.659650 -0.588960
O9    O     O_R   0.431050 0.510340 0.692470 -0.617676
O10   O     O_R   0.610010 0.666740 0.483590 -0.604327
O11   O     O_R   0.389940 0.699730 0.516410 -0.602682
O12   O     O_2   0.647459 0.072964 0.810973 -0.555326
Zn1   Zn    Zn3+2 0.646940 0.477980 0.478090 0.967676
Zn2   Zn    Zn3+2 0.353060 0.522020 0.521910 0.958195

loop_
_geom_bond_atom_site_label_1
_geom_bond_atom_site_label_2
_ccdc_geom_bond_type
C3    H8    S    
C10   H12   S    
C14   H3    S    
C23   H14   S    
C9    C10   A    
C19   C20   A    
C16   O3    D    
C8    C12   A    
O11   Zn2   S    
C6    C24   S    
O1    Zn1   S    
C17   O4    D    
C7    O11   A    
C1    C22   S    
C8    H10   S    
C20   C21   A    
C17   H6    S    
C11   C13   A    
C2    H13   S    
C1    O5    A    
C15   H4    S    
H9    N1    S    
C6    O8    A    
O7    Zn2   S    
C14   C19   S    
O6    Zn1   S    
C1    O1    A    
C24   H2    S    
O5    Zn2   S    
C18   C19   A    
C6    O9    A    
C2    C24   D    
O8    Zn1   S    
C15   N2    S    
N1    Zn2   S    
C10   C11   A    
C13   C21   A    
O9    Zn2   S    
O10   Zn1   S    
C17   C20   S    
C12   C13   A    
C7    O10   A    
N2    Zn1   S    
C11   C16   S    
C5    N2    D    
C12   C18   A    
C2    C23   S    
C9    H11   S    
C22   C23   D    
C4    O6    A    
C3    C5    S    
C16   H5    S    
C7    C21   S    
C4    C18   S    
C4    O7    A    
C14   O12   D    
C3    N1    D    
C15   O2    D    
C8    C9    A    
C5    H7    S    
C22   H1    S    
