data_mof_unit_28057.cif
_audit_creation_date              2013-03-05T16:49:11-0500
_audit_creation_method            fapswitch 2.2
_symmetry_space_group_name_H-M    P1
_symmetry_Int_Tables_number       1
_space_group_crystal_system       triclinic
_cell_length_a                    17.416113
_cell_length_b                    8.91399
_cell_length_c                    8.2694
_cell_angle_alpha                 90.005263
_cell_angle_beta                  90.20467
_cell_angle_gamma                 90.007292
_cell_volume                      1283.79180742

loop_
_atom_site_label
_atom_site_type_symbol
_atom_site_description
_atom_site_fract_x
_atom_site_fract_y
_atom_site_fract_z
_atom_type_partial_charge
O1    O     O_R   0.500000 0.285350 0.636850 -0.598676
O2    O     O_R   0.500000 0.714650 0.363150 -0.606427
O3    O     O_R   0.500000 0.714650 0.636850 -0.608379
O4    O     O_R   0.500000 0.285350 0.363150 -0.600671
C1    C     C_R   0.500011 0.218693 0.499996 0.901752
C2    C     C_R   0.500004 0.781307 0.500004 0.912426
O5    O     O_R   0.389120 0.500000 0.636930 -0.556557
O6    O     O_R   0.610880 0.500000 0.363070 -0.569831
O7    O     O_R   0.610880 0.500000 0.636930 -0.556230
O8    O     O_R   0.389120 0.500000 0.363070 -0.558683
C3    C     C_1   0.500014 0.065393 0.499996 -0.110937
C4    C     C_1   0.500012 0.934625 0.500007 -0.119468
C5    C     C_R   0.352305 0.492983 0.499448 0.907771
C6    C     C_R   0.647721 0.494242 0.499872 0.900351
Zn1   Zn    Zn3+2 0.500000 0.500000 0.682780 1.143573
Zn2   Zn    Zn3+2 0.500000 0.500000 0.317220 1.140519
C7    C     C_R   0.841746 0.336648 0.626933 -0.105164
C8    C     C_R   0.152914 0.384003 0.348062 -0.117225
C9    C     C_R   0.152288 0.380883 0.641233 -0.138477
C10   C     C_R   0.849626 0.416101 0.344244 -0.137459
C11   C     C_R   0.767997 0.399163 0.635881 0.187600
C12   C     C_R   0.229864 0.428133 0.349998 0.203833
C13   C     C_R   0.227734 0.435474 0.642393 0.191852
C14   C     C_R   0.773248 0.465305 0.351206 0.289046
C15   C     C_R   0.731646 0.459356 0.497498 -0.272427
C16   C     C_R   0.268319 0.457711 0.497156 -0.235904
C17   C     C_R   0.883366 0.351622 0.482447 -0.054772
C18   C     C_R   0.114230 0.360303 0.493549 -0.004451
C19   C     C_1   0.964749 0.333900 0.486162 0.103800
C20   C     C_1   0.033160 0.336794 0.490253 0.168595
N1    N     N_1   0.500000 0.500000 0.073640 0.059803
N2    N     N_1   0.500000 0.500000 0.926360 0.058894
C21   C     C_2   0.874333 0.258316 0.771147 0.592130
H1    H     H_    0.851463 0.279543 0.890684 0.104149
O9    O     O_2   0.924811 0.164170 0.757477 -0.511537
C22   C     C_2   0.113613 0.364751 0.191484 0.432627
H2    H     H_    0.121025 0.449411 0.098919 0.111835
O10   O     O_2   0.074796 0.253426 0.164402 -0.545493
C23   C     C_2   0.115658 0.340804 0.795969 0.512525
H3    H     H_    0.149361 0.282111 0.886280 0.118079
O11   O     O_2   0.049161 0.374423 0.824720 -0.534950
C24   C     C_2   0.894173 0.429368 0.191361 0.438829
H4    H     H_    0.939804 0.350698 0.165895 0.126242
O12   O     O_2   0.881283 0.529242 0.093896 -0.480587
N3    N     N_R   0.730301 0.403158 0.787681 0.212936
O13   O     O_R   0.692001 0.286161 0.835909 -0.350140
O14   O     O_R   0.719706 0.532868 0.855996 -0.265857
N4    N     N_R   0.270462 0.429364 0.201613 0.213669
O15   O     O_R   0.309483 0.310280 0.162863 -0.323825
O16   O     O_R   0.287170 0.557968 0.136689 -0.305196
N5    N     N_R   0.262502 0.471312 0.792786 0.207952
O17   O     O_R   0.271381 0.612057 0.830053 -0.314551
O18   O     O_R   0.305393 0.370238 0.861063 -0.319557
N6    N     N_R   0.735609 0.505470 0.204735 0.262864
O19   O     O_R   0.723500 0.646261 0.171756 -0.294905
O20   O     O_R   0.696263 0.402238 0.130717 -0.305314

loop_
_geom_bond_atom_site_label_1
_geom_bond_atom_site_label_2
_geom_bond_distance
_ccdc_geom_bond_type
O4    Zn2   1.950755 S    
C12   N4    1.418423 S    
O7    C6    1.305405 A    
C19   C20   1.192085 T    
O1    Zn1   1.950687 S    
C10   C17   1.406116 A    
C17   C19   1.426405 S    
C8    C12   1.396692 A    
O2    Zn2   1.950686 S    
C10   C24   1.490384 S    
N1    N2    1.217916 T    
C3    C4    1.165667 T    
O3    C2    1.278187 A    
C22   O10   1.220927 D    
C21   H1    1.083686 S    
O7    Zn1   1.969297 S    
O3    Zn1   1.950754 S    
Zn1   N2    2.014260 S    
C23   O11   1.220502 D    
O8    Zn2   1.969298 S    
N3    O13   1.301324 A    
Zn2   N1    2.014260 S    
C7    C21   1.492411 S    
C9    C18   1.399496 A    
O2    C2    1.278154 A    
C24   O12   1.221261 D    
O1    C1    1.278151 A    
O4    C1    1.278193 A    
C9    C23   1.475733 S    
N4    O16   1.299327 A    
N4    O15   1.301161 A    
C21   O9    1.220987 D    
C1    C3    1.366507 S    
C11   N3    1.419137 S    
N3    O14   1.300280 A    
C6    C15   1.494611 S    
C2    C4    1.366678 S    
N6    O20   1.299132 A    
C5    C16   1.496134 S    
C24   H4    1.081200 S    
C14   N6    1.421069 S    
N5    O17   1.300941 A    
C7    C17   1.406055 A    
O5    C5    1.304727 A    
C8    C18   1.397063 A    
C14   C15   1.413336 A    
O6    Zn2   1.966639 S    
C12   C16   1.411737 A    
C13   C16   1.409764 A    
C23   H3    1.083063 S    
C11   C15   1.411827 A    
C9    C13   1.401140 A    
C22   H2    1.082993 S    
O6    C6    1.299581 A    
O5    Zn1   1.966640 S    
N6    O19   1.301388 A    
C8    C22   1.472431 S    
C7    C11   1.402348 A    
C13   N5    1.417707 S    
C10   C14   1.402084 A    
C18   C20   1.427528 S    
N5    O18   1.298370 A    
O8    C5    1.300779 A    
