data_mof_unit_16195.cif
_audit_creation_date              2012-12-11T14:48:15-0500
_audit_creation_method            fapswitch 2.2
_symmetry_space_group_name_H-M    P1
_symmetry_Int_Tables_number       1
_space_group_crystal_system       triclinic
_cell_length_a                    8.312314
_cell_length_b                    15.094649
_cell_length_c                    22.949323
_cell_angle_alpha                 97.221142
_cell_angle_beta                  89.395221
_cell_angle_gamma                 99.322412
_cell_volume                      2818.775344

loop_
_atom_site_label
_atom_site_type_symbol
_atom_type_description
_atom_site_fract_x
_atom_site_fract_y
_atom_site_fract_z
_atom_type_partial_charge
Ba1   Ba    Ba6+2 0.857590 0.542650 0.472590 1.673787
Ba2   Ba    Ba6+2 0.332250 0.457420 0.527420 1.680877
C1    C     C_3   0.719734 0.876385 0.324265 -0.380406
C2    C     C_R   0.115617 0.585865 0.943976 -0.027025
C3    C     C_R   0.071375 0.582932 0.883965 0.586911
C4    C     C_3   0.137459 0.743296 0.315821 0.353759
C5    C     C_R   0.980743 0.422989 0.878131 0.635188
C6    C     C_R   0.018551 0.424440 0.938273 -0.020375
C7    C     C_R   0.085869 0.506174 0.971523 -0.049123
C8    C     C_R   0.186868 0.666964 0.977381 -0.074516
C9    C     C_R   0.227771 0.668998 0.036524 -0.074897
C10   C     C_R   0.197420 0.590188 0.064684 -0.014109
C11   C     C_R   0.124485 0.508216 0.032318 -0.055884
C12   C     C_3   0.673780 0.782286 0.342705 0.349228
C13   C     C_R   0.985354 0.345760 0.966052 -0.114247
C14   C     C_R   0.014209 0.347195 0.026357 -0.050045
C15   C     C_R   0.091381 0.428583 0.060313 -0.038758
C16   C     C_3   0.124475 0.776941 0.256152 -0.165679
C17   C     C_R   0.141973 0.433049 0.120197 0.616879
C18   C     C_R   0.238924 0.592246 0.124485 0.573948
C19   C     C_2   0.788685 0.461063 0.774730 -0.108924
C20   C     C_3   0.754577 0.426438 0.709719 -0.021204
C21   C     C_1   0.013450 0.518243 0.687100 0.002712
C22   C     C_2   0.060042 0.530754 0.743580 -0.080606
C23   C     C_3   0.472465 0.334196 0.347965 0.278790
C24   C     C_2   0.944407 0.499577 0.790922 0.176085
C25   C     C_R   0.411324 0.557910 0.234519 -0.095711
C26   C     C_R   0.454522 0.563512 0.293885 -0.026741
C27   C     C_R   0.186063 0.485196 0.315527 0.038828
C28   C     C_3   0.208113 0.733821 0.594710 0.332641
C29   C     C_R   0.141271 0.480325 0.255635 -0.098501
C30   C     C_R   0.252803 0.518363 0.214430 0.201668
C31   C     C_2   0.880260 0.463024 0.667384 -0.204657
C32   C     C_R   0.764686 0.231466 0.509426 -0.287018
C33   C     C_R   0.857222 0.171836 0.528042 0.053017
C34   C     C_3   0.450354 0.311662 0.281748 -0.344605
C35   C     C_R   0.800244 0.078290 0.519568 -0.047376
C36   C     C_R   0.645908 0.043288 0.492560 0.056349
C37   C     C_R   0.557928 0.106653 0.471980 -0.095510
C38   C     C_R   0.617589 0.199220 0.480508 0.032042
C39   C     C_R   0.423901 0.909453 0.458277 -0.139231
C40   C     C_3   0.239350 0.836387 0.609179 -0.377103
C41   C     C_R   0.357621 0.817941 0.453651 0.003517
C42   C     C_R   0.588925 0.787634 0.505844 0.034244
C43   C     C_R   0.655056 0.880091 0.511971 -0.110035
C44   C     C_R   0.576367 0.943205 0.486604 0.015774
C45   C     C_3   0.969419 0.244321 0.678584 0.315676
C46   C     C_R   0.444469 0.756771 0.474211 -0.278153
C47   C     C_3   0.955207 0.261060 0.393306 0.313214
C48   C     C_3   0.940179 0.159912 0.373385 -0.374693
C49   C     C_3   0.598659 0.706252 0.658810 0.262299
C50   C     C_3   0.590558 0.771987 0.714686 -0.440767
C51   C     C_2   0.649259 0.621652 0.672879 0.580079
C52   C     C_2   0.100910 0.316543 0.707213 0.506318
C53   C     C_2   0.560135 0.190120 0.630568 0.447655
C54   C     C_3   0.426437 0.104464 0.741563 -0.212839
C55   C     C_3   0.321986 0.033010 0.773347 -0.430085
C56   C     C_3   0.874710 0.190201 0.723732 -0.295856
C57   C     C_2   0.951713 0.262374 0.051206 0.601287
C58   C     C_2   0.662521 0.447487 0.820764 0.591379
C59   C     C_3   0.280063 0.838645 0.239952 -0.188236
C60   C     C_3   0.312795 0.928719 0.279955 -0.390900
C61   C     C_3   0.417454 0.216624 0.665228 0.260474
C62   C     C_3   0.325465 0.136595 0.694878 -0.106232
C63   C     C_R   0.340618 0.529903 0.334099 -0.296089
H1    H     H_    0.728664 0.783201 0.386784 0.072497
H2    H     H_    0.477610 0.691506 0.638648 0.045028
H3    H     H_    0.854188 0.896747 0.325381 0.143223
H4    H     H_    0.710293 0.787103 0.737998 0.126075
H5    H     H_    0.495801 0.742589 0.744448 0.103621
H6    H     H_    0.558647 0.836468 0.703478 0.131380
H7    H     H_    0.538726 0.766980 0.345153 -0.056929
H8    H     H_    0.665309 0.926077 0.354929 0.066421
H9    H     H_    0.359431 0.355358 0.366845 0.020938
H10   H     H_    0.576285 0.390527 0.357127 0.064220
H11   H     H_    0.343680 0.257389 0.271435 0.142671
H12   H     H_    0.350313 0.858138 0.637065 0.104110
H13   H     H_    0.429774 0.372198 0.261988 0.072578
H14   H     H_    0.561300 0.288410 0.262074 0.139932
H15   H     H_    0.673735 0.877282 0.279140 0.122057
H16   H     H_    0.100429 0.717152 0.222217 0.107569
H17   H     H_    0.881376 0.278125 0.657573 -0.122017
H18   H     H_    0.957520 0.165728 0.753466 0.131833
H19   H     H_    0.796489 0.232557 0.750415 0.124649
H20   H     H_    0.796622 0.129879 0.700742 0.127995
H21   H     H_    0.334543 0.236249 0.633960 0.061192
H22   H     H_    0.280490 0.078905 0.660826 0.115701
H23   H     H_    0.257113 0.868693 0.568329 0.090236
H24   H     H_    0.045422 0.681386 0.316916 0.082472
H25   H     H_    0.218046 0.158479 0.717407 0.143370
H26   H     H_    0.928889 0.282757 0.941092 0.112443
H27   H     H_    0.283061 0.733086 0.060315 0.117965
H28   H     H_    0.501889 0.583320 0.203866 0.114328
H29   H     H_    0.211673 0.729406 0.957841 0.121942
H30   H     H_    0.185563 0.559036 0.755488 0.124732
H31   H     H_    0.020974 0.446450 0.241111 0.131015
H32   H     H_    0.376247 0.533518 0.379652 0.077495
H33   H     H_    0.260641 0.725312 0.321052 -0.064661
H34   H     H_    0.133536 0.859559 0.632888 0.132712
H35   H     H_    0.870855 0.431987 0.621991 0.087643
H36   H     H_    0.350147 0.952194 0.440699 0.072275
H37   H     H_    0.877502 0.035197 0.535042 0.069066
H38   H     H_    0.764567 0.900905 0.538141 0.090683
H39   H     H_    0.443582 0.087198 0.448773 0.059558
H40   H     H_    0.391828 0.685827 0.470241 0.067118
H41   H     H_    0.809554 0.303471 0.516347 0.059997
H42   H     H_    0.017986 0.812727 0.255185 0.131648
H43   H     H_    0.314339 0.710845 0.572125 -0.077033
H44   H     H_    0.104580 0.714598 0.564134 0.109698
H45   H     H_    0.832217 0.278557 0.401121 0.002835
H46   H     H_    0.669519 0.610305 0.717820 -0.120887
H47   H     H_    0.164172 0.365507 0.681011 0.028989
H48   H     H_    0.644793 0.241864 0.613365 -0.063122
H49   H     H_    0.220096 0.061524 0.796419 0.152720
H50   H     H_    0.271518 0.973505 0.741551 0.142384
H51   H     H_    0.397882 0.010270 0.806295 0.142461
H52   H     H_    0.528727 0.073850 0.720894 0.147647
H53   H     H_    0.477109 0.162556 0.774404 0.183360
H54   H     H_    0.965882 0.197694 0.026838 -0.040160
H55   H     H_    0.678582 0.489271 0.863040 -0.051719
H56   H     H_    0.031009 0.278125 0.433992 0.044104
H57   H     H_    0.203155 0.962400 0.282494 0.145150
H58   H     H_    0.348367 0.918076 0.324701 0.142225
H59   H     H_    0.415043 0.974006 0.262082 0.123433
H60   H     H_    0.386921 0.803180 0.241346 0.148185
H61   H     H_    0.266387 0.853025 0.194099 0.140998
H62   H     H_    0.866620 0.141684 0.332232 0.133795
H63   H     H_    0.879662 0.120461 0.407199 0.048505
H64   H     H_    0.063185 0.141314 0.365336 0.123718
N1    N     N_R   0.001659 0.502203 0.851730 -0.428498
N2    N     N_R   0.208212 0.514736 0.152308 -0.426576
O1    O     O_2   0.888680 0.450300 0.360330 -0.464200
O2    O     O_2   0.191403 0.178665 0.538330 -0.491509
O3    O     O_3   0.039631 0.184295 0.637736 -0.641173
O4    O     O_3   0.129270 0.451230 0.431380 -0.494872
O5    O     O_3   0.578310 0.608920 0.529980 -0.445756
O6    O     O_2   0.337770 0.279070 0.470480 -0.455506
O7    O     O_3   0.503504 0.256929 0.370928 -0.644217
O8    O     O_2   0.432427 0.459849 0.709775 -0.458512
O9    O     O_3   0.462635 0.290416 0.708898 -0.581487
O10   O     O_2   0.092645 0.652483 0.860862 -0.595895
O11   O     O_2   0.926916 0.350783 0.849317 -0.566700
O12   O     O_3   0.714708 0.745741 0.621617 -0.628823
O13   O     O_2   0.133962 0.363766 0.143062 -0.556689
O14   O     O_2   0.303873 0.663515 0.151708 -0.631834
O15   O     O_3   0.676100 0.614850 0.396630 -0.490025
O16   O     O_2   0.786268 0.551280 0.293000 -0.491191
O17   O     O_3   0.027499 0.306626 0.348285 -0.626815
O18   O     O_3   0.734009 0.718735 0.301640 -0.601215
O19   O     O_2   0.851930 0.720960 0.529560 -0.445798
O20   O     O_3   0.095720 0.661380 0.425720 -0.494925
O21   O     O_2   0.029134 0.823213 0.470569 -0.486799
O22   O     O_2   0.668979 0.564299 0.632474 -0.577673
O23   O     O_3   0.104371 0.810542 0.360239 -0.607100
O24   O     O_2   0.139681 0.320852 0.758775 -0.519385
O25   O     O_2   0.577719 0.111120 0.619069 -0.629569
O26   O     O_2   0.872958 0.263393 0.096429 -0.532275
O27   O     O_2   0.542771 0.388851 0.813125 -0.509530
O28   O     O_2   0.301020 0.549730 0.639710 -0.475099
O29   O     O_3   0.060450 0.548840 0.568630 -0.478209
O30   O     O_3   0.513610 0.385220 0.603380 -0.461901
O31   O     O_3   0.176313 0.694748 0.646795 -0.635445
O32   O     O_3   0.611400 0.391150 0.470030 -0.470490
O33   O     O_3   0.093990 0.338690 0.574280 -0.515644
P1    P     P_3+3 0.054670 0.423610 0.368990 0.996969
P2    P     P_3+3 0.674060 0.707690 0.546600 1.037813
P3    P     P_3+3 0.146913 0.778590 0.428159 0.933104
P4    P     P_3+3 0.135040 0.576460 0.631020 1.006201
P5    P     P_3+3 0.047052 0.219620 0.567657 0.925378
P6    P     P_3+3 0.662595 0.610453 0.320413 0.944690
P7    P     P_3+3 0.516954 0.279639 0.447500 0.950832
P8    P     P_3+3 0.539559 0.392158 0.680590 1.033789

loop_
_geom_bond_atom_site_label_1
_geom_bond_atom_site_label_2
_ccdc_geom_bond_type
C6    C7    A    
C19   C24   D    
C51   O22   D    
C17   O13   D    
C61   O9    S    
C1    H3    S    
C62   H25   S    
Ba1   O1    S    
C60   H59   S    
O33   P5    S    
C5    C6    A    
C55   H50   S    
C43   C44   A    
C54   C55   S    
C29   H31   S    
C32   C38   A    
C4    H33   S    
C33   C35   A    
C58   O27   D    
C32   C33   A    
C30   N2    S    
C36   C37   A    
C8    H29   S    
C13   C14   A    
O19   P2    D    
C16   H16   S    
O28   P4    D    
Ba1   Ba2   S    
C54   H52   S    
C45   H17   S    
C27   P1    S    
C7    C11   A    
C16   H42   S    
C5    N1    Am   
O2    P5    D    
C50   H4    S    
C34   H11   S    
C36   C44   S    
O4    P1    S    
O30   P8    S    
C9    H27   S    
C29   C30   A    
Ba2   O28   S    
C21   C31   D    
O3    P5    S    
C53   C61   S    
C21   C22   D    
C54   C62   S    
C58   H55   S    
C59   H61   S    
Ba1   O5    S    
O32   P7    S    
C41   C46   A    
C62   H22   S    
C24   N1    S    
O16   P6    D    
C51   H46   S    
O29   P4    S    
O7    P7    S    
O9    P8    S    
C19   C20   S    
O17   P1    S    
C39   C41   A    
Ba1   O15   S    
C54   H53   S    
C1    H15   S    
Ba2   O30   S    
C60   H58   S    
C55   H51   S    
Ba2   O29   S    
C17   N2    Am   
C53   O25   D    
C4    C16   S    
Ba1   O19   S    
C28   H44   S    
C49   C50   S    
C32   H41   S    
C37   H39   S    
O1    P1    D    
C19   C58   S    
C22   H30   S    
Ba2   O33   S    
C37   C38   A    
C14   C15   A    
C49   H2    S    
C53   H48   S    
C61   C62   S    
C26   C63   A    
Ba2   O5    S    
O18   P6    S    
C47   O17   S    
C49   C51   S    
C14   C57   S    
O12   P2    S    
C35   C36   A    
C48   H64   S    
C56   H19   S    
C3    O10   D    
C46   H40   S    
Ba1   P1    S    
C39   C44   A    
C47   H56   S    
C10   C18   A    
C12   H1    S    
C52   H47   S    
O8    P8    D    
C42   P2    S    
C4    O23   S    
C1    C12   S    
C45   C52   S    
C27   C63   A    
C26   P6    S    
C3    N1    Am   
C6    C13   A    
C49   O12   S    
O15   P6    S    
C61   H21   S    
C33   P5    S    
O31   P4    S    
O23   P3    S    
C25   H28   S    
C40   H23   S    
C28   O31   S    
C18   N2    Am   
C2    C8    A    
C56   H20   S    
Ba2   P4    S    
C60   H57   S    
O21   P3    D    
C42   C43   A    
C52   O24   D    
C20   C31   S    
C57   H54   S    
C28   H43   S    
C25   C30   A    
Ba2   O6    S    
C12   H7    S    
Ba1   O29   S    
C22   C24   S    
C2    C3    A    
C34   H14   S    
Ba2   O32   S    
C9    C10   A    
C16   C59   S    
C55   H49   S    
C41   P3    S    
C4    H24   S    
Ba2   O4    S    
C11   C15   A    
C23   H9    S    
C31   H35   S    
C23   O7    S    
C63   H32   S    
C45   O3    S    
C50   H6    S    
C34   H13   S    
C56   H18   S    
C45   C56   S    
C57   O26   D    
C35   H37   S    
O5    P2    S    
Ba1   P2    S    
O20   P3    S    
C12   O18   S    
C15   C17   A    
C39   H36   S    
Ba1   O20   S    
C38   P7    S    
C59   C60   S    
C1    H8    S    
O6    P7    D    
C50   H5    S    
C8    C9    A    
C23   C34   S    
C13   H26   S    
C21   P4    S    
C48   H63   S    
C10   C11   A    
Ba1   O32   S    
C40   H12   S    
C27   C29   A    
C47   C48   S    
Ba1   O4    S    
C25   C26   A    
C18   O14   D    
C28   C40   S    
C59   H60   S    
C48   H62   S    
C23   H10   S    
C2    C7    A    
C40   H34   S    
C5    O11   D    
C20   P8    S    
C42   C46   A    
C47   H45   S    
C43   H38   S    
