data_mof_unit_50288.cif
_audit_creation_date              2013-03-05T16:31:38-0500
_audit_creation_method            fapswitch 2.2
_symmetry_space_group_name_H-M    P1
_symmetry_Int_Tables_number       1
_space_group_crystal_system       triclinic
_cell_length_a                    9.555595
_cell_length_b                    10.803536
_cell_length_c                    15.428928
_cell_angle_alpha                 89.828484
_cell_angle_beta                  74.698101
_cell_angle_gamma                 90.615482
_cell_volume                      1536.20993696

loop_
_atom_site_label
_atom_site_type_symbol
_atom_site_description
_atom_site_fract_x
_atom_site_fract_y
_atom_site_fract_z
_atom_type_partial_charge
O1    O     O_R   0.118810 0.319640 0.500000 -0.587346
O2    O     O_R   0.881230 0.319680 0.499990 -0.588552
C1    C     C_R   0.998997 0.262637 0.500895 0.807152
O3    O     O_R   0.055580 0.499970 0.629840 -0.528262
O4    O     O_R   0.818000 0.500010 0.629830 -0.577792
C2    C     C_R   0.918844 0.497944 0.672548 0.863870
Cu1   Cu    Cu3+1 0.140670 0.499980 0.500000 0.998889
Cu2   Cu    Cu3+1 0.859330 0.500020 0.500000 1.004913
O5    O     O_R   0.118770 0.680320 0.500010 -0.583465
O6    O     O_R   0.881190 0.680360 0.500000 -0.549253
O7    O     O_R   0.182000 0.499990 0.370170 -0.587960
O8    O     O_R   0.944420 0.500030 0.370160 -0.572312
C3    C     C_R   0.999553 0.737597 0.502279 0.881868
C4    C     C_R   0.081522 0.500667 0.327794 0.820888
C5    C     C_R   0.874305 0.484241 0.771513 -0.157466
C6    C     C_R   0.126272 0.507449 0.229256 -0.131419
C7    C     C_R   0.908676 0.404310 0.911465 -0.209567
C8    C     C_R   0.967129 0.437488 0.821439 0.343700
C9    C     C_R   0.728275 0.505458 0.815174 -0.232020
C10   C     C_R   0.667736 0.471837 0.905627 0.089436
C11   C     C_R   0.760882 0.419654 0.953202 0.118856
C12   C     C_R   0.518124 0.489562 0.950290 0.065768
C13   C     C_R   0.466554 0.461688 0.043720 0.095028
C14   C     C_R   0.562660 0.404722 0.087207 -0.159381
C15   C     C_R   0.706459 0.384116 0.042574 -0.111960
C16   C     C_R   0.418013 0.532778 0.904546 -0.144753
C17   C     C_R   0.275865 0.558420 0.949796 -0.099533
C18   C     C_R   0.226412 0.543834 0.042824 -0.004303
C19   C     C_R   0.320776 0.491706 0.090415 0.065054
C20   C     C_R   0.083428 0.578581 0.089284 0.308300
C21   C     C_R   0.033814 0.555406 0.181559 -0.207976
C22   C     C_R   0.267791 0.476026 0.183959 -0.224870
H1    H     H_    0.776515 0.341910 0.079041 0.148186
H2    H     H_    0.335306 0.442344 0.224404 0.159485
H3    H     H_    0.925732 0.582684 0.217331 0.237719
H4    H     H_    0.204719 0.589892 0.910558 0.226429
H5    H     H_    0.979726 0.367308 0.949368 0.166777
H6    H     H_    0.663928 0.548475 0.776202 0.195345
H7    H     H_    0.530760 0.373159 0.155875 0.135907
H8    H     H_    0.444757 0.546380 0.832905 0.182248
C23   C     C_R   0.120672 0.065611 0.462318 0.142640
C24   C     C_R   0.997151 0.129686 0.505895 -0.139675
C25   C     C_R   0.877180 0.065115 0.559414 -0.244430
H9    H     H_    0.784462 0.115667 0.598269 0.188395
C26   C     C_R   0.877304 0.935277 0.563524 0.334468
C27   C     C_R   0.998377 0.871062 0.510062 -0.185087
C28   C     C_R   0.121056 0.938134 0.463562 0.072887
C29   C     C_3   0.200393 0.933004 0.366032 -0.429531
C30   C     C_3   0.200489 0.073054 0.365350 -0.443107
H10   H     H_    0.311294 0.896386 0.354546 0.207451
H11   H     H_    0.134325 0.890906 0.323997 0.230168
H12   H     H_    0.310458 0.115000 0.355118 0.206723
H13   H     H_    0.134355 0.113064 0.322901 0.204194
C31   C     C_R   0.601351 0.567371 0.437347 0.185946
N1    N     N_R   0.648210 0.500930 0.499430 -0.214603
C32   C     C_R   0.549691 0.424200 0.555798 -0.039490
H14   H     H_    0.584860 0.364627 0.602263 0.153165
C33   C     C_R   0.400960 0.423905 0.555568 0.014158
H15   H     H_    0.324828 0.363841 0.601606 0.186568
N2    N     N_R   0.352300 0.500890 0.499430 -0.192575
C34   C     C_R   0.453737 0.567514 0.437777 0.205599
C35   C     C_3   0.453374 0.703619 0.423643 -0.531323
C36   C     C_3   0.612085 0.704761 0.424415 0.121624
H16   H     H_    0.433947 0.724930 0.357483 0.222456
H17   H     H_    0.383142 0.753213 0.481772 0.214650
H18   H     H_    0.633471 0.755289 0.482387 0.172377
N3    N     N_R   0.991273 0.645689 0.045838 0.117721
O9    O     O_R   0.851286 0.629400 0.072080 -0.314978
O10   O     O_R   0.042418 0.741872 0.996048 -0.315448
N4    N     N_R   0.755644 0.871313 0.621957 0.124513
O11   O     O_R   0.776575 0.778266 0.670590 -0.359973
O12   O     O_R   0.626088 0.917162 0.637091 -0.349689
N5    N     N_R   0.710097 0.740881 0.337904 0.143064
O13   O     O_R   0.815165 0.819445 0.335479 -0.365143
O14   O     O_R   0.690734 0.698775 0.262888 -0.335089
N6    N     N_R   0.119716 0.422108 0.782586 0.097385
O15   O     O_R   0.200633 0.518127 0.750914 -0.372119
O16   O     O_R   0.181766 0.320414 0.797239 -0.371518

loop_
_geom_bond_atom_site_label_1
_geom_bond_atom_site_label_2
_geom_bond_distance
_ccdc_geom_bond_type
C5    C8    1.415337 A    
N1    C32   1.369881 A    
C1    C24   1.437843 S    
C23   C24   1.387764 A    
C9    C10   1.407325 A    
Cu1   Cu2   2.688375 S    
C26   C27   1.420260 A    
C6    C21   1.393296 A    
Cu1   O7    1.936746 S    
C16   C17   1.384874 A    
C13   C19   1.430398 A    
C18   C19   1.423823 A    
N6    O16   1.301141 A    
C19   C22   1.406817 A    
C20   C21   1.397660 A    
O7    C4    1.296470 A    
C31   C36   1.495871 S    
C33   N2    1.369204 A    
C14   H7    1.075554 S    
C32   H14   1.081738 S    
N5    O13   1.300570 A    
O5    C3    1.294645 A    
C35   H16   1.108597 S    
C2    C5    1.479472 S    
C31   N1    1.364703 A    
C29   H11   1.112536 S    
C13   C14   1.416765 A    
N4    O11   1.300981 A    
C20   N3    1.439709 S    
C29   H10   1.105092 S    
C36   H18   1.112110 S    
N5    O14   1.301983 A    
O3    Cu1   1.953090 S    
Cu2   N1    2.019847 S    
C23   C30   1.490716 S    
C12   C13   1.425047 A    
N3    O9    1.301114 A    
C14   C15   1.385616 A    
O3    C2    1.298746 A    
C36   N5    1.462955 S    
C33   H15   1.081297 S    
C7    C11   1.400825 A    
N2    C34   1.362611 A    
N3    O10   1.301884 A    
C22   H2    1.074336 S    
C5    C9    1.401836 A    
C25   H9    1.083796 S    
C35   C36   1.519681 S    
C9    H6    1.074807 S    
C28   C29   1.497163 S    
Cu2   O8    1.953090 S    
C30   H12   1.111888 S    
C7    C8    1.397493 A    
C23   C28   1.377332 A    
C7    H5    1.084772 S    
N6    O15   1.301162 A    
C25   C26   1.403986 A    
C29   C30   1.513035 S    
C10   C12   1.429015 A    
C4    C6    1.468041 S    
C24   C25   1.400870 A    
Cu1   N2    2.019866 S    
Cu1   O5    1.961746 S    
C11   C15   1.390436 A    
C27   C28   1.395969 A    
C8    N6    1.434358 S    
C35   H17   1.111188 S    
C26   N4    1.437926 S    
O1    Cu1   1.957243 S    
O2    Cu2   1.961745 S    
O8    C4    1.300559 A    
O6    C3    1.291871 A    
O4    Cu2   1.936743 S    
C31   C34   1.408830 A    
C17   H4    1.079485 S    
C6    C22   1.394576 A    
C18   C20   1.420291 A    
O2    C1    1.292092 A    
C16   H8    1.076026 S    
O4    C2    1.303484 A    
C30   H13   1.112548 S    
C32   C33   1.422126 A    
C21   H3    1.079250 S    
C34   C35   1.486027 S    
C10   C11   1.414916 A    
Cu2   O6    1.957243 S    
C12   C16   1.412522 A    
C17   C18   1.395480 A    
C3    C27   1.447162 S    
N4    O12   1.301454 A    
O1    C1    1.290992 A    
C15   H1    1.084638 S    
