data_mof_unit_12422.cif
_audit_creation_date              2012-12-11T17:07:26-0500
_audit_creation_method            fapswitch 2.2
_symmetry_space_group_name_H-M    P1
_symmetry_Int_Tables_number       1
_space_group_crystal_system       triclinic
_cell_length_a                    6.966265
_cell_length_b                    14.514517
_cell_length_c                    16.083389
_cell_angle_alpha                 89.930929
_cell_angle_beta                  89.93341
_cell_angle_gamma                 89.941981
_cell_volume                      1626.22006308

loop_
_atom_site_label
_atom_site_type_symbol
_atom_type_description
_atom_site_fract_x
_atom_site_fract_y
_atom_site_fract_z
_atom_type_partial_charge
O1    O     O_R   0.505720 0.583900 0.413310 -0.537508
O2    O     O_R   0.175940 0.594920 0.586080 -0.544755
O3    O     O_R   0.005640 0.416100 0.586690 -0.535911
C1    C     C_R   0.344604 0.616683 0.614991 0.698340
O4    O     O_R   0.176000 0.594930 0.413930 -0.543074
O5    O     O_R   0.005700 0.416110 0.413310 -0.543604
C2    C     C_R   0.344667 0.616882 0.385267 0.711688
O6    O     O_R   0.505660 0.583890 0.586690 -0.539475
O7    O     O_3   0.339200 0.441330 0.500000 -0.367813
V1    V     V_3+5 0.064350 0.510880 0.500000 1.399800
O8    O     O_R   0.675980 0.405080 0.413920 -0.538925
C3    C     C_R   0.845146 0.383084 0.385158 0.689648
O9    O     O_R   0.675920 0.405070 0.586070 -0.537246
C4    C     C_R   0.844690 0.383212 0.614580 0.696586
V2    V     V_3+5 0.564340 0.489120 0.500000 1.413515
O10   O     O_3   0.839360 0.558670 0.500000 -0.372755
H1    H     H_    0.193543 0.107494 0.522548 0.115955
C5    C     C_R   0.678157 0.420618 0.776305 -0.149906
C6    C     C_R   0.598075 0.441154 0.853466 -0.110183
C7    C     C_R   0.610539 0.378091 0.918242 -0.107024
C8    C     C_R   0.703261 0.294045 0.906352 -0.139681
C9    C     C_R   0.783857 0.270521 0.828282 0.067417
C10   C     C_R   0.771051 0.335223 0.761812 0.071725
C11   C     C_R   0.881107 0.185483 0.816583 -0.178613
C12   C     C_R   0.968193 0.165928 0.738639 0.070433
C13   C     C_R   0.953086 0.230087 0.671862 0.066846
C14   C     C_R   0.854815 0.314834 0.683435 -0.182953
C15   C     C_R   0.067676 0.082112 0.724932 -0.082165
C16   C     C_R   0.149264 0.061978 0.647982 -0.070289
C17   C     C_R   0.131961 0.123915 0.582571 -0.122483
C18   C     C_R   0.034216 0.206731 0.593836 -0.132444
H2    H     H_    0.667792 0.473054 0.728767 0.113763
H3    H     H_    0.527567 0.506784 0.863223 0.125544
H4    H     H_    0.713067 0.248669 0.959537 0.103213
H5    H     H_    0.082079 0.030438 0.772874 0.128403
H6    H     H_    0.224393 0.997414 0.638874 0.145230
H7    H     H_    0.021754 0.251468 0.540316 0.109815
C19   C     C_R   0.727841 0.182606 0.241590 0.101487
C20   C     C_R   0.881880 0.182442 0.185466 -0.109828
C21   C     C_R   0.033439 0.244202 0.201112 -0.173610
H8    H     H_    0.155839 0.246440 0.159856 0.134203
C22   C     C_R   0.022412 0.308268 0.266737 -0.171495
H9    H     H_    0.137164 0.357676 0.274149 0.129956
C23   C     C_R   0.859167 0.312771 0.318527 -0.111683
C24   C     C_R   0.716482 0.246251 0.306296 0.105874
C25   C     C_3   0.505823 0.258520 0.294785 -0.405013
C26   C     C_3   0.518130 0.188829 0.224561 -0.402796
H10   H     H_    0.469284 0.329155 0.273222 0.169074
H11   H     H_    0.422204 0.233362 0.349155 0.174585
H12   H     H_    0.488072 0.218820 0.162284 0.169153
H13   H     H_    0.442354 0.123213 0.238470 0.167109
C27   C     C_R   0.515187 0.687237 0.737050 0.039377
C28   C     C_R   0.353039 0.681958 0.685781 -0.084613
C29   C     C_R   0.199352 0.741768 0.703451 -0.161397
H14   H     H_    0.074891 0.742581 0.663616 0.154551
C30   C     C_R   0.210990 0.805899 0.768882 -0.156554
H15   H     H_    0.095173 0.853668 0.778624 0.166824
C31   C     C_R   0.376970 0.813591 0.817732 -0.062310
C32   C     C_R   0.528801 0.753988 0.799475 0.075643
C33   C     C_3   0.727525 0.778967 0.773785 0.090290
C34   C     C_3   0.717081 0.702136 0.710212 -0.418235
H16   H     H_    0.832719 0.766431 0.824370 0.126560
H17   H     H_    0.809537 0.642159 0.726048 0.142808
H18   H     H_    0.728453 0.725505 0.644505 0.207039
C35   C     C_R   0.484762 0.757821 0.317093 0.102029
C36   C     C_R   0.351430 0.685824 0.317538 -0.142312
C37   C     C_R   0.216907 0.683387 0.252180 -0.206340
H19   H     H_    0.108656 0.629865 0.251144 0.149022
C38   C     C_R   0.230408 0.744840 0.184170 0.243634
C39   C     C_R   0.375715 0.813454 0.182095 -0.141154
C40   C     C_R   0.494761 0.820624 0.251978 0.037968
C41   C     C_3   0.707950 0.827506 0.258660 -0.388018
C42   C     C_3   0.696843 0.758129 0.329604 -0.376234
H20   H     H_    0.754913 0.897079 0.279029 0.162921
H21   H     H_    0.782276 0.800565 0.202757 0.226707
H22   H     H_    0.737961 0.787760 0.390726 0.171057
H23   H     H_    0.764547 0.690780 0.314443 0.185256
O11   O     O_R   0.229140 0.916090 0.913340 -0.540891
O12   O     O_R   0.558860 0.905090 0.086080 -0.538024
O13   O     O_R   0.729100 0.083920 0.086690 -0.545805
C43   C     C_R   0.389514 0.881578 0.113573 0.746194
O14   O     O_R   0.558860 0.905090 0.913930 -0.523250
O15   O     O_R   0.729100 0.083920 0.913310 -0.528624
C44   C     C_R   0.389954 0.883407 0.884893 0.742815
O16   O     O_R   0.229140 0.916080 0.086720 -0.520687
O17   O     O_3   0.395570 0.058660 0.000020 -0.382889
V3    V     V_3+5 0.670450 0.989140 0.000000 1.490324
O18   O     O_R   0.058810 0.094980 0.913910 -0.548838
C45   C     C_R   0.890210 0.116788 0.885311 0.710590
O19   O     O_R   0.058810 0.094980 0.086060 -0.547892
C46   C     C_R   0.889925 0.116991 0.114780 0.672542
V4    V     V_3+5 0.170450 0.010950 0.999970 1.454875
O20   O     O_3   0.895460 0.941370 0.999990 -0.344277
Br1   Br    Br    0.735945 0.900080 0.720384 -0.635899
Br2   Br    Br    0.065119 0.722700 0.090740 -0.593490
H24   H     H_    0.549763 0.394737 0.978366 0.120576

loop_
_geom_bond_atom_site_label_1
_geom_bond_atom_site_label_2
_ccdc_geom_bond_type
O15   V3    S    
C1    C28   S    
C6    C7    A    
C1    O6    A    
C11   C45   S    
O12   V3    S    
C28   C29   A    
C23   C24   A    
C12   C15   A    
C16   H6    S    
C13   C14   A    
C15   C16   A    
O13   V3    S    
C27   C34   S    
O5    C3    A    
C17   C18   A    
O14   V3    S    
C35   C42   S    
C30   H15   S    
C33   H16   S    
C5    C6    A    
C34   H17   S    
C39   C43   S    
C19   C24   A    
C29   H14   S    
O8    V2    S    
O17   V4    S    
O18   V4    S    
C15   H5    S    
C39   C40   A    
O1    V2    S    
C10   C14   A    
C4    C14   S    
O7    V1    S    
C21   C22   A    
C36   C37   A    
C7    H24   S    
C32   C33   S    
O9    C4    A    
H1    C17   S    
C22   C23   A    
C41   H21   S    
C20   C46   S    
O16   V4    S    
C26   H12   S    
C25   H10   S    
O15   C45   A    
C29   C30   A    
C37   H19   S    
C11   C12   A    
C41   H20   S    
C6    H3    S    
C20   C21   A    
O4    C2    A    
O17   V3    S    
C26   H13   S    
C8    H4    S    
O11   V4    S    
C31   C32   A    
C24   C25   S    
C5    C10   A    
C18   H7    S    
C33   C34   S    
C37   C38   A    
C34   H18   S    
O2    C1    A    
C16   C17   A    
C27   C32   A    
C31   C44   S    
O19   V4    S    
C25   H11   S    
O18   C45   A    
C19   C26   S    
O3    C4    A    
C21   H8    S    
O6    V2    S    
O14   C44   A    
O9    V2    S    
C42   H22   S    
C9    C11   A    
C5    H2    S    
C22   H9    S    
O2    V1    S    
C27   C28   A    
O12   C43   A    
C25   C26   S    
O1    C2    A    
C41   C42   S    
C38   Br2   S    
O5    V1    S    
O8    C3    A    
O13   C46   A    
C12   C13   A    
O4    V1    S    
C3    C23   S    
O3    V1    S    
C35   C40   A    
C2    C36   S    
O19   C46   A    
C19   C20   A    
V3    O20   S    
V4    O20   S    
C30   C31   A    
O7    V2    S    
C38   C39   A    
O11   C44   A    
C13   C18   A    
C40   C41   S    
C7    C8    A    
C35   C36   A    
C42   H23   S    
C9    C10   A    
V1    O10   S    
C8    C9    A    
C43   O16   A    
V2    O10   S    
C33   Br1   S    
