data_mof_unit_56905.cif
_audit_creation_date              2012-12-11T15:37:23-0500
_audit_creation_method            fapswitch 2.2
_symmetry_space_group_name_H-M    P1
_symmetry_Int_Tables_number       1
_space_group_crystal_system       triclinic
_cell_length_a                    17.408451
_cell_length_b                    24.420529
_cell_length_c                    14.76095
_cell_angle_alpha                 90.373277
_cell_angle_beta                  125.694294
_cell_angle_gamma                 89.027495
_cell_volume                      5095.59543613

loop_
_atom_site_label
_atom_site_type_symbol
_atom_type_description
_atom_site_fract_x
_atom_site_fract_y
_atom_site_fract_z
_atom_type_partial_charge
C1    C     C_R   0.854115 0.653930 0.910244 -0.118205
C2    C     C_R   0.141332 0.344975 0.087894 -0.149087
C3    C     C_R   0.143995 0.653201 0.088207 -0.169574
C4    C     C_R   0.845511 0.349991 0.909017 -0.154051
C5    C     C_R   0.309080 0.125262 0.907528 -0.142771
C6    C     C_R   0.691606 0.876236 0.090522 -0.135758
C7    C     C_R   0.687615 0.127703 0.090634 -0.142477
C8    C     C_R   0.316172 0.867900 0.908306 -0.145855
C9    C     C_3   0.424452 0.498432 0.358527 0.168328
C10   C     C_3   0.594842 0.500639 0.538741 0.178998
C11   C     C_3   0.907722 0.999428 0.439315 0.166940
C12   C     C_3   0.090687 0.000535 0.562542 0.160719
C13   C     C_R   0.730043 0.277988 0.941271 -0.260017
C14   C     C_R   0.263605 0.717932 0.054142 -0.246445
C15   C     C_R   0.194374 0.228629 0.093146 -0.252927
C16   C     C_R   0.799091 0.770298 0.901436 -0.249305
C17   C     C_R   0.176023 0.816929 0.945719 -0.272100
C18   C     C_R   0.827867 0.181129 0.051770 -0.252083
C19   C     C_R   0.845550 0.818977 0.097318 -0.239139
C20   C     C_R   0.155399 0.185218 0.896536 -0.244128
C21   C     C_R   0.120864 0.774949 0.940016 0.041425
C22   C     C_R   0.878425 0.226203 0.058344 0.041154
C23   C     C_R   0.897242 0.773353 0.102875 0.030155
C24   C     C_R   0.100221 0.228479 0.891681 0.033745
C25   C     C_R   0.679819 0.233862 0.935224 0.051893
C26   C     C_R   0.318361 0.759168 0.059692 0.057260
C27   C     C_R   0.248115 0.184478 0.097619 0.015606
C28   C     C_R   0.748379 0.816364 0.896142 0.031892
C29   C     C_R   0.166104 0.725960 0.995097 0.120353
C30   C     C_R   0.828078 0.274203 0.002494 0.120946
C31   C     C_R   0.865109 0.744267 0.004110 0.115007
C32   C     C_R   0.129279 0.255544 0.991308 0.113028
C33   C     C_R   0.729299 0.185166 0.989914 0.122186
C34   C     C_R   0.273906 0.808733 0.005924 0.121126
C35   C     C_R   0.237420 0.168361 0.999326 0.126363
C36   C     C_R   0.762861 0.835683 0.995008 0.118388
C37   C     C_R   0.865333 0.450757 0.441879 -0.133733
C38   C     C_R   0.870156 0.550748 0.352953 -0.155286
C39   C     C_R   0.868870 0.451768 0.348628 -0.158571
C40   C     C_R   0.862919 0.549896 0.443320 -0.127966
C41   C     C_R   0.361042 0.963491 0.440924 -0.177214
C42   C     C_R   0.478929 0.046946 0.459133 -0.169456
C43   C     C_R   0.396554 0.960447 0.376083 -0.120589
C44   C     C_R   0.413815 0.056525 0.483388 -0.166311
C45   C     C_R   0.893149 0.501334 0.322967 0.030133
C46   C     C_R   0.881575 0.500013 0.501711 -0.003340
C47   C     C_R   0.463988 0.000064 0.394523 -0.030199
C48   C     C_R   0.382066 0.010175 0.506672 0.065838
C49   C     C_R   0.940366 0.351220 0.095383 -0.105955
C50   C     C_R   0.056434 0.649000 0.902844 -0.127760
C51   C     C_R   0.052535 0.349157 0.903450 -0.119648
C52   C     C_R   0.946638 0.651404 0.094895 -0.098481
C53   C     C_R   0.414089 0.867461 0.095932 -0.096909
C54   C     C_R   0.592046 0.124753 0.903139 -0.108199
C55   C     C_R   0.595206 0.876527 0.903925 -0.118758
C56   C     C_R   0.406312 0.129133 0.093176 -0.117110
C57   C     C_R   0.982031 0.546614 0.251398 -0.107885
C58   C     C_R   0.948044 0.454246 0.692929 -0.114548
C59   C     C_R   0.947382 0.545509 0.692504 -0.116365
C60   C     C_R   0.983243 0.454687 0.252702 -0.094962
C61   C     C_R   0.513671 0.045595 0.283538 -0.054800
C62   C     C_R   0.441756 0.956506 0.688476 -0.134275
C63   C     C_R   0.444928 0.047588 0.694489 -0.119096
C64   C     C_R   0.518090 0.953841 0.286218 -0.135395
C65   C     C_R   0.737832 0.455007 0.701856 0.019437
C66   C     C_R   0.268471 0.544661 0.247757 0.025972
C67   C     C_R   0.268724 0.453853 0.247897 0.028669
C68   C     C_R   0.736218 0.545695 0.703290 0.043059
C69   C     C_R   0.242518 0.955096 0.696393 0.005676
C70   C     C_R   0.756394 0.044835 0.304582 0.002521
C71   C     C_R   0.757134 0.954664 0.305049 -0.007611
C72   C     C_R   0.242018 0.045266 0.695491 -0.015323
C73   C     C_R   0.887088 0.685453 0.004234 0.069086
C74   C     C_R   0.108501 0.314160 0.993127 0.070194
C75   C     C_R   0.115661 0.681033 0.993511 0.072498
C76   C     C_R   0.873383 0.321973 0.003541 0.064262
C77   C     C_R   0.313825 0.140335 0.001148 0.073833
C78   C     C_R   0.687369 0.863993 0.995347 0.064908
C79   C     C_R   0.678654 0.141540 0.994379 0.058475
C80   C     C_R   0.328546 0.850127 0.004021 0.052470
C81   C     C_R   0.948919 0.501052 0.275446 0.099502
C82   C     C_R   0.925364 0.499807 0.624442 0.080716
C83   C     C_R   0.502264 0.999471 0.328931 0.142378
C84   C     C_R   0.420498 0.003916 0.624803 0.108896
C85   C     C_R   0.685357 0.500628 0.644980 0.031814
C86   C     C_R   0.324335 0.498729 0.271195 -0.002317
C87   C     C_R   0.192706 0.000309 0.634069 0.107215
C88   C     C_R   0.805680 0.999605 0.367339 0.055073
C89   C     C_3   0.522724 0.457083 0.513506 -0.159804
C90   C     C_3   0.496341 0.542049 0.383027 -0.158275
C91   C     C_3   0.497235 0.452095 0.394678 -0.149882
C92   C     C_3   0.521917 0.546811 0.502019 -0.151928
C93   C     C_3   0.032148 0.956802 0.570100 -0.160188
C94   C     C_3   0.966283 0.043170 0.431809 -0.170112
C95   C     C_3   0.970169 0.953444 0.441873 -0.153976
C96   C     C_3   0.028259 0.046507 0.560038 -0.158554
C97   C     C_3   0.449433 0.503246 0.476393 -0.131559
C98   C     C_3   0.571576 0.495683 0.421848 -0.061136
C99   C     C_3   0.968231 0.002787 0.565893 -0.131825
C100  C     C_3   0.030158 0.997172 0.435956 -0.098388
H1    H     H_    0.819756 0.669241 0.826827 0.078224
H2    H     H_    0.172062 0.328732 0.170124 0.088657
H3    H     H_    0.179738 0.670686 0.170395 0.108377
H4    H     H_    0.802411 0.334630 0.824999 0.100362
H5    H     H_    0.249543 0.128786 0.821893 0.091225
H6    H     H_    0.751435 0.871766 0.175938 0.094633
H7    H     H_    0.744426 0.138029 0.175085 0.105199
H8    H     H_    0.259908 0.857720 0.823614 0.098903
H9    H     H_    0.982905 0.337330 0.181129 0.105019
H10   H     H_    0.017204 0.660350 0.815743 0.111618
H11   H     H_    0.005728 0.338954 0.816474 0.111001
H12   H     H_    0.995045 0.662996 0.180865 0.104556
H13   H     H_    0.447871 0.854847 0.181115 0.131191
H14   H     H_    0.561648 0.132664 0.816379 0.120764
H15   H     H_    0.564293 0.871588 0.816638 0.116643
H16   H     H_    0.438636 0.142634 0.177016 0.103081
H17   H     H_    0.974083 0.589127 0.263937 0.113019
H18   H     H_    0.935215 0.411897 0.669429 0.110835
H19   H     H_    0.933631 0.587907 0.667878 0.112431
H20   H     H_    0.977247 0.412584 0.268022 0.104221
H21   H     H_    0.516132 0.087243 0.308963 0.086557
H22   H     H_    0.422940 0.915229 0.657005 0.104989
H23   H     H_    0.427854 0.090105 0.671502 0.115718
H24   H     H_    0.526736 0.912227 0.314870 0.110419
H25   H     H_    0.397624 0.506170 0.497231 0.126599
H26   H     H_    0.624815 0.492714 0.403350 0.187024
H27   H     H_    0.940463 0.004966 0.617080 0.126265
H28   H     H_    0.057885 0.995038 0.384725 0.160334
H29   H     H_    0.533706 0.422591 0.568697 0.124022
H30   H     H_    0.483312 0.576475 0.326699 0.127827
H31   H     H_    0.485507 0.413565 0.348249 0.136942
H32   H     H_    0.531765 0.585540 0.547084 0.126386
H33   H     H_    0.059215 0.921432 0.628363 0.112254
H34   H     H_    0.939108 0.078609 0.373685 0.117182
H35   H     H_    0.946620 0.915137 0.392501 0.112455
H36   H     H_    0.051543 0.084746 0.609595 0.109832
H37   H     H_    0.692447 0.315955 0.900278 0.134601
H38   H     H_    0.297060 0.679007 0.094088 0.127670
H39   H     H_    0.209963 0.243831 0.171005 0.128686
H40   H     H_    0.780733 0.753377 0.823528 0.120823
H41   H     H_    0.143159 0.855461 0.903318 0.133412
H42   H     H_    0.864885 0.143564 0.095490 0.131290
H43   H     H_    0.866912 0.838082 0.174824 0.117705
H44   H     H_    0.136643 0.168161 0.818529 0.115172
N1    N     N_R   0.892620 0.603790 0.941800 -0.038704
N2    N     N_R   0.107380 0.396210 0.058200 -0.041544
N3    N     N_R   0.107380 0.603790 0.058200 -0.040891
N4    N     N_R   0.892620 0.396210 0.941800 -0.037047
N5    N     N_R   0.392620 0.103790 0.941800 -0.044143
N6    N     N_R   0.607380 0.896210 0.058200 -0.045035
N7    N     N_R   0.607380 0.103790 0.058200 -0.045199
N8    N     N_R   0.392620 0.896210 0.941800 -0.042673
N9    N     N_R   0.952210 0.397600 0.057910 -0.035479
N10   N     N_R   0.047790 0.602400 0.942090 -0.041816
N11   N     N_R   0.047790 0.397600 0.942090 -0.043687
N12   N     N_R   0.952210 0.602400 0.057910 -0.037728
N13   N     N_R   0.452210 0.897600 0.057910 -0.045369
N14   N     N_R   0.547790 0.102400 0.942090 -0.047133
N15   N     N_R   0.547790 0.897600 0.942090 -0.046154
N16   N     N_R   0.452210 0.102400 0.057910 -0.045598
N17   N     N_R   0.026300 0.529110 0.206760 -0.051569
N18   N     N_R   0.973700 0.470890 0.793240 -0.049006
N19   N     N_R   0.973700 0.529110 0.793240 -0.048560
N20   N     N_R   0.026300 0.470890 0.206760 -0.051590
N21   N     N_R   0.526300 0.029110 0.206760 -0.049935
N22   N     N_R   0.473700 0.970890 0.793240 -0.046244
N23   N     N_R   0.473700 0.029110 0.793240 -0.048566
N24   N     N_R   0.526300 0.970890 0.206760 -0.046098
N25   N     N_R   0.818530 0.472270 0.792960 -0.061333
N26   N     N_R   0.181470 0.527730 0.207040 -0.064348
N27   N     N_R   0.181470 0.472270 0.207040 -0.064961
N28   N     N_R   0.818530 0.527730 0.792960 -0.060862
N29   N     N_R   0.318530 0.972270 0.792960 -0.061464
N30   N     N_R   0.681470 0.027730 0.207040 -0.059579
N31   N     N_R   0.681470 0.972270 0.207040 -0.059434
N32   N     N_R   0.318530 0.027730 0.792960 -0.060508
Ni1   Ni    Ni4+2 0.934150 0.565840 0.869060 0.214362
Ni2   Ni    Ni4+2 0.065850 0.434160 0.130940 0.208215
Ni3   Ni    Ni4+2 0.065850 0.565840 0.130940 0.208685
Ni4   Ni    Ni4+2 0.934150 0.434160 0.869060 0.213075
Ni5   Ni    Ni4+2 0.434150 0.065840 0.869060 0.213928
Ni6   Ni    Ni4+2 0.565850 0.934160 0.130940 0.215260
Ni7   Ni    Ni4+2 0.565850 0.065840 0.130940 0.216830
Ni8   Ni    Ni4+2 0.434150 0.934160 0.869060 0.213513
N33   N     N_3   0.727528 0.403299 0.650243 -0.177767
H45   H     H_    0.794510 0.385599 0.686115 0.118883
H46   H     H_    0.689279 0.378178 0.667008 0.091211
N34   N     N_3   0.305300 0.595459 0.305037 -0.215658
H47   H     H_    0.256807 0.614051 0.316049 0.104896
H48   H     H_    0.317252 0.620432 0.257455 0.100458
N35   N     N_3   0.305485 0.402188 0.303217 -0.216790
H49   H     H_    0.257964 0.385065 0.316079 0.102514
H50   H     H_    0.313915 0.376684 0.252488 0.109627
N36   N     N_3   0.720847 0.598944 0.655802 -0.207697
H51   H     H_    0.786015 0.614478 0.680729 0.113286
H52   H     H_    0.692720 0.623757 0.687945 0.090706
N37   N     N_3   0.239101 0.903639 0.647179 -0.176736
H53   H     H_    0.303762 0.882891 0.699726 0.108411
H54   H     H_    0.186913 0.880030 0.641098 0.088704
N38   N     N_3   0.758148 0.096055 0.353498 -0.203043
H55   H     H_    0.692749 0.116071 0.300746 0.116491
H56   H     H_    0.809241 0.120444 0.358784 0.091374
N39   N     N_3   0.759748 0.903884 0.354889 -0.205679
H57   H     H_    0.694342 0.884931 0.302942 0.114906
H58   H     H_    0.810409 0.878199 0.359471 0.090196
N40   N     N_3   0.237921 0.096169 0.644993 -0.177383
H59   H     H_    0.301223 0.116841 0.698766 0.118631
H60   H     H_    0.183964 0.120490 0.635855 0.085004
N41   N     N_3   0.020520 0.781902 0.880338 -0.220008
H61   H     H_    0.992673 0.791833 0.797647 0.110120
H62   H     H_    0.007609 0.815164 0.914928 0.121093
N42   N     N_3   0.979338 0.223232 0.119408 -0.222190
H63   H     H_    0.996462 0.191736 0.085448 0.120637
H64   H     H_    0.007458 0.212578 0.201857 0.112005
N43   N     N_3   0.979515 0.756456 0.209001 -0.230003
H65   H     H_    0.959711 0.749463 0.262508 0.117778
H66   H     H_    0.027222 0.788732 0.241772 0.120142
N44   N     N_3   0.017944 0.245438 0.785555 -0.229582
H67   H     H_    0.972493 0.212173 0.749863 0.114546
H68   H     H_    0.038695 0.255462 0.734057 0.119670
N45   N     N_3   0.579520 0.239601 0.879062 -0.217294
H69   H     H_    0.549049 0.250842 0.796256 0.117736
H70   H     H_    0.566881 0.271420 0.916778 0.118509
N46   N     N_3   0.417852 0.749780 0.114813 -0.217346
H71   H     H_    0.426757 0.716474 0.076703 0.116832
H72   H     H_    0.447786 0.739048 0.197732 0.118520
N47   N     N_3   0.314213 0.157506 0.201797 -0.218701
H73   H     H_    0.276454 0.141866 0.230480 0.144011
H74   H     H_    0.360794 0.186794 0.258871 0.149479
N48   N     N_3   0.681037 0.841693 0.790321 -0.222968
H75   H     H_    0.632157 0.812213 0.736961 0.112186
H76   H     H_    0.716895 0.854221 0.756946 0.121278
C101  C     C_2   0.830424 0.401933 0.465573 1.007622
O1    O     O_2   0.758678 0.405726 0.462199 -0.668431
O2    O     O_R   0.881194 0.352374 0.495996 -0.769234
H77   H     H_    0.850905 0.322517 0.512114 0.316934
C102  C     C_2   0.839366 0.599577 0.279327 0.996795
O3    O     O_2   0.781426 0.594465 0.178573 -0.624756
O4    O     O_R   0.878974 0.650661 0.323780 -0.771685
H78   H     H_    0.852586 0.680256 0.264448 0.316317
C103  C     C_2   0.833597 0.405544 0.267906 0.987002
O5    O     O_2   0.852876 0.358051 0.300213 -0.618248
O6    O     O_R   0.779974 0.416985 0.153544 -0.782581
H79   H     H_    0.761432 0.382647 0.106583 0.320996
C104  C     C_2   0.817417 0.596253 0.461612 0.980441
O7    O     O_2   0.849361 0.642354 0.478955 -0.615074
O8    O     O_R   0.737850 0.586577 0.460139 -0.820659
H80   H     H_    0.710260 0.621448 0.468681 0.316906
C105  C     C_2   0.296099 0.922237 0.434553 0.986624
O9    O     O_2   0.234367 0.936932 0.445403 -0.657527
O10   O     O_R   0.306405 0.866792 0.419227 -0.771968
H81   H     H_    0.258162 0.843192 0.417407 0.317270
C106  C     C_2   0.568897 0.078469 0.517838 1.018648
O11   O     O_2   0.577542 0.120462 0.568342 -0.618464
O12   O     O_R   0.646839 0.057731 0.523052 -0.814447
H82   H     H_    0.703963 0.082184 0.566655 0.321348
C107  C     C_2   0.355199 0.921210 0.282696 1.018436
O13   O     O_2   0.377985 0.872739 0.300627 -0.626026
O14   O     O_R   0.290020 0.940302 0.173838 -0.802633
H83   H     H_    0.263639 0.909793 0.116914 0.320418
C108  C     C_2   0.369989 0.111338 0.471650 0.999899
O15   O     O_2   0.399588 0.152351 0.455287 -0.642157
O16   O     O_R   0.290922 0.115511 0.474031 -0.812974
H84   H     H_    0.266334 0.154554 0.463878 0.313950

loop_
_geom_bond_atom_site_label_1
_geom_bond_atom_site_label_2
_ccdc_geom_bond_type
N28   Ni1   S    
C16   C28   A    
N36   H52   S    
N39   H57   S    
C10   C85   S    
C3    N3    A    
C2    N2    A    
C66   N34   S    
C63   H23   S    
C20   H44   S    
C1    N1    A    
O4    H78   S    
C59   C82   A    
C58   H18   S    
C102  O4    S    
C70   C88   A    
N46   H71   S    
C9    C91   S    
C94   C96   S    
C24   C32   A    
C40   C104  S    
N33   H45   S    
C89   H29   S    
O10   H81   S    
N6    Ni6   S    
C5    H5    S    
C16   C31   A    
C71   N39   S    
N39   H58   S    
C51   N11   A    
C105  O9    D    
C7    C79   A    
C69   N29   A    
N34   H48   S    
C92   H32   S    
C61   N21   A    
C107  O13   D    
C93   H33   S    
C19   C36   A    
C58   C82   A    
C32   C74   S    
C106  O11   D    
N12   Ni3   S    
C67   N35   S    
N33   H46   S    
C91   H31   S    
N26   N27   A    
C52   H12   S    
C3    H3    S    
O6    H79   S    
C4    N4    A    
C96   C99   S    
C4    H4    S    
C50   H10   S    
C5    N5    A    
N2    Ni2   S    
C11   C99   S    
C103  O5    D    
N46   H72   S    
C10   C98   S    
N3    N10   A    
C89   C97   S    
N30   N31   A    
C38   C45   A    
C34   C80   S    
C46   C82   S    
N1    N12   A    
N44   H68   S    
C26   C34   A    
N2    N11   A    
C20   C24   A    
N29   Ni8   S    
C71   N31   A    
N38   H55   S    
N40   H59   S    
C22   N42   S    
N19   Ni1   S    
C9    C97   S    
O2    H77   S    
C51   C74   A    
N27   Ni2   S    
C25   N45   S    
C44   C48   A    
C47   C83   S    
N15   Ni8   S    
N17   Ni3   S    
C62   H22   S    
C3    C75   A    
C101  O1    D    
C93   C99   S    
N25   Ni4   S    
N18   Ni4   S    
C69   C87   A    
C39   C45   A    
C55   N15   A    
N36   H51   S    
C66   N26   A    
C10   C92   S    
N4    Ni4   S    
N45   H70   S    
C18   C22   A    
C104  O7    D    
C69   N37   S    
C68   C85   A    
C41   C43   A    
C13   C25   A    
C16   H40   S    
C42   C44   A    
C8    H8    S    
C18   C33   A    
C53   H13   S    
C92   C97   S    
C15   H39   S    
C6    H6    S    
N32   Ni5   S    
C65   N33   S    
C105  O10   S    
C4    C76   A    
N6    N15   A    
C59   H19   S    
N35   H49   S    
N21   Ni7   S    
N7    N14   A    
C14   H38   S    
C13   C30   A    
C15   C32   A    
C53   C80   A    
N22   Ni8   S    
C10   C89   S    
C97   H25   S    
C52   C73   A    
C61   C83   A    
C63   C84   A    
C103  O6    S    
C44   C108  S    
C108  O16   S    
C55   C78   A    
C95   C100  S    
C33   C79   S    
C99   H27   S    
C42   C106  S    
C67   N27   A    
C64   H24   S    
C21   C29   A    
N5    Ni5   S    
C17   C21   A    
C56   C77   A    
C48   C84   S    
C65   N25   A    
N34   H47   S    
C107  O14   S    
C23   C31   A    
C9    C90   S    
C41   C48   A    
C40   C46   A    
N43   H65   S    
N35   H50   S    
C64   C83   A    
N45   H69   S    
C9    C86   S    
C54   N14   A    
C30   C76   S    
C60   C81   A    
C15   C27   A    
N47   H73   S    
C94   C100  S    
C11   C88   S    
C23   N43   S    
C70   N38   S    
C95   H35   S    
N41   H61   S    
C56   H16   S    
C49   C76   A    
N16   Ni7   S    
C14   C26   A    
N37   H54   S    
N48   H76   S    
C72   C87   A    
C70   N30   A    
C29   C75   S    
N31   Ni6   S    
C7    N7    A    
C11   C94   S    
N38   H56   S    
N47   H74   S    
C31   C73   S    
N42   H64   S    
C21   N41   S    
N21   N24   A    
N24   Ni6   S    
C104  O8    S    
C26   N46   S    
N22   N23   A    
C64   N24   A    
N25   N28   A    
C7    H7    S    
C12   C93   S    
N8    Ni8   S    
N4    N9    A    
C14   C29   A    
C5    C77   A    
O14   H83   S    
C58   N18   A    
C1    H1    S    
C43   C107  S    
N17   N20   A    
N20   Ni2   S    
N11   Ni4   S    
C19   C23   A    
C106  O12   S    
N18   N19   A    
N29   N32   A    
C11   C95   S    
C62   C84   A    
N9    Ni2   S    
N41   H62   S    
C67   C86   A    
C51   H11   S    
C25   C33   A    
C22   C30   A    
C12   C87   S    
C62   N22   A    
N13   Ni6   S    
C100  H28   S    
N7    Ni7   S    
C20   C35   A    
C45   C81   S    
C61   H21   S    
C41   C105  S    
C96   H36   S    
C2    C74   A    
N30   Ni7   S    
C66   C86   A    
C72   N40   S    
O8    H80   S    
C37   C101  S    
N1    Ni1   S    
C18   H42   S    
C52   N12   A    
N26   Ni3   S    
C53   N13   A    
C6    N6    A    
C94   H34   S    
C17   H41   S    
C56   N16   A    
C27   C35   A    
O16   H84   S    
C90   C92   S    
C49   H9    S    
C1    C73   A    
N48   H75   S    
C37   C39   A    
C65   C85   A    
C36   C78   S    
C50   C75   A    
C38   C102  S    
C38   C40   A    
C68   N28   A    
C27   N47   S    
N44   H67   S    
C108  O15   D    
C55   H15   S    
C8    N8    A    
C50   N10   A    
C54   H14   S    
C63   N23   A    
C60   N20   A    
N23   Ni5   S    
C35   C77   S    
N8    N13   A    
C28   N48   S    
C57   C81   A    
C42   C47   A    
C72   N32   A    
C91   C98   S    
N37   H53   S    
N5    N16   A    
C19   H43   S    
C57   H17   S    
C12   C100  S    
N43   H66   S    
C6    C78   A    
C54   C79   A    
C60   H20   S    
C71   C88   A    
C90   H30   S    
N3    Ni3   S    
C98   H26   S    
C57   N17   A    
N42   H63   S    
C28   C36   A    
C93   C95   S    
C89   C91   S    
C17   C34   A    
N10   Ni1   S    
C101  O2    S    
C8    C80   A    
C59   N19   A    
C2    H2    S    
C12   C96   S    
C68   N36   S    
C49   N9    A    
C37   C46   A    
C102  O3    D    
N40   H60   S    
C43   C47   A    
N14   Ni5   S    
C90   C98   S    
O12   H82   S    
C13   H37   S    
C39   C103  S    
C24   N44   S    
