data_mof_unit_35836.cif
_audit_creation_date              2013-03-05T16:51:21-0500
_audit_creation_method            fapswitch 2.2
_symmetry_space_group_name_H-M    P1
_symmetry_Int_Tables_number       1
_space_group_crystal_system       triclinic
_cell_length_a                    15.785261
_cell_length_b                    15.102917
_cell_length_c                    15.780359
_cell_angle_alpha                 90.167097
_cell_angle_beta                  90.494008
_cell_angle_gamma                 90.255239
_cell_volume                      3761.8990193

loop_
_atom_site_label
_atom_site_type_symbol
_atom_site_description
_atom_site_fract_x
_atom_site_fract_y
_atom_site_fract_z
_atom_type_partial_charge
O1    O     O_R   0.378020 0.573650 0.500000 -0.626442
O2    O     O_R   0.378020 0.426350 0.500000 -0.603634
C1    C     C_R   0.338774 0.499754 0.500330 0.882238
O3    O     O_R   0.500000 0.573700 0.377120 -0.622433
O4    O     O_R   0.500000 0.426300 0.377120 -0.603570
C2    C     C_R   0.497192 0.499916 0.338201 0.893162
Zn1   Zn    Zn3+2 0.500000 0.598370 0.499970 1.008529
Zn2   Zn    Zn3+2 0.500000 0.401630 0.499970 1.040595
O5    O     O_R   0.621980 0.573680 0.499960 -0.582486
O6    O     O_R   0.621980 0.426320 0.499960 -0.584386
O7    O     O_R   0.500000 0.573630 0.622840 -0.622687
O8    O     O_R   0.500000 0.426370 0.622840 -0.604054
C3    C     C_R   0.661258 0.500218 0.500622 0.898194
C4    C     C_R   0.498871 0.500089 0.661849 0.930155
C5    C     C_3   0.440572 0.598759 0.048833 -0.209331
C6    C     C_3   0.441330 0.422773 0.049292 -0.216137
C7    C     C_3   0.433354 0.413853 0.947390 -0.067012
C8    C     C_3   0.436109 0.598986 0.946040 -0.029530
H1    H     H_    0.491955 0.378264 0.060182 0.141438
H2    H     H_    0.489071 0.646781 0.063260 0.153984
C9    C     C_1   0.492549 0.500571 0.749849 -0.147322
C10   C     C_3   0.487248 0.510504 0.083361 0.060528
C11   C     C_3   0.484929 0.505513 0.916185 -0.040934
C12   C     C_3   0.585784 0.500114 0.950800 0.392554
C13   C     C_3   0.587470 0.512553 0.056216 -0.177712
C14   C     C_1   0.487257 0.502775 0.824958 0.005597
C15   C     C_1   0.486552 0.506487 0.175185 -0.041902
C16   C     C_1   0.490175 0.500856 0.250170 -0.208812
C17   C     C_R   0.956284 0.582501 0.537951 0.226938
C18   C     C_R   0.954557 0.419725 0.540760 0.229242
C19   C     C_R   0.912228 0.501379 0.539053 -0.117520
C20   C     C_R   0.042971 0.419031 0.534737 -0.121660
C21   C     C_R   0.044881 0.581736 0.532739 -0.120242
C22   C     C_R   0.086980 0.499849 0.528420 -0.035637
C23   C     C_1   0.823488 0.501391 0.525413 0.136830
C24   C     C_1   0.176134 0.498823 0.518110 -0.028799
C25   C     C_1   0.250607 0.499047 0.508937 -0.183939
C26   C     C_1   0.749290 0.500864 0.512668 -0.075186
C27   C     C_R   0.452277 0.952647 0.441444 0.210776
C28   C     C_R   0.450613 0.046856 0.442925 0.221304
C29   C     C_R   0.507342 0.905128 0.495747 -0.272332
C30   C     C_R   0.504575 0.095106 0.498468 -0.292392
C31   C     C_R   0.564833 0.953371 0.548098 0.195141
C32   C     C_R   0.564563 0.047997 0.548081 0.178809
C33   C     C_1   0.503110 0.806989 0.498470 0.275919
C34   C     C_1   0.502408 0.193088 0.499349 0.312034
N1    N     N_1   0.500020 0.270550 0.499980 -0.075707
N2    N     N_1   0.500020 0.729450 0.499980 -0.086145
C35   C     C_R   0.342954 0.601613 0.908542 0.119911
C36   C     C_R   0.272303 0.566974 0.952302 -0.126695
C37   C     C_R   0.189038 0.577341 0.923205 -0.121282
C38   C     C_R   0.173237 0.619522 0.846609 -0.111821
C39   C     C_R   0.240760 0.650046 0.798763 -0.158974
C40   C     C_R   0.323924 0.641025 0.828574 -0.177370
H3    H     H_    0.281351 0.530592 0.008703 0.148365
H4    H     H_    0.136954 0.550748 0.959479 0.145043
H5    H     H_    0.108930 0.626578 0.823338 0.141818
H6    H     H_    0.228913 0.680472 0.737844 0.143182
H7    H     H_    0.371870 0.663868 0.786257 0.134827
C41   C     C_R   0.338696 0.396352 0.916074 0.113238
C42   C     C_R   0.291328 0.325752 0.952241 -0.139750
C43   C     C_R   0.210523 0.301781 0.923381 -0.134862
C44   C     C_R   0.176531 0.341238 0.851572 -0.122073
C45   C     C_R   0.225084 0.401569 0.806778 -0.124360
C46   C     C_R   0.305310 0.426622 0.836885 -0.137822
H8    H     H_    0.319035 0.282268 0.998035 0.145804
H9    H     H_    0.176037 0.249180 0.954518 0.144486
H10   H     H_    0.114453 0.321809 0.828406 0.139578
H11   H     H_    0.200915 0.428890 0.748021 0.136915
H12   H     H_    0.338795 0.470737 0.796459 0.128278
N3    N     N_R   0.623235 0.906814 0.602395 0.229459
O9    O     O_R   0.638828 0.935360 0.678856 -0.378974
O10   O     O_R   0.663505 0.837627 0.574805 -0.322648
N4    N     N_R   0.630401 0.095646 0.592725 0.252599
O11   O     O_R   0.709311 0.073769 0.582484 -0.256688
O12   O     O_R   0.612836 0.164534 0.638835 -0.382923
C47   C     C_R   0.373307 0.649531 0.105429 0.035876
C48   C     C_R   0.303659 0.699218 0.073386 -0.165620
C49   C     C_R   0.241901 0.734348 0.126693 -0.124378
C50   C     C_R   0.252179 0.729617 0.214068 -0.099109
C51   C     C_R   0.327950 0.697885 0.247164 -0.057971
C52   C     C_R   0.389925 0.665242 0.192734 -0.110309
H13   H     H_    0.297656 0.717047 0.007797 0.165141
H14   H     H_    0.187431 0.767858 0.099987 0.146997
H15   H     H_    0.204571 0.756744 0.255542 0.140573
H16   H     H_    0.340357 0.702115 0.314615 0.168311
H17   H     H_    0.452527 0.657923 0.219034 0.169944
C53   C     C_R   0.371978 0.384487 0.109803 0.128720
C54   C     C_R   0.306625 0.436860 0.144192 -0.110026
C55   C     C_R   0.246991 0.401845 0.199926 -0.167596
C56   C     C_R   0.252494 0.314097 0.225578 -0.094893
C57   C     C_R   0.319405 0.262329 0.197801 -0.051425
C58   C     C_R   0.379699 0.297548 0.142855 -0.224129
H18   H     H_    0.303425 0.506252 0.134085 0.143532
H19   H     H_    0.197478 0.443671 0.224805 0.134038
H20   H     H_    0.206298 0.286956 0.268713 0.129412
H21   H     H_    0.324913 0.194760 0.219276 0.208219
H22   H     H_    0.431379 0.255244 0.126149 0.126486
C59   C     C_R   0.472622 0.323644 0.910008 0.129496
C60   C     C_R   0.464004 0.304176 0.821647 -0.073311
C61   C     C_R   0.487426 0.223287 0.786291 -0.052520
C62   C     C_R   0.520923 0.157110 0.836892 -0.067367
C63   C     C_R   0.529789 0.171478 0.923312 -0.105954
C64   C     C_R   0.505264 0.251924 0.959561 -0.084620
H23   H     H_    0.434060 0.348698 0.778262 0.121283
H24   H     H_    0.477395 0.211491 0.719279 0.158186
H25   H     H_    0.539091 0.094368 0.809303 0.156139
H26   H     H_    0.555774 0.119681 0.962966 0.135098
H27   H     H_    0.517778 0.254712 0.025981 0.120149
C65   C     C_R   0.477327 0.691261 0.915476 0.043161
C66   C     C_R   0.514391 0.704759 0.834703 -0.101492
C67   C     C_R   0.548888 0.785679 0.809522 -0.055684
C68   C     C_R   0.544554 0.859098 0.862086 -0.106177
C69   C     C_R   0.503404 0.852009 0.938901 -0.168384
C70   C     C_R   0.469034 0.770974 0.964233 -0.182864
H28   H     H_    0.514042 0.656170 0.786226 0.171142
H29   H     H_    0.577282 0.791412 0.747650 0.202988
H30   H     H_    0.570915 0.921940 0.842401 0.170878
H31   H     H_    0.497668 0.909739 0.979273 0.149012
H32   H     H_    0.438359 0.773742 0.024192 0.162884
C71   C     C_R   0.628299 0.602384 0.095053 0.085625
C72   C     C_R   0.652944 0.605271 0.182512 -0.164885
C73   C     C_R   0.684956 0.681682 0.221363 -0.110752
C74   C     C_R   0.693766 0.759197 0.175300 -0.083567
C75   C     C_R   0.670424 0.760308 0.090339 -0.129751
C76   C     C_R   0.638268 0.684040 0.051112 -0.075787
H33   H     H_    0.648808 0.547581 0.222471 0.136384
H34   H     H_    0.702935 0.680510 0.287720 0.161028
H35   H     H_    0.718347 0.818507 0.205514 0.154511
H36   H     H_    0.676295 0.821034 0.054510 0.152644
H37   H     H_    0.619379 0.692853 0.986832 0.184018
C77   C     C_R   0.646433 0.439918 0.100729 0.177327
C78   C     C_R   0.618756 0.369830 0.154808 -0.175638
C79   C     C_R   0.675483 0.309751 0.191018 -0.112313
C80   C     C_R   0.761872 0.317646 0.177059 -0.082379
C81   C     C_R   0.792136 0.386691 0.127866 -0.138596
C82   C     C_R   0.736002 0.446957 0.091221 -0.022685
H38   H     H_    0.554307 0.358733 0.172773 0.140215
H39   H     H_    0.652068 0.257091 0.231060 0.152573
H40   H     H_    0.805504 0.271168 0.205655 0.148892
H41   H     H_    0.859661 0.394405 0.118752 0.139348
H42   H     H_    0.764404 0.500908 0.057789 0.189657
N5    N     N_R   0.643175 0.565990 0.910259 0.183561
O13   O     O_R   0.638182 0.580622 0.829347 -0.356390
O14   O     O_R   0.719373 0.574922 0.940933 -0.398997
N6    N     N_R   0.621601 0.414000 0.919398 0.219364
O15   O     O_R   0.634831 0.404178 0.838530 -0.291208
O16   O     O_R   0.649609 0.350578 0.967130 -0.401788
C83   C     C_R   0.093667 0.666078 0.533870 0.200526
C84   C     C_R   0.140652 0.691994 0.462859 -0.130591
C85   C     C_R   0.189036 0.769627 0.465387 -0.108443
C86   C     C_R   0.190277 0.822388 0.538299 -0.075037
C87   C     C_R   0.142980 0.797485 0.608894 -0.154042
C88   C     C_R   0.094834 0.719527 0.606850 -0.102331
H43   H     H_    0.140313 0.651697 0.405952 0.124390
H44   H     H_    0.225696 0.788567 0.410835 0.175920
H45   H     H_    0.227910 0.882469 0.540114 0.150515
H46   H     H_    0.144087 0.838248 0.665420 0.144098
H47   H     H_    0.059275 0.700276 0.662284 0.139274
C89   C     C_R   0.089480 0.334079 0.536466 0.195096
C90   C     C_R   0.120595 0.297430 0.461117 -0.120151
C91   C     C_R   0.163625 0.216765 0.462851 -0.062484
C92   C     C_R   0.177001 0.173093 0.539834 -0.058308
C93   C     C_R   0.146586 0.209696 0.615148 -0.145768
C94   C     C_R   0.102514 0.289804 0.613501 -0.108234
H48   H     H_    0.110767 0.330935 0.401240 0.121742
H49   H     H_    0.186293 0.188020 0.404453 0.175976
H50   H     H_    0.210691 0.110820 0.541073 0.149260
H51   H     H_    0.156856 0.175860 0.674728 0.141002
H52   H     H_    0.078680 0.317481 0.671965 0.128192
N7    N     N_R   0.910773 0.664982 0.538108 0.213238
O17   O     O_R   0.928523 0.726405 0.483308 -0.358044
O18   O     O_R   0.849883 0.678044 0.591732 -0.317832
N8    N     N_R   0.907410 0.337989 0.545391 0.216266
O19   O     O_R   0.847563 0.328660 0.600904 -0.313139
O20   O     O_R   0.922256 0.273679 0.492588 -0.362230
N9    N     N_R   0.399024 0.093318 0.382315 0.234112
O21   O     O_R   0.352258 0.159563 0.405716 -0.455204
O22   O     O_R   0.402784 0.072709 0.302325 -0.370665
N10   N     N_R   0.398107 0.905111 0.383514 0.225082
O23   O     O_R   0.430391 0.847177 0.332079 -0.410993
O24   O     O_R   0.318471 0.925748 0.375976 -0.398728

loop_
_geom_bond_atom_site_label_1
_geom_bond_atom_site_label_2
_geom_bond_distance
_ccdc_geom_bond_type
C5    C8    1.623048 S    
C9    C14   1.189281 T    
C61   C62   1.384986 A    
C66   C67   1.395948 A    
N7    O17   1.301326 A    
C69   C70   1.397385 A    
C55   C56   1.389686 A    
C61   H24   1.082055 S    
C73   C74   1.386911 A    
C27   C29   1.414642 A    
C5    C47   1.591420 S    
C39   C40   1.398038 A    
C38   C39   1.389316 A    
Zn1   O7    1.975675 S    
N7    O18   1.301365 A    
C60   H23   1.069675 S    
C43   C44   1.386868 A    
N4    O12   1.300159 A    
C43   H9    1.082545 S    
O4    C2    1.272493 A    
C47   C52   1.419331 A    
C4    C9    1.393120 S    
C24   C25   1.185684 T    
C68   C69   1.384361 A    
O2    C1    1.272386 A    
C67   H29   1.081378 S    
C50   C51   1.388817 A    
O7    C4    1.271567 A    
C42   H8    1.069908 S    
C12   N5    1.491825 S    
C35   C40   1.427028 A    
C17   C21   1.401748 A    
C72   H33   1.079084 S    
N5    O14   1.298989 A    
C37   H4    1.082334 S    
C30   C34   1.480378 S    
C11   C14   1.440853 S    
C87   H46   1.082315 S    
O5    C3    1.273412 A    
N8    O19   1.301359 A    
C57   C58   1.397486 A    
C62   C63   1.386061 A    
C56   H20   1.081949 S    
C65   C66   1.421911 A    
C48   H13   1.073728 S    
C5    C10   1.619399 S    
C2    C16   1.392736 S    
C92   C93   1.398926 A    
C6    C7    1.617076 S    
N9    O22   1.301105 A    
C10   C13   1.642741 S    
C31   N3    1.440170 S    
C11   C12   1.681075 S    
C66   H28   1.058473 S    
C90   H48   1.083461 S    
C28   C30   1.415160 A    
C59   C64   1.432894 A    
C85   C86   1.397606 A    
C78   H38   1.071062 S    
C29   C31   1.419365 A    
C93   H51   1.082729 S    
C5    H2    1.074733 S    
C30   C32   1.418562 A    
O3    Zn1   1.973030 S    
C75   H36   1.082844 S    
C67   C68   1.385119 A    
N10   O24   1.301026 A    
C57   H21   1.079862 S    
C90   C91   1.397699 A    
N6    O16   1.297123 A    
C40   H7    1.070284 S    
C80   H40   1.082382 S    
C82   H42   1.070783 S    
N4    O11   1.301399 A    
N6    O15   1.303033 A    
C37   C38   1.389153 A    
C8    C65   1.612260 S    
C80   C81   1.387401 A    
C23   C26   1.186645 T    
C12   C13   1.673507 S    
O3    C2    1.271239 A    
C79   H39   1.082928 S    
N3    O10   1.301365 A    
C53   C58   1.419609 A    
C48   C49   1.398446 A    
C77   C78   1.430807 A    
C77   C82   1.426627 A    
C47   C48   1.423899 A    
C51   C52   1.397915 A    
C91   H49   1.081894 S    
C41   C42   1.423218 A    
O1    C1    1.274092 A    
C20   C22   1.405960 A    
C46   H12   1.065570 S    
C83   C88   1.404399 A    
C50   H15   1.081951 S    
C78   C79   1.397546 A    
C8    C11   1.679536 S    
C18   C19   1.405426 A    
Zn2   O8    1.973535 S    
C36   C37   1.398113 A    
C3    C26   1.400920 S    
C62   H25   1.082536 S    
C7    C11   1.680039 S    
C85   H44   1.079961 S    
C17   N7    1.440787 S    
C32   N4    1.439462 S    
C7    C59   1.611687 S    
C71   C72   1.431185 A    
C63   H26   1.083088 S    
N9    O21   1.300555 A    
O8    C4    1.270908 A    
C41   C46   1.429138 A    
C70   H32   1.067376 S    
C84   H43   1.083311 S    
C31   C32   1.429162 A    
C75   C76   1.397435 A    
C19   C23   1.415401 S    
C49   C50   1.389010 A    
C54   C55   1.397096 A    
C28   N9    1.437340 S    
C56   C57   1.390089 A    
N10   O23   1.300397 A    
C91   C92   1.398886 A    
C33   N2    1.172177 T    
C94   H52   1.082857 S    
Zn1   O5    1.962892 S    
C44   H10   1.081959 S    
C93   C94   1.398491 A    
C6    C10   1.597060 S    
C49   H14   1.082540 S    
O1    Zn1   1.959718 S    
O2    Zn2   1.962983 S    
C51   H16   1.082262 S    
C44   C45   1.387146 A    
O6    C3    1.274287 A    
C55   H19   1.082717 S    
C54   H18   1.061896 S    
O4    Zn2   1.975164 S    
C39   H6    1.081893 S    
C27   N10   1.435097 S    
C79   C80   1.387895 A    
C45   H11   1.083076 S    
C36   H3    1.056326 S    
C59   C60   1.429406 A    
C10   C15   1.450601 S    
Zn1   N2    1.979690 S    
C89   C94   1.403184 A    
N5    O13   1.298212 A    
C87   C88   1.398673 A    
Zn2   N1    1.979694 S    
C92   H50   1.082646 S    
C71   C76   1.425348 A    
C17   C19   1.406322 A    
C21   C83   1.485544 S    
C83   C84   1.404740 A    
C45   C46   1.398898 A    
C18   C20   1.399766 A    
C73   H34   1.082769 S    
C64   H27   1.065586 S    
C69   H31   1.082922 S    
C76   H37   1.063715 S    
C6    H1    1.059776 S    
C65   C70   1.433967 A    
C60   C61   1.394288 A    
C81   H41   1.082608 S    
C21   C22   1.408329 A    
C74   H35   1.082353 S    
C86   H45   1.082519 S    
C22   C24   1.418240 S    
C42   C43   1.396542 A    
C89   C90   1.403581 A    
N8    O20   1.301246 A    
C34   N1    1.170695 T    
C38   H5    1.082311 S    
C7    C41   1.590493 S    
C68   H30   1.082069 S    
C27   C28   1.423316 A    
C88   H47   1.083193 S    
N3    O9    1.301232 A    
C53   C54   1.413788 A    
C1    C25   1.399512 S    
Zn2   O6    1.959631 S    
C35   C36   1.415801 A    
C63   C64   1.399002 A    
C6    C53   1.568491 S    
C29   C33   1.484166 S    
C84   C85   1.396717 A    
C81   C82   1.396220 A    
C12   N6    1.504766 S    
C86   C87   1.397927 A    
C20   C89   1.481251 S    
C72   C73   1.395818 A    
C13   C77   1.601685 S    
C13   C71   1.616219 S    
C58   H22   1.072660 S    
C18   N8    1.440962 S    
C52   H17   1.074779 S    
C8    C35   1.581033 S    
C74   C75   1.387542 A    
C15   C16   1.187488 T    
