data_mof_unit_14508.cif
_audit_creation_date              2012-12-10T18:16:20-0500
_audit_creation_method            fapswitch 2.2
_symmetry_space_group_name_H-M    P1
_symmetry_Int_Tables_number       1
_space_group_crystal_system       triclinic
_cell_length_a                    12.605898
_cell_length_b                    13.215269
_cell_length_c                    27.438639
_cell_angle_alpha                 92.001152
_cell_angle_beta                  102.220517
_cell_angle_gamma                 83.914592
_cell_volume                      4441.89321483

loop_
_atom_site_label
_atom_site_type_symbol
_atom_type_description
_atom_site_fract_x
_atom_site_fract_y
_atom_site_fract_z
_atom_type_partial_charge
C1    C     C_R   0.440614 0.690918 0.489567 0.908924
C2    C     C_R   0.439538 0.622716 0.713756 -0.047738
C3    C     C_R   0.501727 0.549829 0.747675 0.312906
C4    C     C_R   0.480892 0.576834 0.898504 -0.044306
C5    C     C_R   0.570700 0.609816 0.882713 -0.022404
C6    C     C_R   0.650641 0.654870 0.917026 -0.132999
C7    C     C_R   0.400170 0.531965 0.863521 -0.018404
C8    C     C_R   0.496437 0.520668 0.646071 -0.048363
C9    C     C_R   0.491742 0.518281 0.353774 -0.079263
C10   C     C_R   0.549724 0.637467 0.035356 0.044377
C11   C     C_R   0.372042 0.565495 0.014947 0.045251
C12   C     C_R   0.499653 0.503763 0.593734 0.946211
C13   C     C_R   0.458569 0.603215 0.050432 0.074719
C14   C     C_R   0.633321 0.674449 0.072468 -0.209447
C15   C     C_R   0.629064 0.674785 0.122564 -0.132833
C16   C     C_R   0.541483 0.638509 0.137733 -0.024570
C17   C     C_R   0.454943 0.604577 0.101785 -0.059792
C18   C     C_R   0.365956 0.569663 0.117440 -0.048723
C19   C     C_R   0.368611 0.562970 0.168481 0.581015
C20   C     C_R   0.540393 0.631408 0.188408 0.490865
C21   C     C_R   0.452389 0.642811 0.288297 -0.136913
C22   C     C_R   0.464695 0.619170 0.338099 -0.252946
C23   C     C_R   0.559343 0.309195 0.502135 0.912864
C24   C     C_R   0.508204 0.439034 0.319367 -0.147383
C25   C     C_R   0.496511 0.464055 0.268948 0.431082
C26   C     C_R   0.467235 0.565721 0.253722 0.216162
C27   C     C_R   0.555516 0.631631 0.984186 0.044851
C28   C     C_R   0.472086 0.588159 0.949173 0.073137
C29   C     C_R   0.380416 0.554996 0.964245 0.044129
C30   C     C_R   0.643276 0.665956 0.966688 -0.206427
C31   C     C_R   0.311304 0.498477 0.878761 -0.131223
C32   C     C_R   0.280341 0.538185 0.031763 -0.206337
C33   C     C_R   0.277997 0.539489 0.082059 -0.133907
C34   C     C_R   0.499097 0.500308 0.406196 0.937524
C35   C     C_R   0.301537 0.509404 0.928066 -0.206249
C36   C     C_R   0.731987 0.063212 0.490657 -0.230345
C37   C     C_R   0.593178 0.202871 0.491827 -0.200084
C38   C     C_R   0.295344 0.840940 0.471222 -0.062736
C39   C     C_R   0.268916 0.947449 0.468909 -0.006806
C40   C     C_R   0.351924 0.010077 0.471701 -0.204702
C41   C     C_R   0.458312 0.970862 0.468154 0.144751
C42   C     C_R   0.485915 0.864535 0.468281 0.017162
C43   C     C_R   0.540262 0.036366 0.468131 0.017980
C44   C     C_R   0.650755 0.996929 0.475674 -0.012934
C45   C     C_R   0.577620 0.598019 0.832496 0.576825
C46   C     C_R   0.677046 0.892617 0.469879 0.486980
C47   C     C_R   0.593144 0.828200 0.462296 -0.259391
C48   C     C_R   0.517040 0.141892 0.463324 -0.117557
C49   C     C_R   0.702929 0.162185 0.506412 0.466238
C50   C     C_R   0.406296 0.799208 0.475010 -0.219703
C51   C     C_R   0.080653 0.370531 0.417827 -0.239947
C52   C     C_R   0.813321 0.599347 0.571395 0.106118
C53   C     C_R   0.924153 0.594800 0.592333 -0.339992
C54   C     C_R   0.999470 0.555234 0.565282 -0.190281
C55   C     C_R   0.965148 0.514120 0.517422 0.013895
C56   C     C_R   0.410164 0.521763 0.813730 0.542582
C57   C     C_R   0.851754 0.507483 0.499647 0.184776
C58   C     C_R   0.040853 0.471294 0.489077 -0.035108
C59   C     C_R   0.004663 0.411379 0.445911 0.139027
C60   C     C_R   0.893641 0.394749 0.431917 -0.092418
C61   C     C_R   0.819741 0.442771 0.458792 -0.298436
C62   C     C_R   0.152071 0.487798 0.501767 -0.030794
C63   C     C_R   0.189295 0.387506 0.433082 -0.019245
C64   C     C_R   0.562151 0.466118 0.730952 -0.126662
C65   C     C_R   0.559844 0.451778 0.680514 -0.260003
C66   C     C_R   0.437086 0.608156 0.662249 -0.117593
H1    H     H_    0.609275 0.410742 0.757268 0.147326
H2    H     H_    0.248658 0.463005 0.852580 0.191489
H3    H     H_    0.208444 0.514992 0.007131 0.143657
H4    H     H_    0.207268 0.515044 0.093131 0.189847
H5    H     H_    0.231758 0.479033 0.936543 0.144900
H6    H     H_    0.816788 0.036658 0.494824 0.175320
H7    H     H_    0.331235 0.091150 0.475355 0.134510
H8    H     H_    0.614400 0.750412 0.451889 0.191696
H9    H     H_    0.247147 0.358066 0.410919 0.141074
H10   H     H_    0.057482 0.327998 0.383575 0.204182
H11   H     H_    0.184358 0.537959 0.531731 0.182371
H12   H     H_    0.719782 0.681940 0.905647 0.189829
H13   H     H_    0.084065 0.553793 0.583808 0.170804
H14   H     H_    0.952830 0.624039 0.629679 0.161395
H15   H     H_    0.740671 0.417093 0.450962 0.231778
H16   H     H_    0.452260 0.679763 0.364620 0.148350
H17   H     H_    0.431131 0.720984 0.276449 0.176066
H18   H     H_    0.696331 0.701782 0.149540 0.194632
H19   H     H_    0.705125 0.701819 0.064530 0.145061
H20   H     H_    0.708309 0.702210 0.990223 0.143930
H21   H     H_    0.606883 0.386111 0.668170 0.157259
N1    N     N_R   0.497190 0.555793 0.799274 -0.335522
N2    N     N_R   0.456735 0.590454 0.202572 -0.337150
N3    N     N_R   0.222180 0.444690 0.474320 -0.113432
N4    N     N_R   0.776980 0.554780 0.525420 -0.138416
O1    O     O_R   0.366730 0.627160 0.487740 -0.607887
O2    O     O_2   0.623921 0.661747 0.223309 -0.563701
O3    O     O_2   0.333271 0.478960 0.779817 -0.564670
O4    O     O_2   0.285254 0.527070 0.184066 -0.540352
O5    O     O_R   0.544830 0.662520 0.504140 -0.567408
O6    O     O_R   0.410970 0.482310 0.563040 -0.574142
O7    O     O_R   0.589070 0.517670 0.579450 -0.612020
O8    O     O_R   0.455170 0.337480 0.495860 -0.657060
O9    O     O_R   0.633270 0.372840 0.512260 -0.590772
O10   O     O_R   0.410930 0.482330 0.420550 -0.639937
O11   O     O_R   0.589030 0.517690 0.436960 -0.647718
O12   O     O_2   0.662897 0.629643 0.816744 -0.554462
Zn1   Zn    Zn3+2 0.381080 0.476390 0.489050 0.969956
Zn2   Zn    Zn3+2 0.618920 0.523610 0.510950 0.981647
C67   C     C_2   0.378852 0.688196 0.626629 0.370065
H22   H     H_    0.382700 0.767932 0.636975 0.072535
O13   O     O_2   0.322944 0.666463 0.586476 -0.548417
C68   C     C_2   0.538294 0.331099 0.334483 0.346339
H23   H     H_    0.526914 0.270557 0.306704 0.152799
O14   O     O_2   0.579249 0.308301 0.377561 -0.647201
O15   O     O_3   0.510396 0.389246 0.233650 -0.644002
C69   C     C_3   0.620406 0.378664 0.228594 0.033225
H24   H     H_    0.668796 0.323461 0.256489 0.154064
H25   H     H_    0.658595 0.451806 0.234125 0.166313
C70   C     C_3   0.625268 0.338304 0.176173 -0.301487
H26   H     H_    0.593416 0.262533 0.170776 0.239210
H27   H     H_    0.572981 0.391149 0.148211 0.227055
C71   C     C_3   0.741632 0.328605 0.167597 -0.912311
H28   H     H_    0.773677 0.404269 0.171303 0.271936
H29   H     H_    0.742326 0.298244 0.129408 0.267666
H30   H     H_    0.795481 0.275693 0.194968 0.275188
O16   O     O_3   0.774818 0.212204 0.542186 -0.639876
C72   C     C_3   0.870135 0.229832 0.525744 0.097506
H31   H     H_    0.879098 0.311844 0.531928 0.192941
H32   H     H_    0.867073 0.212945 0.485370 0.158692
C73   C     C_3   0.970918 0.171466 0.557620 -0.363385
H33   H     H_    0.964329 0.174751 0.597421 0.251821
H34   H     H_    0.976589 0.090589 0.545440 0.207837
C74   C     C_3   0.075032 0.216658 0.553097 -0.918594
H35   H     H_    0.079140 0.222945 0.513325 0.266762
H36   H     H_    0.147462 0.167258 0.572367 0.264499
H37   H     H_    0.076959 0.293720 0.570601 0.272030
O17   O     O_3   0.783073 0.854813 0.467855 -0.619364
C75   C     C_3   0.837348 0.809113 0.513658 0.107522
H38   H     H_    0.883054 0.737052 0.504453 0.198359
H39   H     H_    0.781108 0.789893 0.537250 0.156014
C76   C     C_3   0.918663 0.878191 0.543950 -0.374777
H40   H     H_    0.966378 0.908521 0.519054 0.289827
H41   H     H_    0.873186 0.942020 0.560605 0.201871
C77   C     C_3   0.997763 0.823896 0.587074 -0.843290
H42   H     H_    0.952562 0.800269 0.614627 0.245248
H43   H     H_    0.056678 0.876846 0.606046 0.262251
H44   H     H_    0.044390 0.757007 0.573405 0.308939
C78   C     C_2   0.373584 0.711434 0.731532 0.411099
H45   H     H_    0.302965 0.748546 0.706518 0.055028
O18   O     O_2   0.397747 0.745238 0.773955 -0.550839
C79   C     C_2   0.430797 0.185015 0.420927 0.458824
H46   H     H_    0.415865 0.266010 0.414849 0.113634
O19   O     O_2   0.380401 0.129705 0.389807 -0.565237
C80   C     C_2   0.207463 0.774661 0.471003 0.600381
H47   H     H_    0.192259 0.715467 0.442705 0.053819
O20   O     O_2   0.153083 0.784563 0.503046 -0.556272
C81   C     C_2   0.155825 0.998555 0.462906 0.460389
H48   H     H_    0.143549 0.078940 0.471699 0.057231
O21   O     O_2   0.075762 0.954200 0.445701 -0.531740
C82   C     C_2   0.850362 0.325337 0.390540 0.388494
H49   H     H_    0.771737 0.346431 0.366458 0.110548
O22   O     O_2   0.898847 0.242367 0.384574 -0.558351
C83   C     C_2   0.740742 0.649034 0.602823 0.441127
H50   H     H_    0.759991 0.635525 0.642685 0.056090
O23   O     O_2   0.664226 0.710839 0.585982 -0.567855

loop_
_geom_bond_atom_site_label_1
_geom_bond_atom_site_label_2
_ccdc_geom_bond_type
C10   C27   A    
C58   C62   A    
C75   C76   S    
C23   O8    A    
C21   C26   A    
C8    C66   A    
C82   H49   S    
C41   C42   A    
N4    Zn2   S    
C62   H11   S    
O5    Zn2   S    
C78   H45   S    
O16   C72   S    
C53   C54   A    
C70   H26   S    
C26   N2    S    
C56   O3    S    
O9    Zn2   S    
C34   O11   A    
O7    Zn2   S    
C63   H9    S    
C22   H16   S    
C28   C29   A    
C79   O19   D    
C54   H13   S    
C77   H43   S    
C5    C6    A    
C9    C22   A    
C6    H12   S    
C67   H22   S    
C15   C16   A    
C49   O16   S    
C48   C79   S    
C40   H7    S    
O11   Zn2   S    
C18   C19   A    
C45   O12   S    
C25   O15   S    
C78   O18   D    
C54   C55   A    
C21   H17   S    
C16   C17   A    
C80   H47   S    
C30   H20   S    
C43   C48   A    
C81   O21   D    
C8    C12   S    
C69   C70   S    
C23   O9    A    
C35   H5    S    
C59   C60   A    
C82   O22   D    
C21   C22   A    
C27   C30   A    
C41   C43   A    
C7    C56   A    
C66   C67   S    
C4    C7    A    
O15   C69   S    
C4    C28   A    
C44   C46   A    
C65   H21   S    
C71   H29   S    
C31   H2    S    
C34   O10   A    
C7    C31   A    
C39   C81   S    
C64   H1    S    
C75   H38   S    
C45   N1    A    
C51   C63   A    
C24   C25   A    
C47   H8    S    
C10   C14   A    
C77   H44   S    
C39   C40   A    
C20   O2    S    
C58   C59   A    
C23   C37   S    
C5    C45   A    
C76   C77   S    
C32   C33   A    
C60   C61   A    
C2    C78   S    
C83   O23   D    
C74   H36   S    
C43   C44   A    
C73   H34   S    
C19   N2    A    
C46   O17   S    
C37   C49   A    
C16   C20   A    
C53   H14   S    
C17   C18   A    
C81   H48   S    
C60   C82   S    
C37   C48   A    
N3    Zn1   S    
C12   O6    A    
C32   H3    S    
C76   H41   S    
C33   H4    S    
C42   C50   A    
C72   C73   S    
C40   C41   A    
C6    C30   A    
C11   C32   A    
C1    O1    A    
C55   C57   A    
C9    C34   S    
C31   C35   A    
C36   C44   A    
C74   H37   S    
C51   C59   A    
C73   H33   S    
C38   C80   S    
C27   C28   A    
C19   O4    S    
C52   C53   A    
C72   H32   S    
C69   H24   S    
C1    C50   S    
C71   H30   S    
C75   H39   S    
C46   C47   A    
O8    Zn1   S    
C57   N4    A    
C3    N1    S    
C12   O7    A    
C24   C68   S    
C14   H19   S    
C4    C5    A    
C2    C66   A    
C10   C13   A    
C71   H28   S    
C9    C24   A    
C57   C61   A    
C15   H18   S    
C38   C50   A    
O10   Zn1   S    
C20   N2    A    
C29   C35   A    
O17   C75   S    
C79   H46   S    
C70   C71   S    
C13   C17   A    
C64   C65   A    
C68   O14   D    
C74   H35   S    
C25   C26   A    
C73   C74   S    
C61   H15   S    
C68   H23   S    
C83   H50   S    
C11   C13   A    
C38   C39   A    
C67   O13   D    
C1    O5    A    
C62   N3    A    
C63   N3    A    
C70   H27   S    
C2    C3    A    
C42   C47   A    
C80   O20   D    
C3    C64   A    
C18   C33   A    
O6    Zn1   S    
C56   N1    A    
C76   H40   S    
O1    Zn1   S    
C8    C65   A    
C11   C29   A    
C55   C58   A    
C51   H10   S    
C14   C15   A    
C52   N4    A    
C77   H42   S    
C52   C83   S    
C36   C49   A    
C36   H6    S    
C72   H31   S    
C69   H25   S    
