data_mof_unit_36712.cif
_audit_creation_date              2012-12-10T20:52:12-0500
_audit_creation_method            fapswitch 2.2
_symmetry_space_group_name_H-M    P1
_symmetry_Int_Tables_number       1
_space_group_crystal_system       triclinic
_cell_length_a                    10.752071
_cell_length_b                    8.908558
_cell_length_c                    8.193041
_cell_angle_alpha                 89.982546
_cell_angle_beta                  91.765185
_cell_angle_gamma                 89.907524
_cell_volume                      784.400627689

loop_
_atom_site_label
_atom_site_type_symbol
_atom_type_description
_atom_site_fract_x
_atom_site_fract_y
_atom_site_fract_z
_atom_type_partial_charge
C1    C     C_R   0.499983 0.218386 0.499986 0.934405
C2    C     C_R   0.740107 0.498385 0.502772 0.961457
C3    C     C_R   0.175753 0.715127 0.044912 -0.170588
C4    C     C_R   0.773108 0.749384 0.990185 -0.111750
C5    C     C_R   0.096047 0.664772 0.162749 0.494920
C6    C     C_R   0.838492 0.652442 0.888907 0.525751
C7    C     C_R   0.091750 0.508421 0.198479 0.113337
C8    C     C_R   0.867933 0.700953 0.729337 0.014955
C9    C     C_R   0.150246 0.405581 0.097410 -0.197641
C10   C     C_R   0.829899 0.844197 0.675937 -0.235959
C11   C     C_R   0.223981 0.458046 0.973620 -0.125805
C12   C     C_R   0.500042 0.781595 0.500010 0.947390
C13   C     C_R   0.765363 0.939327 0.779115 -0.122876
C14   C     C_R   0.242446 0.612751 0.954969 -0.103284
C15   C     C_R   0.737047 0.892018 0.935964 -0.182708
C16   C     C_R   0.933393 0.427456 0.383344 0.404447
C17   C     C_R   0.065847 0.616181 0.602735 0.446282
C18   C     C_R   0.872499 0.503152 0.507752 -0.217570
C19   C     C_R   0.125312 0.522828 0.492546 -0.161442
C20   C     C_R   0.936325 0.603750 0.614718 -0.216317
C21   C     C_R   0.057027 0.460293 0.362036 -0.214885
C22   C     C_1   0.499923 0.065297 0.499969 -0.196455
C23   C     C_1   0.499931 0.934645 0.499950 -0.172866
C24   C     C_R   0.259298 0.509561 0.497606 0.959017
H1    H     H_    0.307515 0.656463 0.869678 0.219899
H2    H     H_    0.915556 0.454833 0.868079 0.334912
H3    H     H_    0.926655 0.283342 0.204167 0.349838
H4    H     H_    0.079811 0.801045 0.732209 0.343069
H5    H     H_    0.686630 0.965769 0.015557 0.168312
H6    H     H_    0.187036 0.834299 0.023928 0.161476
H7    H     H_    0.749715 0.713555 0.111759 0.164286
H8    H     H_    0.147962 0.286419 0.123478 0.146391
H9    H     H_    0.850726 0.882189 0.554173 0.171680
H10   H     H_    0.273591 0.377876 0.900984 0.170852
H11   H     H_    0.736958 0.049779 0.737211 0.161358
H12   H     H_    0.958956 0.723047 0.296571 0.327536
N1    N     N_1   0.500020 0.500030 0.073640 -0.030108
N2    N     N_1   0.499980 0.499970 0.926360 -0.060523
O1    O     O_R   0.499990 0.285340 0.636850 -0.627674
O2    O     O_3   0.868212 0.511710 0.949157 -0.761972
O3    O     O_3   0.867487 0.336602 0.274362 -0.713494
O4    O     O_3   0.134383 0.730917 0.674370 -0.784536
O5    O     O_R   0.500010 0.714660 0.363150 -0.635135
O6    O     O_R   0.500010 0.285350 0.363100 -0.603598
O7    O     O_R   0.499990 0.714650 0.636900 -0.618798
O8    O     O_R   0.316750 0.500000 0.636870 -0.641180
O9    O     O_R   0.683250 0.500000 0.363130 -0.567591
O10   O     O_R   0.316770 0.500020 0.363120 -0.625441
O11   O     O_R   0.683230 0.499980 0.636880 -0.622001
O12   O     O_3   0.031723 0.771568 0.248145 -0.781718
Zn1   Zn    Zn3+2 0.499990 0.499990 0.682780 0.975915
Zn2   Zn    Zn3+2 0.500010 0.500010 0.317220 1.006431

loop_
_geom_bond_atom_site_label_1
_geom_bond_atom_site_label_2
_ccdc_geom_bond_type
C3    H6    S    
O1    Zn1   S    
C8    C10   A    
C13   H11   S    
C16   C21   A    
C2    O11   A    
C2    O9    A    
C2    C18   S    
C5    C7    A    
H3    O3    S    
C1    O6    A    
C24   O8    A    
O6    Zn2   S    
C4    C15   A    
C19   C24   S    
C1    C22   S    
C8    C20   S    
C7    C21   S    
C9    C11   A    
C12   C23   S    
H2    O2    S    
O9    Zn2   S    
C3    C14   A    
O8    Zn1   S    
H4    O4    S    
C17   C19   A    
N1    N2    T    
C15   H5    S    
C12   O5    A    
C18   C20   A    
C13   C15   A    
C14   H1    S    
C5    O12   S    
C11   C14   A    
C6    O2    S    
O5    Zn2   S    
C4    H7    S    
O7    Zn1   S    
C4    C6    A    
C24   O10   A    
C3    C5    A    
O10   Zn2   S    
C17   C20   A    
H12   O12   S    
C16   C18   A    
C10   H9    S    
C7    C9    A    
N1    Zn2   S    
C1    O1    A    
C22   C23   T    
C6    C8    A    
N2    Zn1   S    
C9    H8    S    
C19   C21   A    
C17   O4    S    
C16   O3    S    
C11   H10   S    
C12   O7    A    
O11   Zn1   S    
C10   C13   A    
