data_mof_unit_49281.cif
_audit_creation_date              2013-03-05T15:40:44-0500
_audit_creation_method            fapswitch 2.2
_symmetry_space_group_name_H-M    P1
_symmetry_Int_Tables_number       1
_space_group_crystal_system       triclinic
_cell_length_a                    14.988501
_cell_length_b                    14.834788
_cell_length_c                    14.95231
_cell_angle_alpha                 109.708511
_cell_angle_beta                  109.521802
_cell_angle_gamma                 109.010858
_cell_volume                      2564.6853531

loop_
_atom_site_label
_atom_site_type_symbol
_atom_site_description
_atom_site_fract_x
_atom_site_fract_y
_atom_site_fract_z
_atom_type_partial_charge
C1    C     C_R   0.925806 0.741141 0.019129 -0.166383
H1    H     H_    0.867651 0.747026 0.044818 0.111833
N1    N     N_R   0.993980 0.704500 0.053430 -0.051164
C2    C     C_R   0.779324 0.245537 0.686095 -0.144569
H2    H     H_    0.799873 0.232406 0.621798 0.100801
N2    N     N_R   0.850110 0.295520 0.792970 -0.041121
C3    C     C_R   0.098294 0.589055 0.793612 0.294602
N3    N     N_R   0.053690 0.556380 0.849240 -0.089879
C4    C     C_R   0.703058 0.409213 0.008141 -0.175434
H3    H     H_    0.648750 0.323735 0.977249 0.100403
N4    N     N_R   0.790390 0.443640 0.997160 -0.039671
C5    C     C_R   0.005435 0.406986 0.702485 -0.197330
H4    H     H_    0.984186 0.322536 0.654278 0.113533
N5    N     N_R   0.998260 0.443670 0.792970 -0.063769
C6    C     C_R   0.795288 0.591049 0.103324 0.030341
N6    N     N_R   0.845830 0.556350 0.053430 -0.049991
C7    C     C_R   0.686960 0.246761 0.777477 -0.114290
H5    H     H_    0.623088 0.234278 0.798062 0.091138
N7    N     N_R   0.792820 0.295510 0.849240 -0.043621
C8    C     C_R   0.019110 0.742188 0.929782 -0.060636
H6    H     H_    0.047672 0.748875 0.873879 0.126918
N8    N     N_R   0.051260 0.704510 0.997160 -0.033611
C9    C     C_R   0.938995 0.763869 0.940532 0.100521
C10   C     C_R   0.676782 0.216195 0.674438 0.127053
C11   C     C_R   0.070289 0.496558 0.701493 0.001339
C12   C     C_R   0.704395 0.500144 0.076730 -0.029444
C13   C     C_R   0.046734 0.589666 0.313997 0.034398
N9    N     N_R   0.001740 0.556330 0.207030 -0.051556
C14   C     C_R   0.223753 0.407547 0.972435 -0.139343
H7    H     H_    0.202886 0.322227 0.934575 0.096762
N10   N     N_R   0.154170 0.443650 0.946570 -0.041313
C15   C     C_R   0.297140 0.802965 0.207196 -0.123685
H8    H     H_    0.348320 0.832094 0.175308 0.134981
N11   N     N_R   0.207180 0.704490 0.150760 -0.038429
C16   C     C_R   0.918871 0.202404 0.007069 -0.151420
H9    H     H_    0.861007 0.172748 0.032267 0.095129
N12   N     N_R   0.948740 0.295490 0.002840 -0.039480
C17   C     C_R   0.007804 0.200621 0.913707 -0.125559
H10   H     H_    0.032759 0.170777 0.855134 0.084433
N13   N     N_R   0.006020 0.295500 0.946570 -0.042617
C18   C     C_R   0.204949 0.804320 0.296360 -0.113801
H11   H     H_    0.169982 0.835955 0.342985 0.100988
N14   N     N_R   0.149890 0.704480 0.207030 -0.048926
C19   C     C_R   0.959531 0.406454 0.221463 -0.137872
H12   H     H_    0.922320 0.320937 0.199562 0.099307
N15   N     N_R   0.946310 0.443620 0.150760 -0.048613
C20   C     C_R   0.314250 0.591758 0.064667 -0.094990
H13   H     H_    0.376974 0.677101 0.112013 0.098959
N16   N     N_R   0.209610 0.556360 0.002840 -0.028092
Ni1   Ni    Ni4+2 0.997880 0.629240 0.129060 0.201442
Ni2   Ni    Ni4+2 0.002120 0.370760 0.870940 0.201271
Ni3   Ni    Ni4+2 0.129260 0.629260 0.000000 0.290071
Ni4   Ni    Ni4+2 0.870740 0.370740 0.000000 0.207015
C21   C     C_R   0.025135 0.497611 0.325715 0.086829
C22   C     C_R   0.325850 0.499289 0.048122 -0.030710
C23   C     C_R   0.297000 0.867400 0.298039 0.104901
C24   C     C_R   0.954677 0.141612 0.951801 0.133879
C25   C     C_3   0.532927 0.395747 0.074825 -0.396776
H14   H     H_    0.576321 0.396460 0.151926 0.160945
H15   H     H_    0.512727 0.318993 0.005517 0.150679
C26   C     C_3   0.425158 0.392369 0.060963 -0.392934
H16   H     H_    0.357854 0.318207 0.981484 0.151841
H17   H     H_    0.411646 0.383769 0.127128 0.160280
H18   H     H_    0.683834 0.607673 0.256027 0.154036
H19   H     H_    0.521246 0.590181 0.243587 0.163842
C27   C     C_3   0.632850 0.602765 0.178877 -0.401020
C28   C     C_3   0.542254 0.500630 0.972263 -0.395277
C29   C     C_3   0.606016 0.500000 0.077419 0.392859
H20   H     H_    0.594209 0.572570 0.970277 0.159121
H21   H     H_    0.517486 0.424891 0.898165 0.159279
C30   C     C_3   0.427854 0.498900 0.063565 0.389921
C31   C     C_3   0.527385 0.598237 0.174225 -0.408820
C32   C     C_3   0.441197 0.505996 0.967308 -0.386786
H22   H     H_    0.368636 0.437261 0.887143 0.158232
H23   H     H_    0.448385 0.584467 0.970980 0.168541
H24   H     H_    0.677826 0.679236 0.179480 0.171089
H25   H     H_    0.531777 0.677601 0.184897 0.148178
C33   C     C_2   0.378339 0.039202 0.466747 -0.113275
C34   C     C_2   0.372548 0.984836 0.371187 -0.181234
H26   H     H_    0.314114 0.003130 0.482815 0.118192
H27   H     H_    0.433082 0.022404 0.351724 0.131210
C35   C     C_2   0.480170 0.135110 0.562459 -0.111731
C36   C     C_2   0.576774 0.153434 0.569799 -0.184670
H28   H     H_    0.475993 0.177364 0.634693 0.116675
H29   H     H_    0.583711 0.111380 0.499740 0.127200
C37   C     C_2   0.066528 0.401681 0.531347 -0.149302
C38   C     C_2   0.115226 0.492690 0.628435 -0.136459
H30   H     H_    0.011280 0.321992 0.515013 0.126694
H31   H     H_    0.175358 0.569613 0.644468 0.183478
C39   C     C_2   0.060352 0.410235 0.435125 -0.113610
C40   C     C_2   0.058485 0.497487 0.428176 -0.191533
H32   H     H_    0.039447 0.337562 0.363824 0.125361
H33   H     H_    0.075101 0.569032 0.497510 0.148313
C41   C     C_2   0.922232 0.957416 0.840474 -0.111455
C42   C     C_2   0.926937 0.029770 0.927637 -0.190237
H34   H     H_    0.936617 0.980088 0.782746 0.119435
H35   H     H_    0.915754 0.009859 0.987908 0.132260
C43   C     C_2   0.920499 0.855711 0.833413 -0.109694
C44   C     C_2   0.884536 0.811973 0.887858 -0.193118
H36   H     H_    0.968648 0.831143 0.800953 0.130439
H37   H     H_    0.829689 0.830786 0.912936 0.134320
N17   N     N_R   0.187582 0.697073 0.842040 0.216008
O1    O     O_R   0.203717 0.738475 0.781182 -0.446905
O2    O     O_R   0.245358 0.759376 0.948101 -0.444733
N18   N     N_3   0.850741 0.696671 0.199920 -0.238006
H38   H     H_    0.868393 0.684077 0.267036 0.098963
H39   H     H_    0.926297 0.744419 0.210536 0.105653
N19   N     N_3   0.099257 0.700840 0.399592 -0.230721
H40   H     H_    0.176365 0.720146 0.455450 0.117831
H41   H     H_    0.054582 0.704932 0.440147 0.095892

loop_
_geom_bond_atom_site_label_1
_geom_bond_atom_site_label_2
_geom_bond_distance
_ccdc_geom_bond_type
C27   C29   1.555670 S    
C18   N14   1.338458 A    
C18   H11   1.079214 S    
C9    C44   1.457646 S    
C16   H9    1.081339 S    
C13   C21   1.382642 A    
C3    N3    1.343948 A    
C20   N16   1.325606 A    
N2    N7    1.388562 A    
N18   H39   1.044418 S    
N9    N15   1.368503 A    
C31   H25   1.109826 S    
C23   C34   1.454451 S    
C20   C22   1.388658 A    
C16   N12   1.336554 A    
C10   C36   1.450017 S    
N6    Ni1   1.867952 S    
N12   N13   1.388438 A    
C17   H10   1.080850 S    
C2    C10   1.384198 A    
C37   H30   1.084078 S    
C41   C43   1.467447 S    
C25   H15   1.109936 S    
C6    N6    1.329731 A    
C43   C44   1.340139 D    
C11   C38   1.457698 S    
N19   H40   1.045557 S    
C1    H1    1.079673 S    
C32   H22   1.114101 S    
C26   H17   1.112762 S    
N9    Ni1   1.838084 S    
C27   C31   1.536989 S    
C20   H13   1.078488 S    
C3    N17   1.433785 S    
C28   C32   1.521072 S    
N2    Ni2   1.867192 S    
C4    H3    1.079397 S    
N3    Ni3   1.839910 S    
C26   H16   1.110952 S    
N4    Ni4   1.862006 S    
N12   Ni4   1.861136 S    
N7    Ni4   1.839971 S    
C25   C26   1.539842 S    
C32   H23   1.113998 S    
C41   C42   1.342147 D    
N10   N16   1.368503 A    
N1    Ni1   1.838100 S    
C19   N15   1.336103 A    
C4    C12   1.381090 A    
C7    C10   1.388959 A    
C28   C29   1.548252 S    
C2    N2    1.335776 A    
C37   C39   1.461654 S    
N10   Ni2   1.867952 S    
C34   H27   1.083932 S    
C37   C38   1.338224 D    
C6    C12   1.382771 A    
C14   C22   1.386242 A    
C25   H14   1.112820 S    
C1    N1    1.342484 A    
C15   N11   1.337575 A    
C41   H34   1.085184 S    
C18   C23   1.378314 A    
C14   H7    1.077405 S    
C40   H33   1.084602 S    
C17   C24   1.382075 A    
N4    N6    1.368502 A    
C33   C35   1.467665 S    
C39   H32   1.085585 S    
N5    Ni2   1.838084 S    
C8    C9    1.384544 A    
N16   Ni3   1.862007 S    
C27   H24   1.110081 S    
C7    H5    1.079547 S    
C8    H6    1.076674 S    
N17   O2    1.300476 A    
C4    N4    1.328862 A    
C25   C29   1.555904 S    
C44   H37   1.085908 S    
C5    N5    1.333033 A    
C1    C9    1.383094 A    
C35   H28   1.085132 S    
C38   H31   1.083060 S    
H19   C31   1.112928 S    
C19   H12   1.079117 S    
N8    Ni3   1.861135 S    
N3    N5    1.368503 A    
C36   H29   1.082410 S    
C33   C34   1.339351 D    
N11   N14   1.388562 A    
C8    N8    1.338069 A    
C2    H2    1.080630 S    
C42   H35   1.084308 S    
N14   Ni1   1.867192 S    
N13   Ni2   1.838100 S    
N18   H38   1.045582 S    
N11   Ni3   1.839970 S    
C3    C11   1.385591 A    
C5    C11   1.375581 A    
C16   C24   1.375973 A    
C28   H21   1.114225 S    
C12   C29   1.477339 S    
C15   H8    1.081652 S    
C6    N18   1.433480 S    
C21   C40   1.444876 S    
C14   N10   1.325964 A    
C17   N13   1.337933 A    
C26   C30   1.554538 S    
C39   C40   1.341396 D    
C13   N19   1.426483 S    
N15   Ni4   1.839908 S    
C7    N7    1.335332 A    
N19   H41   1.045384 S    
C33   H26   1.084616 S    
N17   O1    1.300377 A    
C43   H36   1.084136 S    
C19   C21   1.383110 A    
C30   C31   1.551899 S    
C5    H4    1.080768 S    
C35   C36   1.341544 D    
C24   C42   1.449853 S    
C30   C32   1.550295 S    
C13   N9    1.336347 A    
N1    N8    1.388437 A    
C28   H20   1.114297 S    
C15   C23   1.373402 A    
C22   C30   1.470218 S    
H18   C27   1.112626 S    
