data_mof_unit_23629.cif
_audit_creation_date              2013-03-05T16:26:23-0500
_audit_creation_method            fapswitch 2.2
_symmetry_space_group_name_H-M    P1
_symmetry_Int_Tables_number       1
_space_group_crystal_system       triclinic
_cell_length_a                    28.861492
_cell_length_b                    18.337097
_cell_length_c                    18.391114
_cell_angle_alpha                 90.037193
_cell_angle_beta                  130.781403
_cell_angle_gamma                 89.974767
_cell_volume                      7370.07630449

loop_
_atom_site_label
_atom_site_type_symbol
_atom_site_description
_atom_site_fract_x
_atom_site_fract_y
_atom_site_fract_z
_atom_type_partial_charge
O1    O     O_R   0.500010 0.938760 0.394210 -0.569512
O2    O     O_R   0.499990 0.938760 0.605790 -0.568914
O3    O     O_R   0.000010 0.438760 0.394210 -0.570512
O4    O     O_R   0.999990 0.438760 0.605790 -0.567962
O5    O     O_R   0.499990 0.061230 0.394210 -0.550516
O6    O     O_R   0.500010 0.061230 0.605790 -0.551964
O7    O     O_R   0.999990 0.561230 0.394210 -0.549982
O8    O     O_R   0.000010 0.561230 0.605790 -0.551429
C1    C     C_R   0.500030 0.999941 0.360080 0.827098
C2    C     C_R   0.499966 0.999979 0.639916 0.826679
C3    C     C_R   0.000037 0.499941 0.360088 0.824271
C4    C     C_R   0.999966 0.499981 0.639916 0.827509
O9    O     O_R   0.590180 0.938760 0.590180 -0.577278
O10   O     O_R   0.409820 0.938760 0.409820 -0.577463
O11   O     O_R   0.090180 0.438760 0.590180 -0.578080
O12   O     O_R   0.909820 0.438760 0.409820 -0.578489
O13   O     O_R   0.590160 0.061230 0.590180 -0.525718
O14   O     O_R   0.409840 0.061230 0.409820 -0.525185
O15   O     O_R   0.090160 0.561230 0.590180 -0.525191
O16   O     O_R   0.909840 0.561230 0.409820 -0.524607
C5    C     C_R   0.618807 0.999466 0.620740 0.853607
C6    C     C_R   0.381190 0.999456 0.379272 0.853740
C7    C     C_R   0.118821 0.499464 0.620569 0.854455
C8    C     C_R   0.881191 0.499463 0.379252 0.850877
Cu1   Cu    Cu3+1 0.500000 0.927480 0.500000 1.191299
Cu2   Cu    Cu3+1 0.000000 0.427480 0.500000 1.189618
Cu3   Cu    Cu3+1 0.500000 0.072500 0.500000 1.203095
Cu4   Cu    Cu3+1 0.000000 0.572500 0.500000 1.204564
C9    C     C_R   0.630993 0.821659 0.804668 0.203141
C10   C     C_R   0.369046 0.821286 0.195493 0.203122
C11   C     C_R   0.131074 0.319321 0.801912 0.196106
C12   C     C_R   0.869068 0.321447 0.195427 0.202845
C13   C     C_R   0.660330 0.849706 0.771205 0.269398
C14   C     C_R   0.339687 0.849412 0.228930 0.269609
C15   C     C_R   0.160691 0.348263 0.769319 0.272753
C16   C     C_R   0.839680 0.349579 0.228795 0.280984
C17   C     C_R   0.686363 0.920694 0.800526 -0.196139
C18   C     C_R   0.313638 0.920387 0.199579 -0.196177
C19   C     C_R   0.186377 0.419368 0.799304 -0.194041
C20   C     C_R   0.813616 0.420551 0.199404 -0.173636
C21   C     C_R   0.687908 0.959907 0.867693 0.147944
C22   C     C_R   0.312100 0.959514 0.132425 0.146846
C23   C     C_R   0.187644 0.457750 0.866651 0.145263
C24   C     C_R   0.811928 0.459544 0.132010 0.165846
C25   C     C_R   0.668515 0.927136 0.912511 0.101973
C26   C     C_R   0.331535 0.926688 0.087661 0.100902
C27   C     C_R   0.168077 0.424126 0.910751 0.105770
C28   C     C_R   0.831265 0.426582 0.087154 0.125094
C29   C     C_R   0.639836 0.857869 0.881953 0.174135
C30   C     C_R   0.360254 0.857448 0.118265 0.174348
C31   C     C_R   0.139312 0.354929 0.879054 0.170936
C32   C     C_R   0.860108 0.357416 0.117972 0.186391
C33   C     C_R   0.783049 0.951282 0.833196 0.394824
C34   C     C_R   0.216950 0.951062 0.166897 0.394224
C35   C     C_R   0.283100 0.451043 0.832764 0.394997
C36   C     C_R   0.716939 0.451285 0.166773 0.416078
C37   C     C_R   0.813711 0.995091 0.812024 -0.220169
C38   C     C_R   0.186281 0.995065 0.187938 -0.219671
C39   C     C_R   0.313749 0.495267 0.811958 -0.220976
C40   C     C_R   0.686284 0.495159 0.187955 -0.227159
C41   C     C_R   0.779592 0.036206 0.725868 0.001348
C42   C     C_R   0.220383 0.036429 0.273913 0.001097
C43   C     C_R   0.279652 0.536687 0.726036 0.001434
C44   C     C_R   0.720404 0.536392 0.274064 0.000150
C45   C     C_R   0.715539 0.035176 0.662261 0.353871
C46   C     C_R   0.284434 0.035309 0.337635 0.353226
C47   C     C_R   0.215591 0.535599 0.662352 0.353241
C48   C     C_R   0.784457 0.535271 0.337719 0.357053
C49   C     C_R   0.685439 0.996622 0.686184 -0.215240
C50   C     C_R   0.314556 0.996575 0.313834 -0.215318
C51   C     C_R   0.185474 0.496615 0.685942 -0.215133
C52   C     C_R   0.814560 0.496623 0.313807 -0.220075
C53   C     C_R   0.718507 0.953853 0.770467 -0.026678
C54   C     C_R   0.281496 0.953645 0.229625 -0.026705
C55   C     C_R   0.218560 0.453428 0.769866 -0.027399
C56   C     C_R   0.781485 0.453827 0.229489 -0.036411
C57   C     C_R   0.816971 0.056133 0.637201 0.227226
C58   C     C_R   0.182769 0.058254 0.361990 0.227725
C59   C     C_R   0.317359 0.557563 0.637957 0.227725
C60   C     C_R   0.682723 0.557277 0.362215 0.227739
C61   C     C_R   0.831695 0.104100 0.594733 0.134766
C62   C     C_R   0.168077 0.107160 0.403785 0.132225
C63   C     C_R   0.332259 0.605939 0.596049 0.132096
C64   C     C_R   0.667796 0.605669 0.404135 0.131977
C65   C     C_R   0.843422 0.179043 0.622010 0.153416
C66   C     C_R   0.156789 0.181948 0.375906 0.157671
C67   C     C_R   0.343394 0.680891 0.623213 0.155471
C68   C     C_R   0.656581 0.680600 0.376949 0.155439
C69   C     C_R   0.831287 0.206598 0.680578 0.234783
C70   C     C_R   0.169341 0.208362 0.317496 0.237511
C71   C     C_R   0.330549 0.707951 0.681015 0.239224
C72   C     C_R   0.669395 0.707650 0.319138 0.239216
C73   C     C_R   0.817644 0.157716 0.723625 0.186534
C74   C     C_R   0.182658 0.158562 0.274784 0.181547
C75   C     C_R   0.317271 0.658662 0.724172 0.186907
C76   C     C_R   0.682769 0.658355 0.276054 0.186615
C77   C     C_R   0.808552 0.083272 0.699446 -0.191876
C78   C     C_R   0.191393 0.084306 0.299615 -0.190818
C79   C     C_R   0.308629 0.584222 0.700031 -0.192739
C80   C     C_R   0.691454 0.583925 0.300175 -0.192047
C81   C     C_1   0.500832 0.999796 0.283347 -0.063485
C82   C     C_1   0.499165 0.999900 0.716650 -0.065138
C83   C     C_1   0.000837 0.499797 0.283352 -0.066234
C84   C     C_1   0.999165 0.499912 0.716650 -0.059824
C85   C     C_1   0.501253 0.999797 0.218494 -0.027661
C86   C     C_1   0.498746 0.999885 0.781504 -0.029288
C87   C     C_1   0.001254 0.499800 0.218496 -0.029215
C88   C     C_1   0.998746 0.499910 0.781505 -0.017742
O17   O     O_R   0.999970 0.105830 0.061210 -0.594607
O18   O     O_R   0.000030 0.105830 0.938790 -0.577725
O19   O     O_R   0.499970 0.605830 0.061210 -0.590847
O20   O     O_R   0.500030 0.605830 0.938790 -0.590668
C89   C     C_R   0.999994 0.139908 0.000060 0.818113
C90   C     C_R   0.500003 0.639910 0.000021 0.803429
O21   O     O_R   0.909810 0.000030 0.971060 -0.516004
O22   O     O_R   0.090190 0.000030 0.028940 -0.508509
O23   O     O_R   0.409810 0.500030 0.971060 -0.515626
O24   O     O_R   0.590190 0.500030 0.028940 -0.515833
O25   O     O_R   0.909820 0.000000 0.848600 -0.590180
O26   O     O_R   0.090180 1.000000 0.151400 -0.589681
O27   O     O_R   0.409820 0.500000 0.848600 -0.587324
O28   O     O_R   0.590180 0.500000 0.151400 -0.587361
C91   C     C_R   0.880890 0.998960 0.880257 0.862161
C92   C     C_R   0.119106 0.998938 0.119729 0.868324
C93   C     C_R   0.380901 0.499100 0.880250 0.865327
C94   C     C_R   0.619109 0.499003 0.119738 0.868293
Cu5   Cu    Cu3+1 0.999980 0.000040 0.072510 1.163660
Cu6   Cu    Cu3+1 0.000020 0.000040 0.927490 1.177170
Cu7   Cu    Cu3+1 0.499980 0.500040 0.072510 1.163650
Cu8   Cu    Cu3+1 0.500020 0.500040 0.927490 1.160766
O29   O     O_R   0.000000 0.894230 0.061260 -0.541831
O30   O     O_R   0.000000 0.894230 0.938740 -0.542653
O31   O     O_R   0.500000 0.394230 0.061260 -0.540572
O32   O     O_R   0.500000 0.394230 0.938740 -0.543161
C95   C     C_R   0.999991 0.860153 0.999972 0.897953
C96   C     C_R   0.500039 0.360154 0.000020 0.903587
O33   O     O_R   0.552180 0.105790 0.052210 -0.565383
O34   O     O_R   0.447820 0.105790 0.947790 -0.561285
O35   O     O_R   0.052180 0.605790 0.052210 -0.562879
O36   O     O_R   0.947820 0.605790 0.947790 -0.562292
C97   C     C_R   0.500000 0.139610 0.999985 0.785814
C98   C     C_R   0.999999 0.639610 0.999986 0.786457
O37   O     O_R   0.552180 0.999990 0.157990 -0.559819
O38   O     O_R   0.447820 0.999990 0.842010 -0.559311
O39   O     O_R   0.052180 0.499990 0.157990 -0.558970
O40   O     O_R   0.947820 0.499990 0.842010 -0.561279
O41   O     O_R   0.447790 0.000000 0.053610 -0.530312
O42   O     O_R   0.552210 1.000000 0.946390 -0.531132
O43   O     O_R   0.947790 0.500000 0.053610 -0.530957
O44   O     O_R   0.052210 0.500000 0.946390 -0.528361
C99   C     C_R   0.500486 0.999932 0.140141 0.840222
C100  C     C_R   0.499513 0.999966 0.859859 0.839023
C101  C     C_R   0.000487 0.499937 0.140141 0.841772
C102  C     C_R   0.999514 0.499980 0.859860 0.843363
Cu9   Cu    Cu3+1 0.561800 0.999990 0.061810 1.206929
Cu10  Cu    Cu3+1 0.438200 0.999990 0.938190 1.211084
Cu11  Cu    Cu3+1 0.061800 0.499990 0.061810 1.208409
Cu12  Cu    Cu3+1 0.938200 0.499990 0.938190 1.207280
O45   O     O_R   0.552190 0.894190 0.052180 -0.523961
O46   O     O_R   0.447810 0.894190 0.947820 -0.524070
O47   O     O_R   0.052190 0.394190 0.052180 -0.522381
O48   O     O_R   0.947810 0.394190 0.947820 -0.521465
C103  C     C_R   0.500001 0.860385 0.000014 0.903595
C104  C     C_R   0.000003 0.360389 0.000367 0.895412
C105  C     C_1   0.999996 0.217475 0.000360 -0.055316
C106  C     C_1   0.500006 0.717479 0.000055 -0.060480
C107  C     C_1   0.500005 0.782822 0.000043 0.058799
C108  C     C_1   0.999990 0.282820 0.000608 0.013629
C109  C     C_1   0.999992 0.782558 0.999941 -0.031379
C110  C     C_1   0.500026 0.282558 0.999972 -0.034669
C111  C     C_1   0.500008 0.217200 0.999963 -0.070196
C112  C     C_1   0.999995 0.717201 0.999954 -0.065961
S1    S     S_3+6 0.615438 0.817740 0.940883 0.131719
O49   O     O_2   0.649684 0.847307 0.040310 -0.165798
O50   O     O_2   0.548585 0.833946 0.882751 -0.308468
O51   O     O_3   0.626423 0.726911 0.950467 -0.390479
H1    H     H_    0.592680 0.706074 0.945226 0.387083
S2    S     S_3+6 0.384788 0.817321 0.059481 0.131335
O52   O     O_2   0.350666 0.846921 0.960142 -0.165812
O53   O     O_2   0.451665 0.833503 0.117821 -0.308330
O54   O     O_3   0.373771 0.726496 0.049707 -0.390716
H2    H     H_    0.407505 0.705654 0.054902 0.386999
S3    S     S_3+6 0.113583 0.314446 0.935872 0.132482
O55   O     O_2   0.124382 0.233473 0.945358 -0.164915
O56   O     O_2   0.145753 0.344615 0.034391 -0.170037
O57   O     O_3   0.038361 0.331536 0.867937 -0.525209
H3    H     H_    0.020746 0.286814 0.871539 0.380148
S4    S     S_3+6 0.884680 0.317185 0.059286 0.134222
O58   O     O_2   0.850312 0.346367 0.959687 -0.165544
O59   O     O_2   0.951463 0.333772 0.117340 -0.308677
O60   O     O_3   0.874102 0.226294 0.050233 -0.389877
H4    H     H_    0.907759 0.205626 0.055103 0.387197
S5    S     S_3+6 0.876294 0.237219 0.588134 0.167427
O61   O     O_2   0.917068 0.293288 0.664568 -0.218524
O62   O     O_2   0.914139 0.194929 0.573358 -0.110281
O63   O     O_3   0.819650 0.279918 0.485366 -0.438028
H5    H     H_    0.834375 0.330535 0.493582 0.393677
S6    S     S_3+6 0.123783 0.241358 0.408547 0.169866
O64   O     O_2   0.083204 0.296869 0.331166 -0.206680
O65   O     O_2   0.085699 0.200050 0.423543 -0.112911
O66   O     O_3   0.180286 0.284764 0.510784 -0.440504
H6    H     H_    0.164909 0.335005 0.502689 0.392971
S7    S     S_3+6 0.376774 0.739699 0.590784 0.169675
O67   O     O_2   0.416884 0.795743 0.667693 -0.206983
O68   O     O_2   0.415423 0.697941 0.577226 -0.113468
O69   O     O_3   0.320553 0.782417 0.487729 -0.440622
H7    H     H_    0.335702 0.832766 0.495737 0.392278
S8    S     S_3+6 0.623141 0.739381 0.409376 0.169796
O70   O     O_2   0.582963 0.795348 0.332455 -0.206750
O71   O     O_2   0.584554 0.697585 0.422974 -0.113597
O72   O     O_3   0.679323 0.782209 0.512406 -0.440128
H8    H     H_    0.664060 0.832495 0.504447 0.392626
S9    S     S_3+6 0.824566 0.302267 0.690820 0.154622
O73   O     O_2   0.886919 0.332562 0.770671 -0.270211
O74   O     O_2   0.798127 0.340929 0.598984 -0.165152
O75   O     O_3   0.778470 0.318912 0.714962 -0.393161
H9    H     H_    0.784155 0.371367 0.731795 0.399816
S10   S     S_3+6 0.177340 0.303645 0.307626 0.156831
O76   O     O_2   0.115357 0.335105 0.228572 -0.253495
O77   O     O_2   0.204772 0.342280 0.399963 -0.165268
O78   O     O_3   0.223131 0.318697 0.282571 -0.398184
H10   H     H_    0.218241 0.371202 0.266322 0.399691
S11   S     S_3+6 0.322112 0.803377 0.689609 0.158816
O79   O     O_2   0.383778 0.835162 0.769572 -0.252889
O80   O     O_2   0.295566 0.841527 0.597423 -0.166471
O81   O     O_3   0.275151 0.818618 0.712377 -0.396171
H11   H     H_    0.279622 0.871233 0.727999 0.400214
S12   S     S_3+6 0.677596 0.803093 0.310336 0.159062
O82   O     O_2   0.615858 0.834619 0.230215 -0.253396
O83   O     O_2   0.703972 0.841419 0.402390 -0.165514
O84   O     O_3   0.724588 0.818446 0.287672 -0.395852
H12   H     H_    0.720037 0.871052 0.272035 0.400344
N1    N     N_R   0.814214 0.183359 0.793861 0.186180
O85   O     O_R   0.764958 0.174008 0.781982 -0.217189
O86   O     O_R   0.860522 0.217438 0.869794 -0.326253
N2    N     N_R   0.186297 0.183081 0.204433 0.188478
O87   O     O_R   0.235881 0.173716 0.217236 -0.216436
O88   O     O_R   0.139699 0.215632 0.127123 -0.297165
N3    N     N_R   0.313891 0.683937 0.794592 0.185610
O89   O     O_R   0.265025 0.673430 0.783516 -0.218702
O90   O     O_R   0.359819 0.719017 0.869797 -0.323806
N4    N     N_R   0.686236 0.683607 0.205752 0.185581
O91   O     O_R   0.735240 0.673317 0.217147 -0.217997
O92   O     O_R   0.640280 0.718506 0.130396 -0.324061
S13   S     S_3+6 0.583031 0.742614 0.748770 0.167926
O93   O     O_2   0.532765 0.744307 0.752622 -0.195218
O94   O     O_2   0.553590 0.737912 0.644945 -0.169637
O95   O     O_3   0.625750 0.667608 0.806484 -0.395363
H13   H     H_    0.596563 0.626370 0.773827 0.399002
S14   S     S_3+6 0.416920 0.742167 0.251289 0.167956
O96   O     O_2   0.467203 0.743701 0.247477 -0.194937
O97   O     O_2   0.446339 0.737479 0.355098 -0.169568
O98   O     O_3   0.374105 0.667230 0.193434 -0.395902
H14   H     H_    0.403232 0.625936 0.226063 0.398929
S15   S     S_3+6 0.084221 0.239365 0.746060 0.173577
O99   O     O_2   0.032940 0.240116 0.747520 -0.196659
O100  O     O_2   0.056113 0.233747 0.642934 -0.167952
O101  O     O_3   0.127808 0.165358 0.806093 -0.397685
H15   H     H_    0.099444 0.123424 0.772908 0.401798
S16   S     S_3+6 0.917331 0.242687 0.251787 0.165906
O102  O     O_2   0.967676 0.244584 0.248122 -0.195870
O103  O     O_2   0.946670 0.238298 0.355580 -0.170485
O104  O     O_3   0.874943 0.167407 0.194368 -0.396508
H16   H     H_    0.904296 0.126345 0.227283 0.399048
S17   S     S_3+6 0.672487 0.792784 0.705075 0.177806
O105  O     O_2   0.681059 0.714843 0.736685 -0.089815
O106  O     O_2   0.617993 0.796679 0.599527 -0.202482
O107  O     O_3   0.735414 0.816115 0.722321 -0.449612
H17   H     H_    0.721257 0.850142 0.669658 0.354176
S18   S     S_3+6 0.327571 0.792641 0.295147 0.177752
O108  O     O_2   0.318999 0.714652 0.263600 -0.090276
O109  O     O_2   0.382086 0.796649 0.400681 -0.202166
O110  O     O_3   0.264663 0.816057 0.277949 -0.449789
H18   H     H_    0.278834 0.850166 0.330589 0.353731
S19   S     S_3+6 0.173473 0.292486 0.703158 0.177043
O111  O     O_2   0.182215 0.214265 0.733915 -0.091390
O112  O     O_2   0.119164 0.296901 0.597556 -0.201966
O113  O     O_3   0.236516 0.316726 0.721202 -0.450432
H19   H     H_    0.222374 0.350970 0.668738 0.354939
S20   S     S_3+6 0.827439 0.292727 0.294779 0.173507
O114  O     O_2   0.819110 0.214728 0.263391 -0.095299
O115  O     O_2   0.881784 0.296868 0.400387 -0.202796
O116  O     O_3   0.764317 0.315940 0.277058 -0.452742
H20   H     H_    0.778269 0.350140 0.329508 0.353851
N5    N     N_R   0.714112 0.031879 0.896444 0.185218
O117  O     O_R   0.690143 0.084138 0.833486 -0.292550
O118  O     O_R   0.761748 0.045464 0.985494 -0.192417
N6    N     N_R   0.285882 0.031474 0.103654 0.186928
O119  O     O_R   0.309949 0.083835 0.166550 -0.288633
O120  O     O_R   0.238194 0.044967 0.014624 -0.189429
N7    N     N_R   0.213827 0.529701 0.896412 0.186213
O121  O     O_R   0.189900 0.582470 0.834159 -0.289006
O122  O     O_R   0.261460 0.542722 0.985650 -0.190781
N8    N     N_R   0.785738 0.531524 0.103211 0.182169
O123  O     O_R   0.809674 0.583831 0.166165 -0.291585
O124  O     O_R   0.738184 0.545089 0.014117 -0.184626
N9    N     N_R   0.679024 0.965374 0.990094 0.203539
O125  O     O_R   0.727558 0.949371 0.077590 -0.217734
O126  O     O_R   0.653951 0.029023 0.973710 -0.285403
N10   N     N_R   0.321003 0.964837 0.010060 0.203185
O127  O     O_R   0.272493 0.948725 0.922571 -0.218041
O128  O     O_R   0.346019 0.028506 0.026400 -0.277854
N11   N     N_R   0.178793 0.461255 0.989116 0.204123
O129  O     O_R   0.226874 0.443717 0.076292 -0.220443
O130  O     O_R   0.154490 0.525201 0.974334 -0.276485
N12   N     N_R   0.820682 0.464594 0.009432 0.198394
O131  O     O_R   0.772181 0.448359 0.921988 -0.206871
O132  O     O_R   0.845695 0.528238 0.025593 -0.281882
S21   S     S_3+6 0.825149 0.891128 0.935636 0.098476
O133  O     O_2   0.874815 0.854304 0.943800 -0.264986
O134  O     O_2   0.853859 0.935427 0.024885 -0.227718
O135  O     O_3   0.783079 0.824551 0.930640 -0.456977
H21   H     H_    0.784137 0.833820 0.984778 0.379253
S22   S     S_3+6 0.174841 0.890776 0.064531 0.098224
O136  O     O_2   0.125180 0.854072 0.056429 -0.266950
O137  O     O_2   0.146121 0.934926 0.975227 -0.225779
O138  O     O_3   0.216910 0.824102 0.069599 -0.457066
H22   H     H_    0.215963 0.833333 0.015579 0.378971
S23   S     S_3+6 0.325236 0.390515 0.934855 0.098168
O139  O     O_2   0.374853 0.353961 0.942670 -0.265316
O140  O     O_2   0.354014 0.434435 0.024404 -0.227564
O141  O     O_3   0.283238 0.323682 0.929605 -0.459066
H23   H     H_    0.284320 0.332659 0.983817 0.378660
S24   S     S_3+6 0.674833 0.391155 0.064252 0.084992
O142  O     O_2   0.625416 0.354125 0.056575 -0.296710
O143  O     O_2   0.646276 0.435371 0.975126 -0.212537
O144  O     O_3   0.717169 0.325282 0.068935 -0.486482
H24   H     H_    0.688864 0.299379 0.006712 0.407128
N13   N     N_R   0.680726 0.072176 0.571399 0.127652
O145  O     O_R   0.680307 0.143032 0.567775 -0.272608
O146  O     O_R   0.646451 0.034948 0.491905 -0.346777
N14   N     N_R   0.319219 0.072541 0.428384 0.127744
O147  O     O_R   0.319787 0.143415 0.431814 -0.273910
O148  O     O_R   0.353459 0.035491 0.507982 -0.346408
N15   N     N_R   0.180793 0.572963 0.571742 0.127567
O149  O     O_R   0.180143 0.643845 0.568574 -0.272206
O150  O     O_R   0.146591 0.536016 0.492010 -0.346728
N16   N     N_R   0.819270 0.572389 0.428544 0.127707
O151  O     O_R   0.819943 0.643259 0.432119 -0.272979
O152  O     O_R   0.853450 0.535239 0.508063 -0.346001
N17   N     N_R   0.813066 0.978909 0.620488 0.193003
O153  O     O_R   0.763016 0.943286 0.583439 -0.296320
O154  O     O_R   0.860313 0.943724 0.643957 -0.249388
N18   N     N_R   0.186431 0.981211 0.379513 0.192938
O155  O     O_R   0.236341 0.945127 0.416826 -0.295052
O156  O     O_R   0.139070 0.946622 0.356401 -0.249175
N19   N     N_R   0.313580 0.480424 0.620862 0.193141
O157  O     O_R   0.263421 0.444718 0.582926 -0.297189
O158  O     O_R   0.361024 0.445403 0.644831 -0.249940
N20   N     N_R   0.686484 0.480134 0.379211 0.192900
O159  O     O_R   0.736570 0.444352 0.416826 -0.295734
O160  O     O_R   0.639057 0.445165 0.355329 -0.249308
S25   S     S_3+6 0.827360 0.070279 0.499151 0.179778
O161  O     O_2   0.889832 0.045281 0.539863 -0.136255
O162  O     O_2   0.784119 0.006687 0.449810 -0.194593
O163  O     O_3   0.802493 0.134647 0.415669 -0.373282
H25   H     H_    0.760232 0.145788 0.388361 0.369844
S26   S     S_3+6 0.172047 0.074741 0.499466 0.180078
O164  O     O_2   0.109429 0.050411 0.458719 -0.136900
O165  O     O_2   0.215066 0.011033 0.549644 -0.194087
O166  O     O_3   0.196971 0.139910 0.582157 -0.371958
H26   H     H_    0.239262 0.150720 0.609397 0.370524
S27   S     S_3+6 0.328902 0.572619 0.501241 0.180053
O167  O     O_2   0.391676 0.548045 0.542976 -0.137682
O168  O     O_2   0.285918 0.508861 0.451228 -0.192423
O169  O     O_3   0.304394 0.637211 0.418160 -0.372369
H27   H     H_    0.261954 0.648094 0.390167 0.370443
S28   S     S_3+6 0.671226 0.572403 0.498988 0.180296
O170  O     O_2   0.608488 0.547748 0.457312 -0.136988
O171  O     O_2   0.714281 0.508709 0.548987 -0.193359
O172  O     O_3   0.695692 0.637060 0.582061 -0.372229
H28   H     H_    0.738111 0.648003 0.610008 0.370433

loop_
_geom_bond_atom_site_label_1
_geom_bond_atom_site_label_2
_geom_bond_distance
_ccdc_geom_bond_type
S15   O100  1.501902 D    
Cu11  Cu12  2.701762 S    
C67   C71   1.423957 A    
N9    O126  1.300590 A    
S11   O79   1.500199 D    
S25   O163  1.681546 S    
C29   S1    1.791728 S    
C62   S26   1.789106 S    
S11   O81   1.682679 S    
N11   O130  1.300554 A    
S7    O68   1.501683 D    
S4    O60   1.682982 S    
C59   C79   1.407367 A    
C30   S2    1.791683 S    
C26   N10   1.432835 S    
C4    C84   1.426438 S    
C31   S3    1.791515 S    
O35   C98   1.298288 A    
C75   C79   1.406219 A    
S14   O97   1.501931 D    
C9    C13   1.428885 A    
S26   O166  1.681537 S    
C58   N18   1.437650 S    
O43   C101  1.297636 A    
C12   C32   1.432100 A    
C34   C54   1.412800 A    
O17   Cu5   1.951097 S    
N7    O121  1.300767 A    
S24   O142  1.500964 D    
C50   C54   1.413246 A    
N4    O92   1.299427 A    
C33   S21   1.803766 S    
O4    C4    1.286000 A    
N13   O145  1.300693 A    
O25   Cu6   1.986976 S    
S14   O98   1.682044 S    
S1    O50   1.503125 D    
C15   S19   1.802009 S    
S13   O93   1.498271 D    
Cu8   O32   1.951420 S    
C68   S8    1.788581 S    
C21   N5    1.439069 S    
S28   O171  1.503736 D    
S12   O82   1.500237 D    
S25   O162  1.503741 D    
O48   C104  1.298248 A    
S9    O74   1.501638 D    
C85   C99   1.426672 S    
O21   C91   1.290318 A    
O60   H4    0.990606 S    
O46   C103  1.298352 A    
C104  C108  1.422394 S    
C66   C70   1.424434 A    
N15   O150  1.300777 A    
C42   C46   1.400387 A    
O69   H7    0.990618 S    
O16   Cu4   1.981613 S    
S22   O136  1.500419 D    
O54   H2    0.990616 S    
O13   C5    1.294288 A    
O7    Cu4   1.956222 S    
C20   C56   1.485862 S    
O15   C7    1.294401 A    
S3    O55   1.503706 D    
C37   C91   1.469899 S    
O39   Cu11  1.961509 S    
C58   C62   1.414017 A    
O4    Cu2   1.956614 S    
N11   O129  1.301303 A    
O40   C102  1.301492 A    
Cu10  O46   1.951396 S    
C48   C52   1.395930 A    
N12   O131  1.301267 A    
O9    C5    1.277125 A    
C75   N3    1.437304 S    
N14   O147  1.300696 A    
C66   S6    1.788836 S    
Cu7   O31   1.951153 S    
O8    Cu4   1.956487 S    
S18   O109  1.502872 D    
N10   O127  1.301279 A    
O3    Cu2   1.956883 S    
C64   C68   1.425402 A    
O63   H5    0.990569 S    
O34   C97   1.298314 A    
C19   C23   1.403729 A    
C37   C41   1.418231 A    
O25   C91   1.292903 A    
C39   C43   1.418377 A    
C40   C44   1.418166 A    
N5    O118  1.301067 A    
C46   C50   1.395730 A    
S24   O144  1.679529 S    
N20   O159  1.300815 A    
Cu5   O29   1.951153 S    
O3    C3    1.286069 A    
N15   O149  1.300688 A    
C41   C45   1.400447 A    
C28   C32   1.416497 A    
O35   Cu11  1.951421 S    
S5    O61   1.502043 D    
S13   O95   1.682047 S    
Cu9   Cu10  2.701762 S    
C21   C25   1.399085 A    
C14   S18   1.802039 S    
C83   C87   1.200679 T    
O57   H3    0.989869 S    
C23   C27   1.398640 A    
S28   O172  1.681545 S    
C24   C28   1.399253 A    
O18   Cu6   1.950829 S    
S23   O140  1.504216 D    
O44   Cu11  1.953193 S    
C35   C39   1.424670 A    
O27   Cu8   1.986976 S    
O20   C90   1.287987 A    
S2    O52   1.500891 D    
O26   Cu5   1.986972 S    
C9    C29   1.432245 A    
O27   C93   1.292451 A    
C12   C16   1.428724 A    
N7    O122  1.301078 A    
C22   C26   1.398926 A    
O98   H14   0.990549 S    
C110  C111  1.198463 T    
C60   N20   1.437577 S    
C97   C111  1.422789 S    
O135  H21   0.990562 S    
O33   Cu9   1.951421 S    
S4    O59   1.503094 D    
Cu11  O47   1.951411 S    
C43   C79   1.487143 S    
O36   Cu12  1.951436 S    
O5    Cu3   1.956222 S    
S10   O77   1.501691 D    
C23   N7    1.439086 S    
C57   C77   1.407016 A    
O42   Cu9   1.953193 S    
C19   C55   1.484546 S    
O19   C90   1.288097 A    
O23   Cu7   1.977560 S    
O43   Cu12  1.953190 S    
C35   C55   1.412419 A    
S1    O49   1.500907 D    
N13   O146  1.300769 A    
Cu2   Cu4   2.659248 S    
N17   O154  1.301059 A    
C10   C14   1.428998 A    
Cu9   O45   1.951411 S    
O13   Cu3   1.981596 S    
C12   S16   1.792913 S    
S19   O113  1.682273 S    
S20   O114  1.501569 D    
S3    O57   1.681960 S    
C5    C49   1.458046 S    
N6    O120  1.301062 A    
O38   Cu10  1.961509 S    
O41   C99   1.297632 A    
O5    C1    1.287284 A    
O78   H10   0.990642 S    
O37   Cu9   1.961509 S    
O8    C4    1.287357 A    
S5    O63   1.679945 S    
C34   C38   1.425019 A    
N3    O90   1.299388 A    
C87   C101  1.426670 S    
S26   O165  1.503734 D    
O15   Cu4   1.981596 S    
S17   O106  1.502857 D    
C64   S28   1.789063 S    
C96   C110  1.422880 S    
N16   O152  1.300767 A    
S27   O169  1.681543 S    
C73   C77   1.406115 A    
C45   N13   1.438674 S    
C8    C52   1.458054 S    
S10   O78   1.682602 S    
Cu7   Cu8   2.667834 S    
C18   C54   1.485446 S    
O14   C6    1.294452 A    
O42   C100  1.297635 A    
C11   C31   1.433147 A    
S16   O102  1.498330 D    
S6    O65   1.501656 D    
S11   O80   1.501656 D    
O40   Cu12  1.961509 S    
C39   C93   1.469266 S    
O66   H6    0.990635 S    
C11   S15   1.794040 S    
O10   C6    1.277000 A    
O101  H15   0.990546 S    
O38   C100  1.301487 A    
C76   C80   1.406272 A    
C2    C82   1.426433 S    
O37   C99   1.301489 A    
S12   O84   1.682672 S    
C17   C21   1.404225 A    
C70   S10   1.787314 S    
C71   C75   1.411483 A    
C20   C24   1.404317 A    
C47   N15   1.438596 S    
N18   O155  1.300816 A    
S24   O143  1.503231 D    
O81   H11   0.990639 S    
O116  H20   0.988905 S    
O113  H19   0.988909 S    
C24   N8    1.439122 S    
C32   S4    1.791782 S    
O20   Cu8   1.950829 S    
O23   C93   1.290459 A    
C6    C50   1.458143 S    
C61   C65   1.425633 A    
C38   C42   1.417846 A    
C63   C67   1.425360 A    
N3    O89   1.300980 A    
S20   O116  1.682301 S    
C60   C64   1.414226 A    
S12   O83   1.501638 D    
S25   O161  1.502592 D    
O104  H16   0.990548 S    
S9    O73   1.500401 D    
O36   C98   1.298281 A    
C89   C105  1.422361 S    
N8    O123  1.300763 A    
S21   O135  1.681851 S    
C74   C78   1.405804 A    
S22   O137  1.504215 D    
O172  H28   0.990628 S    
C34   S22   1.803585 S    
O169  H27   0.990627 S    
C16   S20   1.801754 S    
O19   Cu7   1.951097 S    
C63   S27   1.789099 S    
S8    O70   1.502338 D    
N12   O132  1.300573 A    
S27   O167  1.502592 D    
C49   C53   1.413137 A    
O28   Cu7   1.986972 S    
S22   O138  1.681848 S    
O141  H23   0.990556 S    
C10   C30   1.432354 A    
S15   O101  1.682020 S    
S18   O110  1.682310 S    
C61   S25   1.789328 S    
S16   O104  1.682048 S    
C67   S7    1.788610 S    
N10   O128  1.300579 A    
C70   C74   1.411316 A    
O12   Cu2   1.982060 S    
S7    O69   1.679882 S    
C27   N11   1.432803 S    
C7    C51   1.458589 S    
O1    C1    1.286070 A    
N19   O157  1.300778 A    
C65   C69   1.424851 A    
C27   C31   1.416640 A    
C73   N1    1.437230 S    
S14   O96   1.498247 D    
C62   C66   1.425518 A    
C69   C73   1.411994 A    
C13   C17   1.421424 A    
C36   C40   1.425127 A    
C13   S17   1.801995 S    
C25   N9    1.432838 S    
C15   C19   1.421116 A    
N5    O117  1.300761 A    
O24   Cu8   1.977558 S    
O72   H8    0.990610 S    
C25   C29   1.416522 A    
N4    O91   1.300968 A    
N20   O160  1.301061 A    
O41   Cu10  1.953190 S    
S13   O94   1.501931 D    
C11   C15   1.428922 A    
C71   S11   1.787660 S    
Cu5   Cu6   2.667834 S    
C44   C48   1.400467 A    
C84   C88   1.200676 T    
O47   C104  1.298441 A    
O95   H13   0.990548 S    
C69   S9    1.788187 S    
S9    O75   1.682680 S    
O33   C97   1.298255 A    
C33   C37   1.425203 A    
O22   C92   1.290156 A    
C9    S13   1.792977 S    
C41   C77   1.487060 S    
N14   O148  1.300772 A    
O6    C2    1.287386 A    
S2    O53   1.503144 D    
S28   O170  1.502591 D    
C28   N12   1.432849 S    
C57   N17   1.437625 S    
O144  H24   0.990406 S    
C59   C63   1.414234 A    
S8    O72   1.679843 S    
C45   C49   1.395840 A    
C59   N19   1.437478 S    
N2    O88   1.299604 A    
O2    Cu1   1.956614 S    
C47   C51   1.395829 A    
C95   C109  1.422874 S    
O10   Cu1   1.982060 S    
S2    O54   1.683040 S    
S23   O139  1.500353 D    
C44   C80   1.487089 S    
O107  H17   0.988884 S    
C72   S12   1.787737 S    
S18   O108  1.501567 D    
N8    O124  1.301071 A    
S7    O67   1.502338 D    
C36   C56   1.412784 A    
N9    O125  1.301274 A    
C72   C76   1.411463 A    
C52   C56   1.413172 A    
C46   N14   1.438670 S    
S21   O133  1.500444 D    
N2    O87   1.300983 A    
O7    C3    1.287286 A    
S19   O112  1.502873 D    
S20   O115  1.502823 D    
C18   C22   1.404124 A    
O29   C95   1.288266 A    
S3    O56   1.500834 D    
O21   Cu5   1.977560 S    
C42   C78   1.486491 S    
O16   C8    1.294332 A    
S5    O62   1.501678 D    
C58   C78   1.407097 A    
O31   C96   1.288298 A    
S6    O64   1.502191 D    
C57   C61   1.413868 A    
S17   O105  1.501562 D    
O17   C89   1.287321 A    
O39   C101  1.301489 A    
O11   C7    1.277194 A    
S23   O141  1.681878 S    
O12   C8    1.277104 A    
C60   C80   1.407325 A    
O1    Cu1   1.956883 S    
S27   O168  1.503724 D    
O9    Cu1   1.982070 S    
S26   O164  1.502597 D    
Cu6   O30   1.951420 S    
C90   C106  1.422386 S    
C81   C85   1.200678 T    
C43   C47   1.400621 A    
C68   C72   1.424012 A    
C16   C20   1.421477 A    
O75   H9    0.990645 S    
S16   O103  1.501949 D    
O11   Cu2   1.982070 S    
O32   C96   1.288345 A    
C10   S14   1.793027 S    
S4    O58   1.500924 D    
O28   C94   1.292907 A    
C103  C107  1.422288 S    
N19   O158  1.301060 A    
O6    Cu3   1.956487 S    
S6    O66   1.679839 S    
O110  H18   0.988900 S    
C88   C102  1.426680 S    
N1    O86   1.299358 A    
O18   C89   1.288737 A    
C76   N4    1.437311 S    
C1    C81   1.426438 S    
O51   H1    0.990618 S    
S19   O111  1.501742 D    
N18   O156  1.301065 A    
C105  C108  1.198240 T    
O22   Cu6   1.977558 S    
C106  C107  1.198208 T    
C109  C112  1.198465 T    
O45   C103  1.298357 A    
C86   C100  1.426673 S    
S15   O99   1.497780 D    
O2    C2    1.285971 A    
C98   C112  1.422790 S    
N1    O85   1.300981 A    
S1    O51   1.683025 S    
O34   Cu10  1.951436 S    
C17   C53   1.485539 S    
C14   C18   1.421385 A    
C33   C53   1.412717 A    
O14   Cu3   1.981613 S    
C35   S23   1.804108 S    
Cu1   Cu3   2.659248 S    
O166  H26   0.990622 S    
C26   C30   1.416495 A    
C38   C92   1.469815 S    
N6    O119  1.300747 A    
C40   C94   1.469799 S    
C48   N16   1.438615 S    
C51   C55   1.413086 A    
C74   N2    1.437196 S    
S10   O76   1.499765 D    
S21   O134  1.504226 D    
O30   C95   1.288378 A    
O163  H25   0.990629 S    
C82   C86   1.200677 T    
C65   S5    1.788885 S    
O138  H22   0.990550 S    
S17   O107  1.682305 S    
Cu12  O48   1.951396 S    
S8    O71   1.501685 D    
N16   O151  1.300695 A    
O44   C102  1.297617 A    
O84   H12   0.990650 S    
N17   O153  1.300786 A    
C3    C83   1.426435 S    
O24   C94   1.290263 A    
C36   S24   1.803548 S    
C22   N6    1.438993 S    
O26   C92   1.292995 A    
