data_mof_unit_10441.cif
_audit_creation_date              2012-12-11T14:17:30-0500
_audit_creation_method            fapswitch 2.2
_symmetry_space_group_name_H-M    P1
_symmetry_Int_Tables_number       1
_space_group_crystal_system       triclinic
_cell_length_a                    6.948811
_cell_length_b                    13.689683
_cell_length_c                    20.485182
_cell_angle_alpha                 102.547975
_cell_angle_beta                  89.926887
_cell_angle_gamma                 90.83918
_cell_volume                      1901.94100431

loop_
_atom_site_label
_atom_site_type_symbol
_atom_type_description
_atom_site_fract_x
_atom_site_fract_y
_atom_site_fract_z
_atom_type_partial_charge
O1    O     O_R   0.506860 0.599390 0.449240 -0.539217
O2    O     O_R   0.180220 0.594600 0.586780 -0.500208
O3    O     O_R   0.004500 0.400610 0.550760 -0.549123
C1    C     C_R   0.348490 0.614218 0.614123 0.886496
O4    O     O_R   0.177490 0.611290 0.451970 -0.546482
O5    O     O_R   0.001750 0.417420 0.414990 -0.558251
C2    C     C_R   0.347396 0.637271 0.435256 0.758281
O6    O     O_R   0.509610 0.582580 0.585010 -0.522344
O7    O     O_3   0.337420 0.436370 0.488020 -0.404065
V1    V     V_3+5 0.064680 0.511800 0.502220 1.588766
O8    O     O_R   0.671710 0.405400 0.413220 -0.559270
C3    C     C_R   0.838869 0.386700 0.385850 0.690699
O9    O     O_R   0.674440 0.388710 0.548030 -0.538080
C4    C     C_R   0.842566 0.362967 0.565109 0.828208
V2    V     V_3+5 0.564010 0.488200 0.497780 1.545365
O10   O     O_3   0.841140 0.563630 0.511980 -0.350815
C5    C     C_R   0.892614 0.109547 0.606630 0.720745
H1    H     H_    0.882583 0.982735 0.685741 0.216387
C6    C     C_R   0.852012 0.282906 0.602068 -0.316589
C7    C     C_R   0.880981 0.313122 0.925233 -0.067546
C8    C     C_R   0.907783 0.387396 0.887903 -0.121978
C9    C     C_R   0.910860 0.359746 0.818113 -0.044310
C10   C     C_R   0.877233 0.260487 0.782858 0.104878
C11   C     C_R   0.868539 0.182796 0.819710 -0.033958
C12   C     C_R   0.865175 0.236467 0.711183 -0.106577
C13   C     C_R   0.879060 0.135510 0.676882 -0.137756
C14   C     C_R   0.876585 0.060256 0.712639 -0.037343
C15   C     C_R   0.863985 0.081115 0.782263 -0.124309
C16   C     C_R   0.835754 0.308680 0.671961 0.564677
C17   C     C_R   0.886289 0.183387 0.568755 -0.248106
C18   C     C_R   0.866711 0.210865 0.891676 -0.101747
H2    H     H_    0.948194 0.417371 0.791810 0.234199
C19   C     C_2   0.994715 0.301460 0.279634 -0.055407
C20   C     C_2   0.836604 0.325034 0.317142 -0.228561
H3    H     H_    0.133914 0.332088 0.298467 0.123122
H4    H     H_    0.696526 0.300685 0.295535 0.148642
C21   C     C_2   0.983076 0.244495 0.209025 -0.052320
C22   C     C_2   0.870354 0.162343 0.185949 -0.147471
H5    H     H_    0.074600 0.272204 0.173761 0.129432
C23   C     C_2   0.201281 0.769594 0.789481 0.571984
C24   C     C_2   0.361621 0.810633 0.821584 -0.438096
H6    H     H_    0.501058 0.789618 0.800148 0.182050
C25   C     C_2   0.201192 0.701040 0.721931 0.585649
C26   C     C_2   0.357873 0.680518 0.681781 -0.451731
H7    H     H_    0.498071 0.712006 0.697943 0.157264
C27   C     C_R   0.439234 0.885851 0.391279 -0.136818
H8    H     H_    0.371532 0.016272 0.312941 0.153051
C28   C     C_R   0.361952 0.713670 0.395572 -0.259067
C29   C     C_R   0.379820 0.691280 0.075569 0.629703
C30   C     C_R   0.404878 0.617098 0.111200 -0.196795
C31   C     C_R   0.402672 0.640638 0.180624 -0.171148
C32   C     C_R   0.363882 0.738676 0.216609 0.149538
C33   C     C_R   0.345994 0.816424 0.180730 -0.113058
C34   C     C_R   0.358297 0.762430 0.287987 0.100975
C35   C     C_R   0.396188 0.862904 0.321868 -0.089824
C36   C     C_R   0.374844 0.938765 0.286477 -0.108917
C37   C     C_R   0.330340 0.916359 0.218405 -0.044813
C38   C     C_R   0.316066 0.690568 0.326971 -0.155747
C39   C     C_R   0.429289 0.809057 0.426683 0.676106
C40   C     C_R   0.355397 0.791064 0.109157 -0.226680
H9    H     H_    0.439278 0.581664 0.205716 0.140748
H10   H     H_    0.432436 0.541076 0.084844 0.160077
O11   O     O_R   0.203230 0.917310 0.915020 -0.525132
O12   O     O_R   0.535500 0.888690 0.048040 -0.540397
O13   O     O_R   0.711080 0.082610 0.085000 -0.538041
C41   C     C_R   0.366446 0.866657 0.068178 0.763423
O14   O     O_R   0.532630 0.905370 0.913230 -0.523031
O15   O     O_R   0.708190 0.099410 0.949230 -0.528287
C42   C     C_R   0.363726 0.881916 0.887331 0.867836
O16   O     O_R   0.206120 0.900510 0.050790 -0.553477
O17   O     O_3   0.375360 0.063570 0.011990 -0.381611
V3    V     V_3+5 0.648170 0.988200 0.997780 1.591563
O18   O     O_R   0.038240 0.111390 0.951940 -0.563404
C43   C     C_R   0.870596 0.135579 0.933315 0.716757
O19   O     O_R   0.041120 0.094710 0.086750 -0.540056
C44   C     C_R   0.873584 0.113504 0.114075 0.678541
V4    V     V_3+5 0.148810 0.011930 0.002180 1.530096
O20   O     O_3   0.871750 0.936430 0.988010 -0.361894
C45   C     C_2   0.910207 0.156613 0.494662 0.567584
H11   H     H_    0.884574 0.211456 0.464708 -0.025175
O21   O     O_2   0.960782 0.073276 0.465919 -0.465026
C46   C     C_2   0.768690 0.105018 0.229974 0.379955
H12   H     H_    0.664171 0.047844 0.208162 0.075763
O22   O     O_2   0.810463 0.114258 0.288882 -0.522277
F1    F     F_    0.027643 0.787862 0.819996 -0.596295
F2    F     F_    0.027878 0.658394 0.700507 -0.590330
F3    F     F_    0.479143 0.827395 0.492475 -0.615026
C47   C     C_2   0.502987 0.988029 0.426679 0.592634
H13   H     H_    0.568569 0.039327 0.399340 0.025927
O23   O     O_2   0.483926 0.016206 0.487089 -0.455049
C48   C     C_2   0.202386 0.597354 0.299863 0.394098
H14   H     H_    0.225479 0.530091 0.318518 0.011015
O24   O     O_2   0.076217 0.596215 0.258238 -0.522350
F4    F     F_    0.389709 0.666531 0.007737 -0.668323
C49   C     C_2   0.242237 0.996778 0.191885 0.365924
H15   H     H_    0.113995 0.979783 0.161698 0.054662
O25   O     O_2   0.303771 0.082736 0.206882 -0.545461
F5    F     F_    0.911937 0.011855 0.575220 -0.595183
F6    F     F_    0.776531 0.402716 0.699655 -0.666255
C50   C     C_2   0.880286 0.342286 0.999776 0.327452
H16   H     H_    0.978859 0.399739 0.025887 0.048794
O26   O     O_2   0.767541 0.303511 0.032648 -0.529091
C51   C     C_2   0.928675 0.495568 0.920811 0.514985
H17   H     H_    0.899899 0.521877 0.973645 0.037107
O27   O     O_2   0.976613 0.557635 0.888904 -0.463679
C52   C     C_2   0.853136 0.991215 0.810983 0.418728
H18   H     H_    0.950349 0.981376 0.849760 0.092016
O28   O     O_2   0.740929 0.923246 0.787780 -0.502528

loop_
_geom_bond_atom_site_label_1
_geom_bond_atom_site_label_2
_ccdc_geom_bond_type
C35   C36   A    
C27   C39   A    
C24   H6    S    
C49   H15   S    
C31   H9    S    
C1    O6    A    
C22   C44   S    
V4    O20   S    
C32   C33   A    
C13   C14   A    
C29   C40   A    
C9    H2    S    
C5    C13   A    
O11   V4    S    
C52   H18   S    
O15   C43   A    
V2    O10   S    
C36   C37   A    
O14   V3    S    
O18   C43   A    
C5    F5    S    
V3    O20   S    
O8    V2    S    
C23   C25   S    
O11   C42   A    
C15   C52   S    
C27   C35   A    
O13   C44   A    
C10   C11   A    
O1    V2    S    
C29   F4    S    
C38   C48   S    
O12   V3    S    
C40   C41   S    
C8    C9    A    
C22   C46   S    
O16   V4    S    
C5    C17   A    
C33   C40   A    
C32   C34   A    
C30   C31   A    
C27   C47   S    
C12   C16   A    
C16   F6    S    
C31   C32   A    
C48   H14   S    
C45   O21   D    
C33   C37   A    
C18   C43   S    
C1    C26   S    
C12   C13   A    
C19   C21   S    
O14   C42   A    
O12   C41   A    
C23   F1    S    
O2    C1    A    
O19   C44   A    
C21   C22   D    
C48   O24   D    
O4    C2    A    
C7    C50   S    
O15   V3    S    
C50   O26   D    
C19   C20   D    
C51   O27   D    
C47   H13   S    
O19   V4    S    
O3    C4    A    
C17   C45   S    
C23   C24   D    
C47   O23   D    
C46   H12   S    
O6    V2    S    
C46   O22   D    
O9    V2    S    
C25   C26   D    
C30   H10   S    
C3    C20   S    
C6    C16   A    
O17   V4    S    
C26   H7    S    
C28   C39   A    
C24   C42   S    
O7    V1    S    
C34   C35   A    
O1    C2    A    
C25   F2    S    
C4    C6    S    
H1    C14   S    
C11   C15   A    
O5    V1    S    
O8    C3    A    
C49   O25   D    
C28   C38   A    
O13   V3    S    
C2    C28   S    
O7    V2    S    
C11   C18   A    
O17   V3    S    
C21   H5    S    
O3    V1    S    
V1    O10   S    
O5    C3    A    
C41   O16   A    
C52   O28   D    
C50   H16   S    
C19   H3    S    
C20   H4    S    
C10   C12   A    
C39   F3    S    
C45   H11   S    
C8    C51   S    
O4    V1    S    
C34   C38   A    
C7    C8    A    
C29   C30   A    
C37   C49   S    
C51   H17   S    
O18   V4    S    
C9    C10   A    
O9    C4    A    
C6    C17   A    
H8    C36   S    
C14   C15   A    
C7    C18   A    
O2    V1    S    
