data_mof_unit_64383.cif
_audit_creation_date              2012-12-10T17:22:07-0500
_audit_creation_method            fapswitch 2.2
_symmetry_space_group_name_H-M    P1
_symmetry_Int_Tables_number       1
_space_group_crystal_system       triclinic
_cell_length_a                    10.227151
_cell_length_b                    10.362528
_cell_length_c                    15.735817
_cell_angle_alpha                 90.906967
_cell_angle_beta                  82.24811
_cell_angle_gamma                 94.529679
_cell_volume                      1647.24437536

loop_
_atom_site_label
_atom_site_type_symbol
_atom_type_description
_atom_site_fract_x
_atom_site_fract_y
_atom_site_fract_z
_atom_type_partial_charge
Br1   Br    Br    0.537712 0.788159 0.081008 -0.169670
Br2   Br    Br    0.735965 0.692688 0.901067 -0.136037
Br3   Br    Br    0.776597 0.615496 0.091611 -0.163281
Br4   Br    Br    0.732463 0.340183 0.061241 -0.106507
Br5   Br    Br    0.223885 0.368198 0.101591 -0.140268
Br6   Br    Br    0.272783 0.669826 0.131893 -0.146952
Br7   Br    Br    0.442662 0.210762 0.113142 -0.149863
Br8   Br    Br    0.591830 0.159754 0.326556 -0.277227
Br9   Br    Br    0.400376 0.832459 0.344736 -0.268378
Br10  Br    Br    0.702816 0.971574 0.534662 -0.235823
Br11  Br    Br    0.072965 0.284560 0.531356 -0.231328
Br12  Br    Br    0.444798 0.777901 0.894666 -0.141995
Br13  Br    Br    0.913311 0.364225 0.364653 -0.187695
C1    C     C_R   0.553985 0.735079 0.490716 0.889747
C2    C     C_2   0.502308 0.928412 0.422419 0.227072
C3    C     C_2   0.421003 0.126215 0.488849 0.169162
C4    C     C_R   0.500962 0.500071 0.661282 0.899267
C5    C     C_2   0.494123 0.067738 0.423375 0.166019
C6    C     C_2   0.921378 0.503273 0.517144 0.438685
C7    C     C_2   0.059945 0.467012 0.519912 0.286480
C8    C     C_R   0.445866 0.264723 0.501428 0.867677
C9    C     C_R   0.498932 0.499540 0.338737 0.873099
C10   C     C_3   0.414865 0.612989 0.958336 0.403694
C11   C     C_3   0.650594 0.522542 0.938474 0.413300
C12   C     C_3   0.434416 0.626806 0.056476 0.329526
C13   C     C_3   0.648634 0.498442 0.038115 0.327426
C14   C     C_1   0.496703 0.499093 0.250381 0.004925
C15   C     C_3   0.501579 0.499586 0.916628 -0.404614
C16   C     C_3   0.497940 0.498947 0.083695 -0.384120
C17   C     C_3   0.413014 0.371926 0.055388 0.324662
C18   C     C_3   0.436825 0.362038 0.953778 0.532863
C19   C     C_1   0.496342 0.498810 0.175249 0.210026
C20   C     C_1   0.503115 0.499871 0.824871 0.257576
C21   C     C_1   0.502974 0.499913 0.749700 0.014862
C22   C     C_2   0.578493 0.872701 0.473128 0.039090
Cl1   Cl    Cl    0.242719 0.582869 0.945164 -0.313963
Cl2   Cl    Cl    0.313774 0.037676 0.568298 -0.376009
Cl3   Cl    Cl    0.858621 0.607327 0.599954 -0.393072
Cl4   Cl    Cl    0.137871 0.713128 0.516900 -0.291756
Cl5   Cl    Cl    0.765594 0.427006 0.871931 -0.305616
Cl6   Cl    Cl    0.289494 0.304679 0.908071 -0.296421
Cl7   Cl    Cl    0.536674 0.231180 0.917219 -0.311447
N1    N     N_2   0.842720 0.448890 0.465540 -0.030842
N2    N     N_2   0.157250 0.551040 0.534500 0.044847
O1    O     O_R   0.431050 0.692470 0.506940 -0.552040
O2    O     O_R   0.651130 0.659650 0.484820 -0.562192
O3    O     O_R   0.389910 0.516410 0.633920 -0.571015
O4    O     O_R   0.609990 0.483590 0.611800 -0.566455
O5    O     O_R   0.348870 0.340350 0.515180 -0.569759
O6    O     O_R   0.568950 0.307530 0.493060 -0.584759
O7    O     O_R   0.390010 0.516410 0.388200 -0.589207
O8    O     O_R   0.610090 0.483590 0.366080 -0.567627
Zn1   Zn    Zn3+2 0.353060 0.521920 0.514770 1.161083
Zn2   Zn    Zn3+2 0.646940 0.478080 0.485230 1.144853

loop_
_geom_bond_atom_site_label_1
_geom_bond_atom_site_label_2
_ccdc_geom_bond_type
C2    C5    S    
O4    Zn2   S    
C15   C18   S    
C3    C8    S    
C18   Cl7   S    
C16   C19   S    
C16   C17   S    
N1    Zn2   S    
Br4   C13   S    
C6    C7    S    
C4    O4    A    
C3    Cl2   S    
O3    Zn1   S    
C7    N2    D    
O2    Zn2   S    
C8    O5    A    
C20   C21   T    
Br9   C2    S    
O1    Zn1   S    
C1    O2    A    
Br7   C17   S    
C10   C15   S    
Br1   C12   S    
Br12  C10   S    
O6    Zn2   S    
O5    Zn1   S    
C2    C22   D    
C8    O6    A    
C11   Cl5   S    
O8    Zn2   S    
C15   C20   S    
Br5   C17   S    
C1    O1    A    
C9    C14   S    
C10   C12   S    
C12   C16   S    
C17   C18   S    
C11   C13   S    
Br10  C22   S    
Br11  C7    S    
Br6   C12   S    
C4    C21   S    
Cl4   N2    S    
C11   C15   S    
Br13  N1    S    
C6    Cl3   S    
C13   C16   S    
C3    C5    D    
C10   Cl1   S    
C1    C22   S    
Br2   C11   S    
C18   Cl6   S    
C9    O8    A    
C14   C19   T    
N2    Zn1   S    
Br3   C13   S    
Br8   C5    S    
C4    O3    A    
C6    N1    D    
C9    O7    A    
O7    Zn1   S    
