data_mof_unit_67121.cif
_audit_creation_date              2013-03-05T15:58:41-0500
_audit_creation_method            fapswitch 2.2
_symmetry_space_group_name_H-M    P1
_symmetry_Int_Tables_number       1
_space_group_crystal_system       triclinic
_cell_length_a                    8.330868
_cell_length_b                    12.860324
_cell_length_c                    14.974765
_cell_angle_alpha                 97.493043
_cell_angle_beta                  97.457911
_cell_angle_gamma                 98.835824
_cell_volume                      1553.29422665

loop_
_atom_site_label
_atom_site_type_symbol
_atom_site_description
_atom_site_fract_x
_atom_site_fract_y
_atom_site_fract_z
_atom_type_partial_charge
P1    P     P_3+3 0.998770 0.403620 0.291990 0.559704
O1    O     O_2   0.827930 0.435360 0.277760 -0.343360
O2    O     O_3   0.100310 0.439010 0.391180 -0.314825
O3    O     O_3   0.625610 0.634200 0.333270 -0.297537
O4    O     O_2   0.689001 0.547338 0.173085 -0.368063
O5    O     O_3   0.939958 0.265084 0.271140 -0.593579
O6    O     O_3   0.646757 0.745137 0.184317 -0.543955
H1    H     H_    0.705073 0.840429 0.310028 0.137779
C1    C     C_3   0.608061 0.924908 0.206530 -1.076051
H2    H     H_    0.584171 0.989215 0.257535 0.237767
H3    H     H_    0.727233 0.948876 0.183010 0.286931
P2    P     P_3+3 0.687370 0.751000 0.571300 0.489443
P3    P     P_3+3 0.107801 0.827820 0.381996 0.501996
O7    O     O_2   0.857120 0.766320 0.543890 -0.315821
O8    O     O_3   0.056570 0.691100 0.379020 -0.308533
O9    O     O_2   0.994431 0.878989 0.441779 -0.351768
O10   O     O_3   0.734800 0.784137 0.689716 -0.563472
O11   O     O_3   0.035051 0.852485 0.273390 -0.545137
C2    C     C_3   0.140605 0.823643 0.212045 0.237822
H4    H     H_    0.164670 0.741378 0.215109 0.070819
H5    H     H_    0.259704 0.879230 0.229975 0.040423
C3    C     C_3   0.059220 0.831990 0.115017 0.155492
H6    H     H_    0.981797 0.894966 0.119978 0.207048
C4    C     C_3   0.320211 0.791925 0.689989 0.855364
H7    H     H_    0.374941 0.741034 0.641011 0.010860
C5    C     C_3   0.454408 0.865514 0.757557 -0.815357
H8    H     H_    0.526284 0.817851 0.798533 0.239502
H9    H     H_    0.536426 0.916163 0.721491 0.246754
H10   H     H_    0.398173 0.917578 0.804995 0.254371
Ba1   Ba    Ba6+2 0.843760 0.550230 0.455610 1.689408
C6    C     C_3   0.964531 0.219214 0.350908 0.382113
H11   H     H_    0.854108 0.217011 0.384624 -0.021707
H12   H     H_    0.070226 0.262140 0.400562 0.162090
C7    C     C_3   0.995501 0.106006 0.325721 -0.414484
H13   H     H_    0.877153 0.050437 0.309865 0.189821
H14   H     H_    0.064969 0.082142 0.385544 0.211066
C8    C     C_3   0.788541 0.699599 0.727684 0.430735
H15   H     H_    0.884225 0.670003 0.691583 0.119956
H16   H     H_    0.683364 0.634085 0.724866 0.092449
C9    C     C_3   0.862315 0.740303 0.826767 -0.946572
H17   H     H_    0.970534 0.803820 0.830321 0.297082
H18   H     H_    0.901354 0.675104 0.860859 0.205395
H19   H     H_    0.770365 0.773406 0.864073 0.268404
P4    P     P_3+3 0.190950 0.596470 0.708020 0.475765
O12   O     O_2   0.361790 0.564680 0.722290 -0.397670
O13   O     O_3   0.089410 0.561080 0.608830 -0.347868
O14   O     O_3   0.564100 0.365890 0.666740 -0.301413
O15   O     O_3   0.217509 0.734775 0.739862 -0.613427
P5    P     P_3+3 0.089801 0.170150 0.619727 0.552087
O16   O     O_3   0.601940 0.368260 0.453780 -0.275778
O17   O     O_3   0.133140 0.308990 0.620990 -0.304865
O18   O     O_2   0.196722 0.119753 0.555328 -0.346814
O19   O     O_3   0.172363 0.143621 0.725961 -0.453192
Ba2   Ba    Ba6+2 0.346080 0.449860 0.544400 1.682025
P6    P     P_3+3 0.578284 0.621116 0.214211 0.529295
C10   C     C_3   0.609474 0.824095 0.248495 0.495508
H20   H     H_    0.486915 0.801516 0.269209 0.004550
H21   H     H_    0.510766 0.910936 0.146551 0.277966
O20   O     O_3   0.587770 0.631830 0.546230 -0.367217
C11   C     C_3   0.537323 0.245440 0.259750 0.896454
H22   H     H_    0.662134 0.279697 0.292993 0.089566
C12   C     C_3   0.545180 0.182972 0.167172 -1.015246
H23   H     H_    0.425558 0.130445 0.139561 0.262124
H24   H     H_    0.573530 0.238178 0.118193 0.247865
H25   H     H_    0.643619 0.134205 0.173323 0.257984
P7    P     P_3+3 0.507672 0.230859 0.428542 0.498676
O21   O     O_2   0.332600 0.233710 0.456170 -0.352320
O22   O     O_3   0.459274 0.177797 0.312428 -0.650599
C13   C     C_3   0.073570 0.175362 0.789769 0.421247
H26   H     H_    0.064267 0.261119 0.791932 0.066634
H27   H     H_    0.949156 0.125508 0.772861 0.080139
C14   C     C_3   0.150760 0.159086 0.883603 -0.843800
H28   H     H_    0.271338 0.212592 0.904672 0.261360
H29   H     H_    0.070054 0.177559 0.934446 0.239124
H30   H     H_    0.168193 0.075024 0.882530 0.263155
P8    P     P_3+3 0.609309 0.383419 0.785592 0.502916
C15   C     C_3   0.645969 0.196406 0.825382 0.234272
H31   H     H_    0.775006 0.238709 0.841437 0.023675
O23   O     O_2   0.502481 0.461341 0.822989 -0.376306
O24   O     O_3   0.530256 0.265339 0.823016 -0.510106
H32   H     H_    0.628497 0.144063 0.758414 0.112126
C16   C     C_3   0.616693 0.128952 0.900134 -0.011699
H33   H     H_    0.488080 0.085951 0.887673 0.156041
H34   H     H_    0.637041 0.181422 0.966930 0.140167
C17   C     C_R   0.356208 0.568517 0.169056 0.109585
H35   H     H_    0.500258 0.647426 0.034649 0.177311
C18   C     C_R   0.106303 0.465401 0.202833 0.227599
C19   C     C_R   0.922752 0.480291 0.766106 -0.434706
C20   C     C_R   0.825874 0.441450 0.827230 0.206259
C21   C     C_R   0.891113 0.449645 0.918773 -0.366829
C22   C     C_R   0.060144 0.487130 0.949950 0.079908
C23   C     C_R   0.154833 0.535509 0.887915 -0.002155
C24   C     C_R   0.132254 0.489473 0.043531 0.028595
C25   C     C_R   0.291409 0.551832 0.075129 -0.081980
C26   C     C_R   0.379456 0.600071 0.013230 -0.157868
C27   C     C_R   0.311997 0.593491 0.922491 -0.091877
C28   C     C_R   0.054238 0.432571 0.107639 0.048606
C29   C     C_R   0.251955 0.539246 0.231159 0.139479
C30   C     C_R   0.085419 0.529308 0.794099 0.244121
H36   H     H_    0.865678 0.482349 0.697860 0.195820
H37   H     H_    0.806132 0.429417 0.964885 0.189422
H38   H     H_    0.384342 0.637813 0.880788 0.162318
C31   C     C_R   0.764303 0.180461 0.546485 0.099581
C32   C     C_R   0.418484 0.813290 0.474172 -0.365045
C33   C     C_R   0.393490 0.985173 0.433368 -0.205659
C34   C     C_R   0.325887 0.879051 0.430907 0.233917
C35   C     C_R   0.580635 0.849427 0.516622 0.204265
C36   C     C_R   0.648190 0.959776 0.523573 -0.056943
C37   C     C_R   0.550918 0.028426 0.482339 -0.065484
C38   C     C_R   0.611267 0.139287 0.493528 0.147746
C39   C     C_R   0.868938 0.113438 0.577756 0.034486
C40   C     C_R   0.808656 0.004114 0.569634 -0.219620
H39   H     H_    0.317939 0.033981 0.400600 0.175635
H40   H     H_    0.888556 0.955478 0.599626 0.240633
H41   H     H_    0.359449 0.735125 0.481299 0.201549
C41   C     C_3   0.089518 0.096401 0.244369 -0.669067
H42   H     H_    0.001908 0.076811 0.179629 0.230021
H43   H     H_    0.171790 0.171884 0.242205 0.288233
H44   H     H_    0.167588 0.035190 0.249242 0.232729
Cl1   Cl    Cl    0.423794 0.347797 0.242766 -0.664300
C42   C     C_3   0.186326 0.864873 0.054098 -1.002449
H45   H     H_    0.256118 0.945717 0.082051 0.245643
H46   H     H_    0.272527 0.807263 0.049183 0.262726
H47   H     H_    0.123974 0.867972 0.984577 0.293038
Cl2   Cl    Cl    0.752792 0.035053 0.905491 -0.723713
Cl3   Cl    Cl    0.315090 0.586480 0.346545 -0.574878
C43   C     C_3   0.939053 0.327589 0.077701 -0.851225
H48   H     H_    0.986121 0.265336 0.112967 0.271808
H49   H     H_    0.814796 0.335493 0.093325 0.251974
H50   H     H_    0.932534 0.296980 0.004733 0.226420
Cl4   Cl    Cl    0.826280 0.318069 0.572674 -0.619259
C44   C     C_3   0.946006 0.727815 0.070432 -0.808543
H51   H     H_    0.015447 0.674031 0.033984 0.233616
H52   H     H_    0.891067 0.686021 0.122054 0.286629
H53   H     H_    0.845116 0.744220 0.021121 0.249979
Cl5   Cl    Cl    0.202731 0.873676 0.632007 -0.620835

loop_
_geom_bond_atom_site_label_1
_geom_bond_atom_site_label_2
_geom_bond_distance
_ccdc_geom_bond_type
P1    C18   1.893360 S    
P7    O22   1.753736 S    
C24   C25   1.427078 A    
C27   H38   1.078493 S    
O2    Ba1   2.942658 S    
C26   C27   1.387976 A    
P8    O23   1.538458 D    
O6    P6    1.744321 S    
C28   C43   1.508973 S    
O19   C13   1.400938 S    
H1    C10   1.111342 S    
C32   C34   1.394136 A    
C16   Cl2   1.781148 S    
C15   H31   1.108379 S    
C41   H42   1.110028 S    
Ba1   Ba2   4.567143 S    
C5    H8    1.107371 S    
O16   Ba2   2.924522 S    
P3    O11   1.746621 S    
O8    Ba1   2.797078 S    
C31   C38   1.398330 A    
C31   C39   1.397212 A    
C2    H5    1.109273 S    
C4    C5    1.516852 S    
O14   P8    1.748018 S    
O11   C2    1.405612 S    
C8    C9    1.521553 S    
C7    H13   1.103493 S    
P4    C30   1.879302 S    
C7    C41   1.533276 S    
C23   C27   1.400636 A    
C36   C37   1.431601 A    
C11   C12   1.523423 S    
P1    O1    1.536255 D    
C13   H27   1.111225 S    
C42   H47   1.109957 S    
C12   H24   1.107723 S    
C17   C29   1.400508 A    
P2    O20   1.598937 S    
C9    H19   1.108764 S    
C39   C40   1.402250 A    
C44   H51   1.103367 S    
P5    O17   1.763578 S    
P2    O10   1.746834 S    
C35   C36   1.429120 A    
C6    H12   1.098458 S    
C1    H2    1.110046 S    
P8    C20   1.836773 S    
P5    C39   1.865599 S    
C18   C29   1.400524 A    
P2    Ba1   3.437742 S    
C4    Cl5   1.775001 S    
C9    H18   1.105331 S    
P7    O21   1.571263 D    
Ba1   O16   2.838376 S    
C13   H26   1.113990 S    
O6    C10   1.403941 S    
O7    Ba1   2.896789 S    
C14   H30   1.111022 S    
C40   H40   1.076826 S    
P4    O13   1.583733 S    
Ba2   O20   2.837744 S    
P1    O5    1.748925 S    
C4    O15   1.394941 S    
C2    C3    1.545854 S    
C4    H7    1.107901 S    
C14   H29   1.105866 S    
C22   C23   1.436161 A    
C14   H28   1.109433 S    
Ba2   O21   2.897070 S    
C36   C40   1.418399 A    
C11   H22   1.091217 S    
P1    O2    1.583732 S    
P6    C17   1.873265 S    
C13   C14   1.521599 S    
C43   H49   1.107089 S    
C21   H37   1.078369 S    
C8    H15   1.106325 S    
C22   C24   1.445840 A    
C32   H41   1.074001 S    
C1    H3    1.108966 S    
C17   C25   1.415773 A    
C6    H11   1.103748 S    
C15   H32   1.111713 S    
P5    O18   1.542984 D    
Ba1   O20   2.925437 S    
O13   Ba2   2.943498 S    
C12   H23   1.110753 S    
C6    C7    1.525086 S    
C1    C10   1.513661 S    
O10   C8    1.396546 S    
P7    C38   1.863285 S    
O16   P7    1.790086 S    
C42   H45   1.109873 S    
C19   H36   1.075168 S    
O14   Ba2   2.841845 S    
C9    H17   1.110337 S    
P2    O7    1.514378 D    
O12   Ba2   2.849195 S    
C16   H34   1.108779 S    
P3    O8    1.737731 S    
O3    P6    1.755365 S    
C10   H20   1.112497 S    
C43   H48   1.107501 S    
O5    C6    1.405046 S    
C24   C28   1.441742 A    
P4    O12   1.536561 D    
C3    C42   1.531702 S    
C15   O24   1.406515 S    
C33   H39   1.073529 S    
C33   C37   1.409632 A    
C1    H21   1.104609 S    
C12   H25   1.108066 S    
C3    C44   1.531422 S    
O4    P6    1.547318 D    
P8    O24   1.750516 S    
P3    C34   1.852678 S    
P2    C35   1.868268 S    
C33   C34   1.387977 A    
C5    H9    1.110701 S    
C41   H44   1.099067 S    
Ba1   O13   2.842851 S    
O1    Ba1   2.848777 S    
O17   Ba2   2.797714 S    
C2    H4    1.112197 S    
C43   H50   1.103488 S    
C8    H16   1.110737 S    
C37   C38   1.417425 A    
C21   C22   1.412582 A    
C15   C16   1.524520 S    
C44   H53   1.109144 S    
P5    O19   1.746371 S    
P1    Ba1   3.404470 S    
O2    Ba2   2.843460 S    
C41   H43   1.105769 S    
C11   Cl1   1.760485 S    
C7    H14   1.106032 S    
C25   C26   1.403123 A    
C42   H46   1.110402 S    
C19   C30   1.389501 A    
H35   C26   1.078674 S    
P4    Ba2   3.405025 S    
C29   Cl3   1.738789 S    
C19   C20   1.387757 A    
C11   O22   1.392905 S    
C5    H10   1.109566 S    
C44   H52   1.104803 S    
C16   H33   1.108071 S    
P3    O9    1.543789 D    
C3    H6    1.111164 S    
C20   C21   1.391761 A    
C31   Cl4   1.742959 S    
C32   C35   1.397167 A    
O3    Ba1   2.842508 S    
P4    O15   1.752265 S    
C23   C30   1.435322 A    
C18   C28   1.422928 A    
