data_mof_unit_63383.cif
_audit_creation_date              2012-12-10T18:06:10-0500
_audit_creation_method            fapswitch 2.2
_symmetry_space_group_name_H-M    P1
_symmetry_Int_Tables_number       1
_space_group_crystal_system       triclinic
_cell_length_a                    26.016295
_cell_length_b                    25.977126
_cell_length_c                    22.205151
_cell_angle_alpha                 89.999868
_cell_angle_beta                  54.132117
_cell_angle_gamma                 89.99997
_cell_volume                      12161.1247561

loop_
_atom_site_label
_atom_site_type_symbol
_atom_type_description
_atom_site_fract_x
_atom_site_fract_y
_atom_site_fract_z
_atom_type_partial_charge
C1    C     C_R   0.400301 0.250018 0.699419 0.820231
C2    C     C_3   0.240667 0.706109 0.975105 -0.196674
C3    C     C_3   0.236162 0.208631 0.975146 -0.203082
C4    C     C_3   0.736846 0.291797 0.975146 -0.203161
C5    C     C_3   0.264584 0.709116 0.024855 -0.202984
C6    C     C_3   0.263838 0.291369 0.024854 -0.203082
C7    C     C_3   0.739434 0.706720 0.975148 -0.203415
C8    C     C_3   0.689713 0.248692 0.024493 0.224533
C9    C     C_3   0.310212 0.752974 0.975509 0.224224
C10   C     C_3   0.310258 0.247900 0.975508 0.224391
C11   C     C_3   0.689722 0.748375 0.024495 0.225126
C12   C     C_3   0.189788 0.747026 0.024491 0.224224
C13   C     C_3   0.239874 0.293488 0.975104 -0.196498
C14   C     C_3   0.810286 0.251308 0.975507 0.224533
C15   C     C_3   0.810277 0.751625 0.975505 0.225126
C16   C     C_3   0.189742 0.252100 0.024492 0.224391
C17   C     C_1   0.639458 0.249984 0.221197 -0.109038
C18   C     C_1   0.360543 0.750013 0.778802 -0.109057
C19   C     C_1   0.360543 0.249985 0.778802 -0.109052
C20   C     C_1   0.639460 0.750021 0.221197 -0.109000
C21   C     C_1   0.139457 0.749987 0.221197 -0.109057
C22   C     C_1   0.860542 0.250016 0.778802 -0.109038
C23   C     C_1   0.860540 0.749979 0.778802 -0.108999
C24   C     C_3   0.763418 0.708392 0.024894 -0.195768
C25   C     C_1   0.139457 0.250015 0.221197 -0.109053
C26   C     C_3   0.620493 0.247192 0.052983 -0.858307
C27   C     C_3   0.379347 0.756379 0.947019 -0.857371
C28   C     C_3   0.379446 0.245494 0.947018 -0.857878
C29   C     C_3   0.620512 0.746519 0.052988 -0.860070
C30   C     C_3   0.120652 0.743621 0.052981 -0.857371
C31   C     C_3   0.879507 0.252808 0.947017 -0.858307
C32   C     C_3   0.879488 0.753481 0.947012 -0.860070
C33   C     C_3   0.120554 0.254506 0.052981 -0.857878
C34   C     C_3   0.259333 0.793891 0.024895 -0.196674
C35   C     C_3   0.739161 0.206891 0.975105 -0.196330
C36   C     C_3   0.736581 0.791608 0.975106 -0.195768
C37   C     C_3   0.260126 0.206512 0.024896 -0.196498
C38   C     C_3   0.713517 0.249987 0.073307 0.137046
C39   C     C_3   0.286483 0.750007 0.926693 0.137209
C40   C     C_3   0.286483 0.249990 0.926693 0.137129
C41   C     C_R   0.599699 0.749983 0.300581 0.820224
C42   C     C_3   0.713518 0.750024 0.073307 0.136737
C43   C     C_3   0.213517 0.749993 0.073307 0.137209
C44   C     C_3   0.786482 0.250013 0.926693 0.137046
C45   C     C_3   0.786482 0.749975 0.926693 0.136737
C46   C     C_3   0.213517 0.250010 0.073307 0.137129
C47   C     C_1   0.672927 0.249977 0.154426 -0.039833
C48   C     C_1   0.327074 0.750018 0.845574 -0.039961
C49   C     C_1   0.327074 0.249979 0.845573 -0.039902
C50   C     C_1   0.672928 0.750033 0.154426 -0.039584
C51   C     C_1   0.172925 0.749982 0.154426 -0.039961
C52   C     C_R   0.599698 0.250018 0.300581 0.820229
C53   C     C_1   0.827073 0.250023 0.845574 -0.039833
C54   C     C_1   0.827071 0.749967 0.845574 -0.039584
C55   C     C_1   0.172926 0.250021 0.154426 -0.039902
C56   C     C_R   0.307516 0.230868 0.438328 0.503090
C57   C     C_R   0.692485 0.769133 0.561672 0.503080
C58   C     C_R   0.692484 0.230868 0.561672 0.503082
C59   C     C_R   0.307516 0.769131 0.438327 0.503108
C60   C     C_R   0.807515 0.730867 0.438328 0.503080
C61   C     C_R   0.192484 0.269132 0.561672 0.503090
C62   C     C_R   0.192484 0.730869 0.561673 0.503108
C63   C     C_R   0.400301 0.749982 0.699419 0.820233
C64   C     C_R   0.807515 0.269132 0.438328 0.503082
C65   C     C_R   0.254185 0.230840 0.438327 0.503356
C66   C     C_R   0.745815 0.769161 0.561672 0.503358
C67   C     C_R   0.745815 0.230839 0.561672 0.503356
C68   C     C_R   0.254185 0.769159 0.438327 0.503359
C69   C     C_R   0.754185 0.730838 0.438328 0.503358
C70   C     C_R   0.245815 0.269160 0.561673 0.503356
C71   C     C_R   0.245815 0.730840 0.561673 0.503359
C72   C     C_R   0.754185 0.269161 0.438328 0.503356
C73   C     C_R   0.196291 0.249972 0.499998 -0.495908
C74   C     C_R   0.900301 0.750017 0.699419 0.820224
C75   C     C_R   0.803709 0.750027 0.500002 -0.495903
C76   C     C_R   0.803708 0.249973 0.500002 -0.495905
C77   C     C_R   0.196291 0.750027 0.499998 -0.495917
C78   C     C_R   0.696291 0.749973 0.499998 -0.495903
C79   C     C_R   0.303708 0.250027 0.500002 -0.495908
C80   C     C_R   0.303708 0.749973 0.500002 -0.495917
C81   C     C_R   0.696291 0.250027 0.499998 -0.495905
C82   C     C_R   0.490240 0.026701 0.452818 -0.174830
C83   C     C_R   0.509760 0.973299 0.547182 -0.174837
C84   C     C_R   0.509760 0.026701 0.547182 -0.174839
C85   C     C_R   0.099698 0.249982 0.300581 0.820231
C86   C     C_R   0.490240 0.973299 0.452818 -0.174826
C87   C     C_R   0.990240 0.526701 0.452817 -0.174837
C88   C     C_R   0.009760 0.473299 0.547182 -0.174831
C89   C     C_R   0.009760 0.526701 0.547182 -0.174826
C90   C     C_R   0.990240 0.473299 0.452817 -0.174839
C91   C     C_R   0.500000 0.946310 0.500000 -0.001557
C92   C     C_R   0.500000 0.053690 0.500000 -0.001556
C93   C     C_R   1.000000 0.446310 0.500000 -0.001556
C94   C     C_R   1.000000 0.553690 0.500000 -0.001557
C95   C     C_R   0.640215 0.250037 0.499990 0.966824
C96   C     C_R   0.099698 0.750018 0.300581 0.820233
C97   C     C_R   0.359785 0.749963 0.500010 0.966828
C98   C     C_R   0.359785 0.250037 0.500010 0.966822
C99   C     C_R   0.640215 0.749963 0.499990 0.966825
C100  C     C_R   0.140215 0.750037 0.499990 0.966828
C101  C     C_R   0.859785 0.249963 0.500010 0.966824
C102  C     C_R   0.859785 0.750037 0.500010 0.966825
C103  C     C_R   0.140215 0.249963 0.499990 0.966822
C104  C     C_R   0.500000 0.109792 0.500000 0.784625
C105  C     C_R   0.500000 0.890208 0.500000 0.784623
C106  C     C_R   1.000000 0.609792 0.500000 0.784623
C107  C     C_R   0.900301 0.249982 0.699419 0.820229
C108  C     C_R   1.000000 0.390208 0.500000 0.784625
C109  C     C_R   0.500000 0.390246 0.500000 0.784534
C110  C     C_R   0.500000 0.609754 0.500000 0.784534
C111  C     C_R   1.000000 0.890246 0.500000 0.784534
C112  C     C_R   1.000000 0.109754 0.500000 0.784534
C113  C     C_R   0.556951 0.473304 0.452799 -0.174992
C114  C     C_R   0.443048 0.526696 0.547201 -0.175002
C115  C     C_R   0.443048 0.473304 0.547201 -0.175000
C116  C     C_R   0.556951 0.526696 0.452799 -0.174987
C117  C     C_R   0.056951 0.973304 0.452799 -0.175002
C118  C     C_3   0.760838 0.293109 0.024895 -0.196330
C119  C     C_R   0.943049 0.026696 0.547201 -0.174992
C120  C     C_R   0.943049 0.973304 0.547201 -0.174987
C121  C     C_R   0.056951 0.026696 0.452799 -0.175000
C122  C     C_R   0.500000 0.553674 0.500000 -0.001310
C123  C     C_R   0.500000 0.446326 0.500000 -0.001310
C124  C     C_R   1.000000 0.053674 0.500000 -0.001310
C125  C     C_R   1.000000 0.946326 0.500000 -0.001310
C126  C     C_3   0.235416 0.790884 0.975145 -0.202984
C127  C     C_3   0.763154 0.208203 0.024854 -0.203161
C128  C     C_3   0.760566 0.793280 0.024852 -0.203415
F1    F     F_    0.363109 0.213180 0.377182 -0.581443
F2    F     F_    0.740237 0.786878 0.622815 -0.581010
F3    F     F_    0.740237 0.213123 0.622816 -0.581007
F4    F     F_    0.259764 0.786874 0.377182 -0.580994
F5    F     F_    0.759763 0.713122 0.377185 -0.581010
F6    F     F_    0.240236 0.286876 0.622816 -0.581003
F7    F     F_    0.240236 0.713126 0.622818 -0.580994
F8    F     F_    0.759763 0.286877 0.377184 -0.581007
F9    F     F_    0.636891 0.786822 0.622817 -0.581453
F10   F     F_    0.636891 0.213179 0.622818 -0.581453
F11   F     F_    0.363110 0.786818 0.377180 -0.581422
F12   F     F_    0.863108 0.713178 0.377183 -0.581453
F13   F     F_    0.136891 0.286820 0.622818 -0.581443
F14   F     F_    0.136890 0.713182 0.622820 -0.581422
F15   F     F_    0.863109 0.286821 0.377182 -0.581453
F16   F     F_    0.259763 0.213124 0.377184 -0.581003
H1    H     H_    0.601486 0.453234 0.415892 0.177179
H2    H     H_    0.774038 0.174193 0.045837 0.155065
H3    H     H_    0.769343 0.828532 0.045833 0.155008
H4    H     H_    0.224722 0.174978 0.954162 0.155090
H5    H     H_    0.725961 0.325807 0.954163 0.155065
H6    H     H_    0.276631 0.675868 0.045839 0.155130
H7    H     H_    0.275278 0.325022 0.045838 0.155090
H8    H     H_    0.730657 0.671468 0.954167 0.155008
H9    H     H_    0.232893 0.670345 0.954086 0.159276
H10   H     H_    0.769839 0.328216 0.045914 0.159626
H11   H     H_    0.774519 0.674540 0.045912 0.160231
H12   H     H_    0.398513 0.546766 0.584108 0.177177
H13   H     H_    0.231454 0.328912 0.954085 0.159451
H14   H     H_    0.730161 0.171784 0.954086 0.159626
H15   H     H_    0.267107 0.829655 0.045914 0.159276
H16   H     H_    0.268546 0.171088 0.045915 0.159451
H17   H     H_    0.725481 0.825460 0.954088 0.160231
H18   H     H_    0.482603 0.046771 0.415924 0.177119
H19   H     H_    0.517397 0.953229 0.584076 0.177101
H20   H     H_    0.517397 0.046771 0.584076 0.177104
H21   H     H_    0.482603 0.953229 0.415924 0.177129
H22   H     H_    0.982603 0.546771 0.415924 0.177101
H23   H     H_    0.398513 0.453234 0.584108 0.177177
H24   H     H_    0.017397 0.453229 0.584076 0.177119
H25   H     H_    0.017397 0.546771 0.584076 0.177129
H26   H     H_    0.982603 0.453229 0.415924 0.177104
H27   H     H_    0.617331 0.246466 0.005278 0.248751
H28   H     H_    0.597554 0.212170 0.087299 0.254831
H29   H     H_    0.595653 0.281837 0.087325 0.245954
H30   H     H_    0.382468 0.758041 0.994726 0.248853
H31   H     H_    0.405381 0.722021 0.912678 0.246346
H32   H     H_    0.401072 0.791581 0.912704 0.254450
H33   H     H_    0.382592 0.244323 0.994725 0.248799
H34   H     H_    0.601486 0.546766 0.415892 0.177180
H35   H     H_    0.401808 0.210381 0.912703 0.254651
H36   H     H_    0.404854 0.280007 0.912677 0.246140
H37   H     H_    0.617354 0.745596 0.005284 0.248578
H38   H     H_    0.597793 0.711471 0.087329 0.245322
H39   H     H_    0.595455 0.781124 0.087304 0.255422
H40   H     H_    0.117532 0.741959 0.005274 0.248853
H41   H     H_    0.098928 0.708419 0.087296 0.254450
H42   H     H_    0.094619 0.777979 0.087322 0.246346
H43   H     H_    0.882669 0.253534 0.994722 0.248751
H44   H     H_    0.904347 0.218163 0.912675 0.245954
H45   H     H_    0.101487 0.953234 0.415892 0.177177
H46   H     H_    0.902445 0.287830 0.912701 0.254831
H47   H     H_    0.882646 0.754404 0.994716 0.248578
H48   H     H_    0.904545 0.718876 0.912696 0.255422
H49   H     H_    0.902207 0.788529 0.912670 0.245322
H50   H     H_    0.117408 0.255677 0.005275 0.248799
H51   H     H_    0.095146 0.219993 0.087323 0.246140
H52   H     H_    0.098192 0.289619 0.087297 0.254651
H53   H     H_    0.898514 0.046766 0.584108 0.177179
H54   H     H_    0.898513 0.953234 0.584108 0.177180
H55   H     H_    0.101486 0.046766 0.415892 0.177177
H56   H     H_    0.223369 0.824132 0.954161 0.155130
O1    O     O_3   0.500000 0.250030 0.500000 -0.524061
O2    O     O_R   0.112550 0.219620 0.335580 -0.623278
O3    O     O_R   0.112550 0.780380 0.335580 -0.623271
O4    O     O_R   0.887450 0.219620 0.664420 -0.623282
O5    O     O_R   0.594260 0.219670 0.543090 -0.589570
O6    O     O_R   0.405740 0.780330 0.456910 -0.589561
O7    O     O_R   0.405740 0.219670 0.456910 -0.589567
O8    O     O_R   0.594260 0.780330 0.543090 -0.589571
O9    O     O_R   0.094260 0.719670 0.543090 -0.589560
O10   O     O_R   0.905740 0.280330 0.456910 -0.589570
O11   O     O_R   0.905740 0.719670 0.456910 -0.589571
O12   O     O_3   0.500000 0.749970 0.500000 -0.524065
O13   O     O_R   0.094260 0.280330 0.543090 -0.589567
O14   O     O_R   0.508800 0.134220 0.543090 -0.644408
O15   O     O_R   0.491200 0.865780 0.456910 -0.644395
O16   O     O_R   0.491200 0.134220 0.456910 -0.644402
O17   O     O_R   0.508800 0.865780 0.543090 -0.644410
O18   O     O_R   0.008800 0.634220 0.543090 -0.644395
O19   O     O_R   0.991200 0.365780 0.456910 -0.644408
O20   O     O_R   0.991200 0.634220 0.456910 -0.644410
O21   O     O_R   0.008800 0.365780 0.543090 -0.644402
O22   O     O_R   0.448100 0.365830 0.543110 -0.644491
O23   O     O_3   1.000000 0.750030 0.500000 -0.524065
O24   O     O_R   0.551900 0.634170 0.456890 -0.644488
O25   O     O_R   0.551900 0.365830 0.456890 -0.644490
O26   O     O_R   0.448100 0.634170 0.543110 -0.644492
O27   O     O_R   0.948100 0.865830 0.543110 -0.644488
O28   O     O_R   0.051900 0.134170 0.456890 -0.644491
O29   O     O_R   0.051900 0.865830 0.456890 -0.644492
O30   O     O_R   0.948100 0.134170 0.543110 -0.644489
O31   O     O_R   0.637370 0.280400 0.456880 -0.589458
O32   O     O_R   0.362630 0.719600 0.543120 -0.589459
O33   O     O_R   0.362630 0.280400 0.543120 -0.589458
O34   O     O_3   1.000000 0.249970 0.500000 -0.524061
O35   O     O_R   0.637370 0.719600 0.456880 -0.589460
O36   O     O_R   0.137370 0.780400 0.456880 -0.589459
O37   O     O_R   0.862630 0.219600 0.543120 -0.589458
O38   O     O_R   0.862630 0.780400 0.543120 -0.589460
O39   O     O_R   0.137370 0.219600 0.456880 -0.589458
O40   O     O_R   0.448170 0.219660 0.664410 -0.623337
O41   O     O_R   0.551830 0.780340 0.335590 -0.623291
O42   O     O_R   0.551830 0.219660 0.335590 -0.623325
O43   O     O_R   0.448170 0.780340 0.664410 -0.623347
O44   O     O_R   0.948170 0.719660 0.664410 -0.623291
O45   O     O_R   0.387450 0.280380 0.664420 -0.623278
O46   O     O_R   0.051830 0.280340 0.335590 -0.623337
O47   O     O_R   0.051830 0.719660 0.335590 -0.623347
O48   O     O_R   0.948170 0.280340 0.664410 -0.623325
O49   O     O_R   0.612550 0.719620 0.335580 -0.623300
O50   O     O_R   0.612550 0.280380 0.335580 -0.623281
O51   O     O_R   0.387450 0.719620 0.664420 -0.623271
O52   O     O_R   0.887450 0.780380 0.664420 -0.623300
Zn1   Zn    Zn3+2 0.574170 0.293410 0.438410 1.017456
Zn2   Zn    Zn3+2 0.487410 0.793350 0.438420 1.017292
Zn3   Zn    Zn3+2 0.487410 0.206650 0.438420 1.017247
Zn4   Zn    Zn3+2 0.512590 0.793350 0.561580 1.017219
Zn5   Zn    Zn3+2 0.012590 0.706650 0.561580 1.017292
Zn6   Zn    Zn3+2 0.987410 0.293350 0.438420 1.017229
Zn7   Zn    Zn3+2 0.987410 0.706650 0.438420 1.017219
Zn8   Zn    Zn3+2 0.012590 0.293350 0.561580 1.017247
Zn9   Zn    Zn3+2 0.425830 0.706590 0.561590 1.017460
Zn10  Zn    Zn3+2 0.425830 0.293410 0.561590 1.017455
Zn11  Zn    Zn3+2 0.574170 0.706590 0.438410 1.017450
Zn12  Zn    Zn3+2 0.074170 0.793410 0.438410 1.017460
Zn13  Zn    Zn3+2 0.925830 0.206590 0.561590 1.017456
Zn14  Zn    Zn3+2 0.925830 0.793410 0.561590 1.017450
Zn15  Zn    Zn3+2 0.074170 0.206590 0.438410 1.017455
Zn16  Zn    Zn3+2 0.512590 0.206650 0.561580 1.017229

loop_
_geom_bond_atom_site_label_1
_geom_bond_atom_site_label_2
_ccdc_geom_bond_type
C61   C70   A    
C95   O5    A    
C63   O51   A    
O12   Zn11  S    
O11   Zn7   S    
C105  O15   A    
C116  H34   S    
C80   C97   S    
C8    C26   S    
C91   C105  S    
C79   C98   S    
C106  O20   A    
C103  O39   A    
C17   C52   S    
C57   C66   A    
C4    C8    S    
C2    C12   S    
C13   C16   S    
C38   C127  S    
C82   C92   A    
C15   C32   S    
C62   C71   A    
O4    Zn13  S    
O34   Zn8   S    
C4    H5    S    
C31   H46   S    
C56   C79   A    
C29   H37   S    
O31   Zn1   S    
C23   C54   T    
C10   C37   S    
C112  O28   A    
O47   Zn7   S    
C30   H42   S    
C37   H16   S    
O37   Zn13  S    
C11   C36   S    
C95   O31   A    
O12   Zn4   S    
C112  C124  S    
C12   C43   S    
C83   H19   S    
C86   C91   A    
C93   C108  S    
C71   F7    S    
C81   C95   S    
C70   F6    S    
C18   C63   S    
C72   F8    S    
C87   H22   S    
C12   C126  S    
C27   H32   S    
C10   C28   S    
C40   C49   S    
C87   C94   A    
C100  O9    A    
C9    C39   S    
C65   C73   A    
C32   H48   S    
C11   C42   S    
C10   C40   S    
C113  H1    S    
C89   C94   A    
C68   F4    S    
O40   Zn16  S    
C121  H55   S    
C13   C40   S    
C20   C50   T    
C62   C77   A    
O48   Zn8   S    
C108  O19   A    
C2    C39   S    
C3    C16   S    
C76   C101  S    
C33   H52   S    
C3    C40   S    
C88   H24   S    
C46   C55   S    
C111  C125  S    
C75   C102  S    
C120  H54   S    
O1    Zn16  S    
C97   O6    A    
C22   C53   T    
O21   Zn8   S    
C29   H39   S    
O2    Zn15  S    
C14   C31   S    
C96   O47   A    
C72   C81   A    
C84   H20   S    
C24   H11   S    
C42   C128  S    
C52   O50   A    
C113  C116  A    
C74   O44   A    
C34   H15   S    
C58   F10   S    
O50   Zn1   S    
C5    C43   S    
C26   H28   S    
C3    H4    S    
C39   C126  S    
C119  H53   S    
C66   F2    S    
O42   Zn3   S    
C4    C118  S    
C69   C78   A    
C36   C128  S    
C86   H21   S    
C8    C38   S    
C62   F14   S    
C20   C41   S    
O45   Zn10  S    
C44   C53   S    
C27   H30   S    
C13   H13   S    
O23   Zn12  S    
O22   Zn10  S    
C114  C115  A    
O24   Zn11  S    
C1    O40   A    
C45   C54   S    
O12   Zn9   S    
C102  O38   A    
C64   F15   S    
C115  C123  A    
O32   Zn9   S    
O44   Zn5   S    
C57   F9    S    
C101  O37   A    
O23   Zn14  S    
C30   H41   S    
C25   C55   T    
C107  O48   A    
O38   Zn14  S    
O20   Zn7   S    
C71   C80   A    
O1    Zn10  S    
C104  O16   A    
C110  O26   A    
C58   C81   A    
C27   H31   S    
O23   Zn5   S    
C65   F16   S    
C109  O25   A    
C120  C125  A    
C109  C123  S    
O34   Zn13  S    
C82   H18   S    
C26   H29   S    
C61   C73   A    
C119  C124  A    
C1    C19   S    
O15   Zn2   S    
O43   Zn4   S    
C32   H47   S    
C41   O41   A    
C29   H38   S    
C5    H6    S    
C8    C35   S    
C38   C118  S    
C31   H44   S    
C7    C11   S    
C17   C47   T    
C5    C9    S    
O46   Zn6   S    
O28   Zn15  S    
C52   O42   A    
C59   C68   A    
C99   O35   A    
C56   C65   A    
C19   C49   T    
C92   C104  S    
O9    Zn5   S    
C83   C84   A    
C113  C123  A    
O5    Zn16  S    
C59   F11   S    
C34   C126  S    
C63   O43   A    
C90   H26   S    
C25   C85   S    
C7    C24   S    
C64   C76   A    
O39   Zn15  S    
C36   C45   S    
C128  H3    S    
O19   Zn6   S    
O49   Zn11  S    
C35   C127  S    
C35   C44   S    
C28   H36   S    
O26   Zn9   S    
C11   C29   S    
C38   C47   S    
C117  H45   S    
C85   O2    A    
C60   F12   S    
C6    H7    S    
C61   F13   S    
C15   C24   S    
C106  O18   A    
C42   C50   S    
C26   H27   S    
O36   Zn12  S    
C2    H9    S    
C105  O17   A    
C15   C128  S    
O13   Zn8   S    
C36   H17   S    
C111  O29   A    
C98   O7    A    
C100  O36   A    
C2    C5    S    
O10   Zn6   S    
C15   C45   S    
C23   C74   S    
C16   C46   S    
O6    Zn2   S    
C7    C45   S    
C21   C51   T    
C83   C91   A    
C110  O24   A    
C9    C27   S    
C96   O3    A    
C14   C118  S    
C127  H2    S    
C28   H33   S    
O29   Zn12  S    
C126  H56   S    
C68   C77   A    
O34   Zn6   S    
C103  O13   A    
C88   C93   A    
C94   C106  S    
C69   F5    S    
C6    C46   S    
C12   C30   S    
C70   C79   A    
O3    Zn12  S    
O18   Zn5   S    
C30   H40   S    
C57   C78   A    
C114  H12   S    
C67   F3    S    
C34   C43   S    
C56   F1    S    
C32   H49   S    
O52   Zn14  S    
C18   C48   T    
C59   C80   A    
C6    C10   S    
C74   O52   A    
C119  C120  A    
O27   Zn14  S    
O41   Zn2   S    
C21   C96   S    
C117  C121  A    
C101  O10   A    
O16   Zn3   S    
C77   C100  S    
C4    C44   S    
C60   C75   A    
O51   Zn9   S    
C82   C86   A    
O14   Zn16  S    
C99   O8    A    
C111  O27   A    
C104  O14   A    
C90   C93   A    
C35   H14   S    
C89   H25   S    
C107  O4    A    
C16   C33   S    
O1    Zn3   S    
C33   H50   S    
C6    C13   S    
O23   Zn7   S    
C108  O21   A    
C43   C51   S    
O34   Zn15  S    
C85   O46   A    
C98   O33   A    
C117  C125  A    
C60   C69   A    
C116  C122  A    
O1    Zn1   S    
C66   C75   A    
O35   Zn11  S    
C9    C34   S    
C118  H10   S    
C14   C44   S    
C64   C72   A    
O12   Zn2   S    
C102  O11   A    
C28   H35   S    
C24   C42   S    
C14   C127  S    
C112  O30   A    
O7    Zn3   S    
C7    H8    S    
C114  C122  A    
C58   C67   A    
C73   C103  S    
C88   C89   A    
C33   H51   S    
C97   O32   A    
O25   Zn1   S    
C87   C90   A    
C41   O49   A    
C78   C99   S    
C121  C124  A    
O33   Zn10  S    
C1    O45   A    
C67   C76   A    
C84   C92   A    
C31   H43   S    
C37   C46   S    
C115  H23   S    
O17   Zn4   S    
C110  C122  S    
C109  O22   A    
C22   C107  S    
C3    C37   S    
C39   C48   S    
O8    Zn4   S    
O30   Zn13  S    
