data_mof_unit_6162.cif
_audit_creation_date              2012-12-10T17:54:18-0500
_audit_creation_method            fapswitch 2.2
_symmetry_space_group_name_H-M    P1
_symmetry_Int_Tables_number       1
_space_group_crystal_system       triclinic
_cell_length_a                    27.121609
_cell_length_b                    10.72564
_cell_length_c                    9.966269
_cell_angle_alpha                 87.256635
_cell_angle_beta                  91.905223
_cell_angle_gamma                 92.692641
_cell_volume                      2891.23773337

loop_
_atom_site_label
_atom_site_type_symbol
_atom_type_description
_atom_site_fract_x
_atom_site_fract_y
_atom_site_fract_z
_atom_type_partial_charge
C1    C     C_R   0.500427 0.260428 0.503500 0.903042
C2    C     C_R   0.966836 0.231384 0.453667 0.082038
C3    C     C_R   0.973873 0.319135 0.677951 -0.006752
C4    C     C_R   0.405684 0.497994 0.497721 0.889845
C5    C     C_R   0.944902 0.282303 0.564461 -0.000023
C6    C     C_R   0.934956 0.168591 0.359005 0.164942
C7    C     C_R   0.884629 0.192611 0.352463 -0.119707
C8    C     C_R   0.864100 0.262590 0.449541 -0.050880
C9    C     C_R   0.893500 0.298695 0.560871 -0.067357
C10   C     C_R   0.871682 0.353760 0.667690 -0.074784
C11   C     C_R   0.822470 0.386814 0.653928 0.533868
C12   C     C_R   0.285727 0.314721 0.528185 -0.030777
C13   C     C_R   0.814140 0.291713 0.442207 0.522629
C14   C     C_R   0.712039 0.358700 0.633403 -0.093561
C15   C     C_R   0.663990 0.397600 0.626368 -0.229018
C16   C     C_R   0.503180 0.739973 0.496751 0.952201
C17   C     C_R   0.678003 0.496759 0.406230 -0.214691
C18   C     C_R   0.727079 0.462375 0.416050 -0.092726
C19   C     C_R   0.744240 0.392200 0.529490 0.286368
C20   C     C_R   0.018740 0.250098 0.440380 -0.008126
C21   C     C_R   0.048186 0.300521 0.546955 0.080082
C22   C     C_R   0.025833 0.334225 0.666103 0.010371
C23   C     C_R   0.251737 0.402317 0.484476 0.231600
C24   C     C_R   0.040905 0.237033 0.316641 -0.247791
C25   C     C_R   0.105685 0.417510 0.750560 0.455177
C26   C     C_R   0.948688 0.343468 0.796497 0.348037
C27   C     C_R   0.898859 0.369408 0.787650 -0.162719
C28   C     C_R   0.594001 0.492446 0.502632 0.826626
C29   C     C_R   0.055077 0.399167 0.761151 -0.171116
C30   C     C_R   0.574322 0.132348 0.665969 -0.133527
C31   C     C_R   0.613684 0.073340 0.729266 -0.183182
C32   C     C_R   0.622762 0.952210 0.699876 -0.119861
C33   C     C_R   0.591704 0.887436 0.609317 0.222789
C34   C     C_R   0.099776 0.325224 0.530750 -0.148771
C35   C     C_R   0.546613 0.940011 0.560001 0.039369
C36   C     C_R   0.540237 0.067315 0.580282 0.026406
C37   C     C_R   0.500736 0.127023 0.511421 -0.113026
C38   C     C_R   0.465071 0.061011 0.433839 0.111969
C39   C     C_R   0.471200 0.936194 0.414458 0.357820
C40   C     C_R   0.173061 0.324314 0.396289 0.564883
C41   C     C_R   0.508774 0.873969 0.486430 -0.243806
C42   C     C_R   0.422395 0.381642 0.141162 -0.219026
C43   C     C_R   0.377241 0.354210 0.076652 0.018564
C44   C     C_R   0.374724 0.362287 0.936640 0.392705
C45   C     C_R   0.121771 0.299923 0.408024 -0.108637
C46   C     C_R   0.418946 0.378996 0.867113 0.304957
C47   C     C_R   0.460659 0.441602 0.928876 0.042963
C48   C     C_R   0.461354 0.442185 0.072473 0.111142
C49   C     C_R   0.537263 0.556050 0.071600 -0.061771
C50   C     C_R   0.537308 0.555840 0.928856 -0.090336
C51   C     C_R   0.179971 0.399936 0.617758 0.588822
C52   C     C_R   0.267840 0.522423 0.439626 -0.072083
C53   C     C_R   0.318315 0.556777 0.441574 0.100351
C54   C     C_R   0.335732 0.348642 0.532923 -0.224466
C55   C     C_3   0.418637 0.119492 0.376959 -0.768244
C56   C     C_R   0.091291 0.257181 0.300319 0.459590
C57   C     C_3   0.613462 0.775649 0.554022 -0.912459
C58   C     C_3   0.333492 0.307438 0.156780 -0.665144
C59   C     C_3   0.950436 0.061814 0.278821 -0.857113
C60   C     C_3   0.334948 0.684900 0.390301 -0.750718
C61   C     C_R   0.128960 0.379638 0.635495 -0.128485
C62   C     C_R   0.352426 0.469770 0.492618 -0.050812
C63   C     C_R   0.646331 0.464987 0.512008 -0.022381
Cl1   Cl    Cl    0.136004 0.499126 0.882008 -0.420347
Cl2   Cl    Cl    0.973495 0.317173 0.961168 -0.632275
Cl3   Cl    Cl    0.431379 0.859598 0.296550 -0.622690
Cl4   Cl    Cl    0.319221 0.316507 0.851641 -0.506417
Cl5   Cl    Cl    0.427678 0.246868 0.776336 -0.577282
Cl6   Cl    Cl    0.112146 0.234008 0.137558 -0.425898
H1    H     H_    0.361343 0.279773 0.568610 0.208238
H2    H     H_    0.656104 0.911362 0.741315 0.149974
H3    H     H_    0.567707 0.602430 0.124994 0.136984
H4    H     H_    0.427088 0.351865 0.243340 0.220921
H5    H     H_    0.567756 0.601932 0.875910 0.138798
H6    H     H_    0.640269 0.371797 0.709330 0.150847
H7    H     H_    0.724368 0.302980 0.720532 0.156775
H8    H     H_    0.861189 0.151384 0.274581 0.198600
H9    H     H_    0.019010 0.218093 0.227239 0.236495
H10   H     H_    0.385655 0.061066 0.407681 0.263489
H11   H     H_    0.413531 0.212637 0.415284 0.189729
H12   H     H_    0.240781 0.589130 0.405795 0.152992
H13   H     H_    0.419460 0.126570 0.265590 0.270889
H14   H     H_    0.614943 0.701375 0.634679 0.251704
H15   H     H_    0.594061 0.744274 0.461663 0.230112
H16   H     H_    0.651991 0.799631 0.524053 0.240440
H17   H     H_    0.342541 0.303373 0.265958 0.200580
H18   H     H_    0.302573 0.370908 0.137930 0.286869
H19   H     H_    0.321496 0.211780 0.127818 0.276631
H20   H     H_    0.923626 0.980961 0.292215 0.244643
H21   H     H_    0.950823 0.090082 0.170222 0.281743
H22   H     H_    0.986846 0.027602 0.313852 0.254374
H23   H     H_    0.664952 0.548710 0.317213 0.155276
H24   H     H_    0.303260 0.743495 0.361316 0.245650
H25   H     H_    0.357531 0.732432 0.469366 0.253178
H26   H     H_    0.357003 0.675834 0.299870 0.288920
H27   H     H_    0.880899 0.395832 0.876900 0.219370
H28   H     H_    0.751702 0.489995 0.335518 0.161284
H29   H     H_    0.038882 0.445552 0.841041 0.228105
H30   H     H_    0.571466 0.228917 0.687200 0.165114
H31   H     H_    0.638846 0.124169 0.795833 0.147862
H32   H     H_    0.273221 0.221821 0.563226 0.176251
N1    N     N_R   0.200257 0.373652 0.499778 -0.373554
N2    N     N_R   0.794751 0.357133 0.541321 -0.351711
N3    N     N_R   0.499540 0.498800 0.142780 -0.094125
N4    N     N_R   0.499520 0.498720 0.857170 -0.096839
O1    O     O_R   0.500000 0.316780 0.614690 -0.569802
O2    O     O_R   0.571250 0.499990 0.614680 -0.642342
O3    O     O_R   0.571240 0.499970 0.385350 -0.621072
O4    O     O_2   0.196112 0.299359 0.283550 -0.462170
O5    O     O_2   0.785221 0.254723 0.337329 -0.561556
O6    O     O_2   0.209688 0.445552 0.716706 -0.417696
O7    O     O_2   0.802860 0.450601 0.751185 -0.560494
O8    O     O_R   0.500000 0.316750 0.385360 -0.632801
O9    O     O_R   0.428760 0.500030 0.614650 -0.580029
O10   O     O_R   0.428750 0.500010 0.385320 -0.626486
O11   O     O_R   0.500000 0.683250 0.614640 -0.600770
O12   O     O_R   0.500000 0.683220 0.385310 -0.562529
Zn1   Zn    Zn3+2 0.500000 0.500020 0.653130 0.992013
Zn2   Zn    Zn3+2 0.500000 0.499980 0.346870 0.978759

loop_
_geom_bond_atom_site_label_1
_geom_bond_atom_site_label_2
_ccdc_geom_bond_type
C10   C27   A    
C15   H6    S    
C8    C13   A    
C22   C29   A    
C4    O10   A    
C35   C36   A    
C51   C61   A    
C58   H18   S    
C49   N3    A    
C7    C8    A    
C39   C41   A    
C51   N1    A    
C5    C9    A    
C12   C23   A    
C26   C27   A    
C13   O5    S    
C29   H29   S    
C4    O9    A    
C36   C37   A    
C50   H5    S    
C38   C39   A    
C23   N1    S    
C28   O2    A    
C48   N3    A    
C4    C62   S    
C18   C19   A    
C59   H20   S    
C43   C58   S    
O8    Zn2   S    
C19   N2    S    
C38   C55   S    
C20   C24   A    
C45   C56   A    
O11   Zn1   S    
C8    C9    A    
C47   N4    A    
C49   H3    S    
C50   N4    A    
C33   C57   S    
C57   H14   S    
C18   H28   S    
C13   N2    A    
C9    C10   A    
O2    Zn1   S    
C1    C37   S    
C1    O1    A    
C7    H8    S    
N3    Zn2   S    
C60   H24   S    
C40   O4    S    
C21   C22   A    
O1    Zn1   S    
O3    Zn2   S    
C27   H27   S    
C2    C6    A    
C17   H23   S    
C1    O8    A    
C58   H17   S    
C53   C60   S    
C44   C46   A    
C32   H2    S    
C3    C26   A    
C25   C29   A    
C40   C45   A    
C44   Cl4   S    
C2    C20   A    
C14   C19   A    
C25   C61   A    
C21   C34   A    
C54   C62   A    
C30   H30   S    
C34   C61   A    
C25   Cl1   S    
C14   H7    S    
C43   C44   A    
C28   C63   S    
C46   Cl5   S    
C37   C38   A    
C55   H10   S    
C53   C62   A    
C47   C48   A    
C54   H1    S    
C17   C18   A    
C57   H15   S    
C34   C45   A    
C42   C48   A    
C31   H31   S    
C55   H13   S    
O9    Zn1   S    
C24   H9    S    
C56   Cl6   S    
O10   Zn2   S    
C39   Cl3   S    
N4    Zn1   S    
C2    C5    A    
C42   C43   A    
C52   C53   A    
C59   H22   S    
C46   C47   A    
C42   H4    S    
C51   O6    S    
C11   O7    S    
C26   Cl2   S    
C6    C59   S    
C31   C32   A    
C3    C5    A    
C58   H19   S    
C6    C7    A    
C24   C56   A    
C30   C36   A    
C16   O11   A    
C32   C33   A    
O12   Zn2   S    
C12   H32   S    
C16   O12   A    
C17   C63   A    
C55   H11   S    
C23   C52   A    
C30   C31   A    
C28   O3    A    
C33   C35   A    
C57   H16   S    
C52   H12   S    
C35   C41   A    
C10   C11   A    
C40   N1    A    
C60   H26   S    
C20   C21   A    
C49   C50   A    
C15   C63   A    
C14   C15   A    
C3    C22   A    
C11   N2    A    
C16   C41   S    
C59   H21   S    
C12   C54   A    
C60   H25   S    
