data_mof_unit_66538.cif
_audit_creation_date              2012-12-10T16:50:08-0500
_audit_creation_method            fapswitch 2.2
_symmetry_space_group_name_H-M    P1
_symmetry_Int_Tables_number       1
_space_group_crystal_system       triclinic
_cell_length_a                    7.767841
_cell_length_b                    8.571758
_cell_length_c                    10.723122
_cell_angle_alpha                 92.742629
_cell_angle_beta                  84.123781
_cell_angle_gamma                 93.111881
_cell_volume                      708.546773004

loop_
_atom_site_label
_atom_site_type_symbol
_atom_type_description
_atom_site_fract_x
_atom_site_fract_y
_atom_site_fract_z
_atom_type_partial_charge
C1    C     C_R   0.544528 0.794990 0.499858 0.999630
C2    C     C_R   0.455145 0.205697 0.506790 0.898035
C3    C     C_R   0.502234 0.507550 0.261065 0.876781
C4    C     C_R   0.239267 0.685075 0.909883 -0.124030
C5    C     C_R   0.148014 0.794455 0.987371 -0.167858
C6    C     C_R   0.189031 0.826667 0.109215 0.501335
C7    C     C_R   0.314619 0.741675 0.155112 -0.253908
C8    C     C_R   0.399332 0.622448 0.079994 0.025738
C9    C     C_2   0.716986 0.293277 0.856640 0.975788
C10   C     C_R   0.375265 0.602636 0.952556 0.100384
C11   C     C_R   0.489682 0.502681 0.875308 -0.172850
C12   C     C_R   0.606615 0.410298 0.928451 -0.098534
C13   C     C_R   0.611992 0.420445 0.055876 -0.204435
C14   C     C_R   0.507828 0.521788 0.129986 -0.059657
C15   C     C_2   0.562825 0.957370 0.488261 -0.483244
C16   C     C_2   0.435941 0.048384 0.537944 0.304891
C17   C     C_R   0.497977 0.502419 0.740816 0.933585
H1    H     H_    0.984789 0.617646 0.597104 0.222864
H2    H     H_    0.282097 0.186954 0.820091 0.384283
H3    H     H_    0.197706 0.671626 0.817635 0.223124
H4    H     H_    0.048322 0.857052 0.950410 0.223522
H5    H     H_    0.346554 0.770858 0.249545 0.179767
H6    H     H_    0.693044 0.343137 0.098713 0.185089
H7    H     H_    0.669648 0.999892 0.422848 0.180047
H8    H     H_    0.014782 0.381339 0.403452 0.221884
H9    H     H_    0.738286 0.121486 0.721612 0.375249
H10   H     H_    0.851364 0.100237 0.204710 0.372912
N1    N     N_2   0.950330 0.457950 0.466250 -0.153252
N2    N     N_2   0.049670 0.542050 0.533750 -0.136784
O1    O     O_R   0.389250 0.738570 0.508280 -0.571456
O2    O     O_R   0.650970 0.196911 0.762275 -0.779984
O3    O     O_2   0.043153 0.916013 0.335991 -0.293531
O4    O     O_2   0.202449 0.116727 0.208643 -0.324130
O5    O     O_3   0.899206 0.015409 0.147634 -0.554569
O6    O     O_2   0.141501 0.899637 0.638129 -0.274527
O7    O     O_2   0.393223 0.921551 0.760223 -0.354210
O8    O     O_3   0.215983 0.167533 0.746189 -0.486075
O9    O     O_R   0.678390 0.711630 0.486650 -0.598888
O10   O     O_R   0.355400 0.513470 0.694050 -0.616538
O11   O     O_R   0.644540 0.486530 0.672420 -0.618382
O12   O     O_R   0.321610 0.288370 0.513350 -0.560795
O13   O     O_R   0.610750 0.261430 0.491720 -0.633578
O14   O     O_R   0.355460 0.513470 0.327580 -0.623912
O15   O     O_R   0.644600 0.486530 0.305950 -0.626253
O16   O     O_2   0.864403 0.277842 0.883249 -0.564635
S1    S     S_3+6 0.083735 0.972485 0.205140 0.008417
S2    S     S_3+6 0.292646 0.003551 0.672972 0.059167
Zn1   Zn    Zn3+2 0.306930 0.517990 0.514440 1.065074
Zn2   Zn    Zn3+2 0.693070 0.482010 0.485560 1.018448

loop_
_geom_bond_atom_site_label_1
_geom_bond_atom_site_label_2
_ccdc_geom_bond_type
O15   Zn2   S    
C11   C12   A    
C9    O16   D    
C6    C7    A    
O5    S1    S    
O8    S2    S    
C7    H5    S    
C2    C16   S    
N1    Zn2   S    
N2    Zn1   S    
O6    S2    D    
N1    N2    D    
H9    O2    S    
O9    Zn2   S    
C13   C14   A    
H8    N1    S    
O4    S1    D    
C3    O14   A    
C3    C14   S    
C1    O9    A    
C2    O13   A    
C1    C15   S    
C16   S2    S    
O1    Zn1   S    
C1    O1    A    
O12   Zn1   S    
H10   O5    S    
C17   O10   A    
C5    C6    A    
C9    C12   S    
C3    O15   A    
H2    O8    S    
C10   C11   A    
C9    O2    S    
O13   Zn2   S    
C4    C10   A    
O11   Zn2   S    
C4    H3    S    
C7    C8    A    
C5    H4    S    
C12   C13   A    
C13   H6    S    
O7    S2    D    
C8    C10   A    
O14   Zn1   S    
C2    O12   A    
C15   H7    S    
C8    C14   A    
C6    S1    S    
O3    S1    D    
C11   C17   S    
C15   C16   D    
H1    N2    S    
C4    C5    A    
O10   Zn1   S    
C17   O11   A    
