data_mof_unit_67116.cif
_audit_creation_date              2013-03-05T15:58:40-0500
_audit_creation_method            fapswitch 2.2
_symmetry_space_group_name_H-M    P1
_symmetry_Int_Tables_number       1
_space_group_crystal_system       triclinic
_cell_length_a                    8.225027
_cell_length_b                    12.81349
_cell_length_c                    14.970652
_cell_angle_alpha                 97.558444
_cell_angle_beta                  97.232439
_cell_angle_gamma                 98.608422
_cell_volume                      1529.29332778

loop_
_atom_site_label
_atom_site_type_symbol
_atom_site_description
_atom_site_fract_x
_atom_site_fract_y
_atom_site_fract_z
_atom_type_partial_charge
P1    P     P_3+3 0.998770 0.403620 0.291990 0.478485
O1    O     O_2   0.827930 0.435360 0.277760 -0.374384
O2    O     O_3   0.100310 0.439010 0.391180 -0.377781
O3    O     O_3   0.625610 0.634200 0.333270 -0.365186
O4    O     O_2   0.716182 0.556233 0.176815 -0.378858
O5    O     O_3   0.983427 0.265235 0.265102 -0.607510
O6    O     O_3   0.639022 0.746471 0.183688 -0.535797
H1    H     H_    0.690908 0.857220 0.300652 0.130516
C1    C     C_3   0.537875 0.911894 0.194157 -0.960876
H2    H     H_    0.504493 0.975937 0.242459 0.264143
H3    H     H_    0.642138 0.946039 0.160833 0.266697
P2    P     P_3+3 0.687370 0.751000 0.571300 0.487201
P3    P     P_3+3 0.106977 0.827700 0.377853 0.502133
O7    O     O_2   0.857120 0.766320 0.543890 -0.373431
O8    O     O_3   0.056570 0.691100 0.379020 -0.378811
O9    O     O_2   0.990746 0.882628 0.435198 -0.344496
O10   O     O_3   0.717378 0.781714 0.690565 -0.654316
O11   O     O_3   0.048025 0.851274 0.266843 -0.487804
C2    C     C_3   0.075377 0.765442 0.205007 0.428067
H4    H     H_    0.990793 0.691220 0.210248 0.150168
H5    H     H_    0.205976 0.752308 0.217238 -0.005178
C3    C     C_3   0.039508 0.789830 0.108518 -0.848925
H6    H     H_    0.907410 0.799319 0.092977 0.295758
H7    H     H_    0.120599 0.864718 0.101173 0.268071
C4    C     C_3   0.274711 0.773503 0.645865 0.472082
H8    H     H_    0.359654 0.727551 0.612448 0.131643
H9    H     H_    0.157943 0.767397 0.598321 0.146756
C5    C     C_3   0.356190 0.890328 0.671285 -0.951716
H10   H     H_    0.490427 0.895999 0.695021 0.231788
H11   H     H_    0.339376 0.933240 0.612179 0.248770
H12   H     H_    0.300614 0.930666 0.727192 0.304274
Ba1   Ba    Ba6+2 0.843760 0.550230 0.455610 1.600054
C6    C     C_3   0.850482 0.208022 0.297162 0.851236
H13   H     H_    0.807965 0.255947 0.354063 -0.013764
C7    C     C_3   0.909560 0.111069 0.332604 -0.029940
H14   H     H_    0.802337 0.053569 0.344982 0.082918
H15   H     H_    0.992746 0.138754 0.398414 0.147700
C8    C     C_3   0.817069 0.717759 0.733341 0.837199
H16   H     H_    0.894096 0.679926 0.687041 0.021445
C9    C     C_3   0.936348 0.787048 0.814149 -0.642025
H17   H     H_    0.035071 0.837858 0.788011 0.197334
H18   H     H_    0.996288 0.734720 0.856657 0.159292
P4    P     P_3+3 0.190950 0.596470 0.708020 0.460667
O12   O     O_2   0.361790 0.564680 0.722290 -0.318280
O13   O     O_3   0.089410 0.561080 0.608830 -0.412083
O14   O     O_3   0.564100 0.365890 0.666740 -0.396889
O15   O     O_3   0.240140 0.735656 0.725731 -0.612329
P5    P     P_3+3 0.091284 0.173052 0.621392 0.488715
O16   O     O_3   0.601940 0.368260 0.453780 -0.401516
O17   O     O_3   0.133140 0.308990 0.620990 -0.396686
O18   O     O_2   0.213608 0.121894 0.566200 -0.348909
O19   O     O_3   0.150430 0.149399 0.732602 -0.512478
Ba2   Ba    Ba6+2 0.346080 0.449860 0.544400 1.597070
P6    P     P_3+3 0.588539 0.619878 0.214939 0.450418
C10   C     C_3   0.586899 0.823323 0.244759 0.433794
H19   H     H_    0.477595 0.790896 0.274977 0.011745
H20   H     H_    0.429102 0.879339 0.140866 0.252921
O20   O     O_3   0.587770 0.631830 0.546230 -0.336786
C11   C     C_3   0.407643 0.281877 0.266684 0.500065
H21   H     H_    0.308264 0.312743 0.300437 0.095970
H22   H     H_    0.515775 0.346914 0.272282 0.101324
C12   C     C_3   0.340446 0.244077 0.166202 -0.865370
H23   H     H_    0.229955 0.180391 0.159015 0.279715
H24   H     H_    0.303678 0.311314 0.133290 0.203386
H25   H     H_    0.437039 0.212097 0.130463 0.285020
P7    P     P_3+3 0.506396 0.232894 0.423613 0.439228
O21   O     O_2   0.332600 0.233710 0.456170 -0.351194
O22   O     O_3   0.456362 0.195598 0.305584 -0.539151
H26   H     H_    0.063625 0.723497 0.059052 0.201384
C13   C     C_3   0.127704 0.236235 0.794761 0.480932
H27   H     H_    0.220421 0.307737 0.791996 0.160987
H28   H     H_    0.001190 0.255696 0.780283 -0.030701
C14   C     C_3   0.151873 0.207977 0.890591 -0.924337
H29   H     H_    0.272903 0.180539 0.904873 0.300326
H30   H     H_    0.151290 0.279199 0.941299 0.212552
H31   H     H_    0.050168 0.143437 0.897752 0.252930
P8    P     P_3+3 0.606007 0.377391 0.784437 0.515137
C15   C     C_3   0.597590 0.173582 0.775671 0.462250
H32   H     H_    0.728040 0.200189 0.766154 -0.027485
O23   O     O_2   0.497626 0.455110 0.824166 -0.312824
O24   O     O_3   0.523237 0.256094 0.815593 -0.486008
H33   H     H_    0.523833 0.137806 0.708340 0.118594
H34   H     H_    0.672278 0.123620 0.905511 0.263607
C16   C     C_3   0.597835 0.089311 0.838224 -0.967550
H35   H     H_    0.653574 0.022451 0.808270 0.200253
H36   H     H_    0.468967 0.058761 0.848322 0.274799
C17   C     C_R   0.373785 0.552466 0.170365 0.196618
H37   H     H_    0.341424 0.510867 0.302339 0.186136
H38   H     H_    0.511904 0.636224 0.038141 0.203881
C18   C     C_R   0.114315 0.469863 0.210076 0.324645
C19   C     C_R   0.923829 0.478420 0.769570 -0.433620
C20   C     C_R   0.827606 0.431346 0.828536 0.236409
C21   C     C_R   0.897321 0.428150 0.918525 -0.176910
C22   C     C_R   0.057098 0.490295 0.955598 0.003822
C23   C     C_R   0.148694 0.547753 0.895335 -0.088793
C24   C     C_R   0.129023 0.499291 0.050763 0.026694
C25   C     C_R   0.298539 0.546604 0.078677 -0.011385
C26   C     C_R   0.385394 0.595766 0.017240 -0.129249
C27   C     C_R   0.305914 0.609452 0.933107 -0.063396
C28   C     C_R   0.038171 0.467775 0.120684 -0.339350
C29   C     C_R   0.281863 0.511223 0.233779 -0.549404
C30   C     C_R   0.082232 0.537470 0.799656 0.172449
H39   H     H_    0.906267 0.445445 0.110222 0.209697
H40   H     H_    0.871033 0.472249 0.698758 0.155935
C31   C     C_R   0.777327 0.180351 0.527001 -0.529057
C32   C     C_R   0.429782 0.809227 0.457517 0.151538
C33   C     C_R   0.390946 0.986472 0.431627 -0.237705
C34   C     C_R   0.328109 0.878430 0.424228 0.056570
C35   C     C_R   0.581832 0.849807 0.514131 0.189404
C36   C     C_R   0.645877 0.962750 0.525842 -0.197142
C37   C     C_R   0.551033 0.029745 0.478841 -0.049589
C38   C     C_R   0.616644 0.139532 0.482548 0.251976
C39   C     C_R   0.872661 0.116575 0.571442 0.166478
C40   C     C_R   0.802477 0.012158 0.578670 -0.128005
H41   H     H_    0.311641 0.035743 0.400549 0.229972
H42   H     H_    0.830385 0.262551 0.525471 0.174404
O25   O     O_3   0.717899 0.174076 0.225514 -0.772953
H43   H     H_    0.764078 0.147608 0.170306 0.322908
O26   O     O_3   0.001032 0.061129 0.271863 -0.655951
H44   H     H_    0.919613 0.017899 0.221150 0.349908
O27   O     O_3   0.714588 0.639049 0.765984 -0.704231
H45   H     H_    0.661356 0.586787 0.711641 0.339270
C41   C     C_2   0.853769 0.859861 0.873799 0.701999
H46   H     H_    0.725018 0.867228 0.855355 0.094438
O28   O     O_2   0.933849 0.914957 0.942459 -0.618080
C42   C     C_2   0.812857 0.346063 0.965759 0.517000
H47   H     H_    0.878898 0.285085 0.988861 -0.005333
O29   O     O_2   0.673602 0.350163 0.984801 -0.521398
C43   C     C_2   0.378121 0.705561 0.899229 0.640082
H48   H     H_    0.301962 0.765113 0.885334 0.014338
O30   O     O_2   0.525812 0.722702 0.893444 -0.556243
C44   C     C_2   0.883967 0.968489 0.654311 0.731576
H49   H     H_    0.830517 0.968412 0.716472 -0.093525
O31   O     O_2   0.017406 0.939508 0.650082 -0.575682
O32   O     O_3   0.379431 0.700636 0.437575 -0.693203
H50   H     H_    0.338170 0.684504 0.371509 0.305914

loop_
_geom_bond_atom_site_label_1
_geom_bond_atom_site_label_2
_geom_bond_distance
_ccdc_geom_bond_type
P7    O22   1.748091 S    
C10   H19   1.107062 S    
P8    C20   1.853547 S    
C6    O25   1.403438 S    
C21   C22   1.433864 A    
C14   H29   1.109612 S    
C31   H42   1.082418 S    
C7    O26   1.402036 S    
C2    H4    1.109028 S    
O6    C10   1.406293 S    
C19   H40   1.081844 S    
H37   C29   1.081104 S    
O32   H50   0.988346 S    
C4    C5    1.523271 S    
C42   H47   1.084435 S    
P3    O11   1.749642 S    
C31   C39   1.388806 A    
C5    H10   1.104987 S    
C2    H5    1.108341 S    
C16   H36   1.109632 S    
O11   C2    1.405642 S    
C8    H16   1.109474 S    
C23   C27   1.417460 A    
C41   O28   1.219922 D    
O1    Ba1   2.845495 S    
P1    O1    1.517818 D    
Ba1   O13   2.833419 S    
C21   C42   1.479733 S    
C12   H24   1.108430 S    
C36   C37   1.435880 A    
O12   Ba2   2.845909 S    
P4    Ba2   3.383949 S    
P5    O18   1.545627 D    
C37   C38   1.420537 A    
C44   H49   1.078146 S    
P2    O10   1.754653 S    
C33   C34   1.388163 A    
C13   H27   1.109703 S    
C1    C10   1.520099 S    
Ba1   O20   2.893450 S    
C1    H2    1.110412 S    
C4    O15   1.393713 S    
C3    H26   1.109977 S    
C23   C30   1.448984 A    
P2    O20   1.594047 S    
P5    O17   1.725200 S    
P7    O21   1.568323 D    
O13   Ba2   2.910307 S    
C11   H21   1.108197 S    
C17   C29   1.394739 A    
P2    Ba1   3.413470 S    
C14   H30   1.108657 S    
O2    Ba1   2.909481 S    
C33   C37   1.408824 A    
P3    C34   1.849876 S    
H1    C10   1.110652 S    
C18   C28   1.399447 A    
P2    C35   1.875082 S    
C25   C26   1.391492 A    
C11   H22   1.110627 S    
O17   Ba2   2.782821 S    
O16   P7    1.768202 S    
C27   C43   1.465518 S    
P1    O5    1.747742 S    
O4    P6    1.541993 D    
C41   H46   1.081555 S    
C2    C3    1.519968 S    
C16   H35   1.101590 S    
C19   C20   1.393744 A    
C15   H32   1.108843 S    
C17   C25   1.420508 A    
C4    H8    1.103969 S    
C28   H39   1.065806 S    
P1    O2    1.582846 S    
C7    H14   1.112427 S    
P4    O12   1.518126 D    
C18   C29   1.383715 A    
C12   H23   1.110706 S    
C11   O22   1.401834 S    
P4    O13   1.582847 S    
C15   H33   1.111491 S    
H34   C16   1.109282 S    
P8    O24   1.746593 S    
Ba2   O20   2.823316 S    
C24   C25   1.421180 A    
C13   C14   1.521589 S    
C6    H13   1.107570 S    
C22   C24   1.455041 A    
C1    H3    1.108408 S    
C33   H41   1.079199 S    
O27   H45   0.990567 S    
O3    Ba1   2.828511 S    
C32   O32   1.372510 S    
C31   C38   1.393976 A    
P2    O7    1.496560 D    
O3    P6    1.739704 S    
P3    O8    1.740252 S    
C14   H31   1.110835 S    
C3    H7    1.110119 S    
C19   C30   1.392948 A    
P1    C18   1.858290 S    
Ba1   Ba2   4.518946 S    
C39   C40   1.399150 A    
P8    O23   1.543879 D    
C9    C41   1.500840 S    
C36   C40   1.432829 A    
C9    H17   1.106839 S    
C11   C12   1.523734 S    
C42   O29   1.221560 D    
C12   H25   1.110045 S    
C7    H15   1.109192 S    
C40   C44   1.460327 S    
C5    H12   1.109001 S    
O7    Ba1   2.887041 S    
O8    Ba1   2.782198 S    
O14   P8    1.734575 S    
O26   H44   0.990960 S    
C4    H9    1.107195 S    
O5    C6    1.395792 S    
H38   C26   1.078544 S    
C5    H11   1.106517 S    
C43   H48   1.081662 S    
P4    C30   1.905898 S    
O25   H43   0.993098 S    
C8    C9    1.540160 S    
O2    Ba2   2.834016 S    
C15   O24   1.402979 S    
P6    C17   1.845606 S    
C32   C34   1.402607 A    
O16   Ba2   2.892550 S    
C24   C28   1.426531 A    
O14   Ba2   2.827861 S    
C9    H18   1.108966 S    
C20   C21   1.404434 A    
C6    C7    1.533027 S    
C1    H20   1.109919 S    
O10   C8    1.400358 S    
P1    Ba1   3.383408 S    
C22   C23   1.450307 A    
Ba2   O21   2.887326 S    
Ba1   O16   2.823937 S    
C8    O27   1.394770 S    
O19   C13   1.404495 S    
C15   C16   1.519589 S    
P5    O19   1.753085 S    
C44   O31   1.216477 D    
C26   C27   1.389104 A    
P3    O9    1.547715 D    
C3    H6    1.110296 S    
C13   H28   1.107732 S    
O6    P6    1.751973 S    
P7    C38   1.852783 S    
C35   C36   1.443735 A    
P4    O15   1.745655 S    
P5    C39   1.856302 S    
C43   O30   1.217785 D    
C32   C35   1.405430 A    
