data_mof_unit_34315.cif
_audit_creation_date              2012-10-26T19:02:36-0400
_audit_creation_method            fapswitch 2.2
_symmetry_space_group_name_H-M    P1
_symmetry_Int_Tables_number       1
_space_group_crystal_system       triclinic
_cell_length_a                    17.232525
_cell_length_b                    8.784428
_cell_length_c                    7.429787
_cell_angle_alpha                 102.929393
_cell_angle_beta                  89.334732
_cell_angle_gamma                 93.905463
_cell_volume                      1093.63699293

loop_
_atom_site_label
_atom_site_type_symbol
_atom_type_description
_atom_site_fract_x
_atom_site_fract_y
_atom_site_fract_z
_atom_type_partial_charge
C1    C     C_R   0.496595 0.200177 0.454724 0.584251
C2    C     C_R   0.781788 0.623215 0.514818 0.053083
C3    C     C_R   0.138310 0.384347 0.498392 -0.136748
C4    C     C_R   0.861770 0.615022 0.500948 -0.136897
C5    C     C_R   0.105920 0.525370 0.579171 -0.005597
C6    C     C_R   0.894032 0.473676 0.421000 -0.005587
C7    C     C_R   0.154589 0.657512 0.659873 0.294561
C8    C     C_R   0.845268 0.341415 0.341078 0.294660
C9    C     C_R   0.235520 0.652163 0.639058 0.081965
C10   C     C_R   0.764339 0.347186 0.361626 0.082114
C11   C     C_2   0.021351 0.536922 0.573684 -0.108699
C12   C     C_R   0.503406 0.799824 0.545275 0.584191
C13   C     C_2   0.978580 0.461932 0.426591 -0.108688
C14   C     C_3   0.115906 0.804687 0.932493 -0.085236
C15   C     C_3   0.884032 0.192112 0.069846 -0.085016
C16   C     C_2   0.488492 0.033638 0.432139 0.072960
C17   C     C_2   0.511543 0.966358 0.567835 0.072992
C18   C     C_R   0.351274 0.504112 0.527933 0.581167
C19   C     C_R   0.648723 0.495892 0.472061 0.581250
C20   C     C_R   0.267438 0.510853 0.551826 -0.009092
C21   C     C_R   0.732544 0.488855 0.448095 -0.008958
C22   C     C_R   0.218302 0.376488 0.484451 0.053076
Cu1   Cu    Cu3+1 0.508700 0.517250 0.683000 1.077324
Cu2   Cu    Cu3+1 0.491300 0.482750 0.317000 1.077343
H1    H     H_    0.005674 0.386194 0.310824 0.149473
H2    H     H_    0.910409 0.081146 0.005776 0.163900
H3    H     H_    0.922860 0.290045 0.040243 0.099761
H4    H     H_    0.826280 0.190025 0.003523 0.171248
H5    H     H_    0.994234 0.612721 0.689410 0.150016
H6    H     H_    0.898816 0.719647 0.554418 0.157921
H7    H     H_    0.101365 0.279675 0.444436 0.157828
H8    H     H_    0.438738 0.379953 0.958882 0.260045
H9    H     H_    0.561263 0.620044 0.041118 0.260048
H10   H     H_    0.173761 0.806864 0.998364 0.171240
H11   H     H_    0.077395 0.705894 0.961099 0.099666
H12   H     H_    0.089267 0.915103 0.997907 0.163798
I1    I     I_    0.259785 0.157535 0.356573 -0.285661
I2    I     I_    0.740462 0.842565 0.641741 -0.285665
I3    I     I_    0.693310 0.135486 0.279195 -0.222087
I4    I     I_    0.306298 0.864076 0.722121 -0.221771
I5    I     I_    0.431110 0.915955 0.176981 -0.171887
I6    I     I_    0.569078 0.084016 0.822807 -0.171944
N1    N     N_2   0.478180 0.456750 0.041980 -0.237488
N2    N     N_2   0.521820 0.543250 0.958020 -0.237504
O1    O     O_R   0.505650 0.286040 0.618880 -0.505166
O2    O     O_3   0.876890 0.201669 0.261422 -0.543416
O3    O     O_R   0.494350 0.713960 0.381120 -0.505167
O4    O     O_R   0.490960 0.256910 0.309800 -0.460547
O5    O     O_R   0.509040 0.743090 0.690200 -0.460609
O6    O     O_R   0.394600 0.516230 0.672450 -0.498398
O7    O     O_R   0.605400 0.483770 0.327550 -0.498385
O8    O     O_R   0.379910 0.487100 0.363380 -0.478045
O9    O     O_R   0.620090 0.512900 0.636620 -0.478053
O10   O     O_3   0.122856 0.796773 0.741161 -0.543570

loop_
_geom_bond_atom_site_label_1
_geom_bond_atom_site_label_2
_ccdc_geom_bond_type
C12   C17   S    
C14   H10   S    
C2    C4    A    
N1    N2    D    
C1    O4    A    
Cu2   O8    S    
Cu1   O1    S    
C2    I2    S    
C9    C20   A    
C15   H3    S    
C7    O10   S    
C18   O6    A    
Cu1   Cu2   S    
C1    O1    A    
C7    C9    A    
C19   O9    A    
C2    C21   A    
C12   O5    A    
C3    C5    A    
C18   O8    A    
C1    C16   S    
C6    C13   S    
C3    H7    S    
C11   C13   D    
C13   H1    S    
C15   H4    S    
Cu1   O6    S    
Cu2   O7    S    
C12   O3    A    
Cu1   O9    S    
C4    C6    A    
C19   C21   S    
H8    N1    S    
C20   C22   A    
C5    C11   S    
C18   C20   S    
C10   C21   A    
C14   H12   S    
H9    N2    S    
C8    O2    S    
Cu1   O5    S    
Cu2   O3    S    
Cu2   O4    S    
C19   O7    A    
C11   H5    S    
C8    C10   A    
C14   H11   S    
C5    C7    A    
Cu2   N1    S    
C17   I6    S    
C16   C17   D    
C3    C22   A    
C6    C8    A    
C15   O2    S    
C14   O10   S    
C22   I1    S    
C16   I5    S    
C9    I4    S    
C4    H6    S    
Cu1   N2    S    
C10   I3    S    
C15   H2    S    
