data_mof_unit_52432.cif
_audit_creation_date              2012-12-10T17:10:28-0500
_audit_creation_method            fapswitch 2.2
_symmetry_space_group_name_H-M    P1
_symmetry_Int_Tables_number       1
_space_group_crystal_system       triclinic
_cell_length_a                    10.834325
_cell_length_b                    13.1869
_cell_length_c                    11.803419
_cell_angle_alpha                 97.654254
_cell_angle_beta                  96.901012
_cell_angle_gamma                 91.108077
_cell_volume                      1658.16311103

loop_
_atom_site_label
_atom_site_type_symbol
_atom_type_description
_atom_site_fract_x
_atom_site_fract_y
_atom_site_fract_z
_atom_type_partial_charge
C1    C     C_R   0.503614 0.300208 0.481574 0.899301
C2    C     C_R   0.496385 0.699791 0.518426 0.899299
C3    C     C_R   0.489403 0.811678 0.524985 -0.069043
C4    C     C_R   0.510593 0.188321 0.475014 -0.069044
C5    C     C_R   0.535381 0.028564 0.355171 -0.034050
C6    C     C_R   0.464606 0.971436 0.644823 -0.034056
C7    C     C_R   0.528086 0.133839 0.369170 -0.211622
C8    C     C_R   0.471906 0.866161 0.630827 -0.211626
C9    C     C_R   0.505037 0.135554 0.571358 -0.062450
C10   C     C_R   0.494956 0.864445 0.428638 -0.062453
C11   C     C_R   0.492090 0.027364 0.554993 0.079982
C12   C     C_R   0.507900 0.972635 0.445002 0.079980
C13   C     C_R   0.378139 0.406400 0.021733 0.492509
C14   C     C_R   0.621861 0.593600 0.978267 0.492509
C15   C     C_R   0.390244 0.414932 0.142488 0.009511
C16   C     C_R   0.609756 0.585068 0.857512 0.009509
C17   C     C_R   0.553484 0.539898 0.157695 0.077019
C18   C     C_R   0.446516 0.460102 0.842305 0.077017
C19   C     C_R   0.544584 0.533935 0.034604 -0.149136
C20   C     C_R   0.455416 0.466065 0.965396 -0.149137
C21   C     C_R   0.262039 0.502616 0.496430 0.879196
C22   C     C_R   0.737961 0.497384 0.503570 0.879195
C23   C     C_R   0.121378 0.311117 0.494030 0.505728
C24   C     C_R   0.878623 0.688883 0.505970 0.505728
C25   C     C_R   0.061089 0.224487 0.519976 0.648053
C26   C     C_R   0.938912 0.775512 0.480020 0.648053
C27   C     C_R   0.948931 0.233425 0.565135 -0.311984
C28   C     C_R   0.051068 0.766573 0.434859 -0.311985
C29   C     C_R   0.891863 0.327613 0.576782 -0.167865
C30   C     C_R   0.108135 0.672384 0.423213 -0.167867
C31   C     C_R   0.941016 0.412274 0.530890 -0.057558
C32   C     C_R   0.058984 0.587725 0.469108 -0.057560
C33   C     C_R   0.064103 0.407380 0.503100 -0.120822
C34   C     C_R   0.935897 0.592619 0.496899 -0.120822
C35   C     C_R   0.874045 0.502039 0.515605 -0.061052
C36   C     C_R   0.125955 0.497960 0.484395 -0.061053
Cu1   Cu    Cu3+1 0.509250 0.507730 0.615930 1.001175
Cu2   Cu    Cu3+1 0.490750 0.492270 0.384070 1.001174
H1    H     H_    0.089292 0.831696 0.401772 0.214414
H2    H     H_    0.910706 0.168301 0.598220 0.214415
H3    H     H_    0.457098 0.825732 0.702656 0.166925
H4    H     H_    0.542890 0.174268 0.297341 0.166926
N1    N     N_R   0.523180 0.519350 0.790130 -0.271981
N2    N     N_R   0.476820 0.480650 0.209870 -0.271981
O1    O     O_R   0.506570 0.354460 0.582000 -0.590025
O2    O     O_R   0.493430 0.645540 0.418000 -0.590027
O3    O     O_R   0.490940 0.341410 0.386200 -0.588614
O4    O     O_R   0.509060 0.658590 0.613800 -0.588612
O5    O     O_R   0.327470 0.506520 0.597900 -0.600145
O6    O     O_R   0.672530 0.493480 0.402100 -0.600146
O7    O     O_R   0.311840 0.493460 0.402100 -0.572592
O8    O     O_R   0.688160 0.506540 0.597900 -0.572591
F1    F     F_    0.289489 0.339300 0.961307 -0.664009
F2    F     F_    0.710511 0.660700 0.038692 -0.664009
F3    F     F_    0.235393 0.299168 0.459547 -0.654783
F4    F     F_    0.764609 0.700832 0.540456 -0.654781
F5    F     F_    0.117225 0.133173 0.511065 -0.605012
F6    F     F_    0.882776 0.866826 0.488932 -0.605010
C37   C     C_1   0.810438 0.342229 0.664806 0.317612
N3    N     N_1   0.748679 0.354916 0.738430 -0.235701
C38   C     C_1   0.189558 0.657766 0.335188 0.317618
N4    N     N_1   0.251315 0.645077 0.261562 -0.235702
C39   C     C_1   0.470774 0.810499 0.312559 0.294961
N5    N     N_1   0.450569 0.769786 0.218802 -0.239366
C40   C     C_1   0.529218 0.189498 0.687439 0.294965
N6    N     N_1   0.549422 0.230209 0.781196 -0.239367
C41   C     C_1   0.581233 0.983624 0.250167 0.299701
N7    N     N_1   0.618520 0.948603 0.166192 -0.189946
C42   C     C_1   0.418732 0.016375 0.749816 0.299709
N8    N     N_1   0.381425 0.051396 0.833779 -0.189936
C43   C     C_1   0.357264 0.389384 0.771303 0.510261
N9    N     N_1   0.285253 0.331386 0.716431 -0.217077
C44   C     C_1   0.642735 0.610617 0.228697 0.510258
N10   N     N_1   0.714746 0.668616 0.283571 -0.217077
C45   C     C_1   0.692334 0.647624 0.807043 0.455415
N11   N     N_1   0.760062 0.699043 0.769251 -0.176928
C46   C     C_1   0.307666 0.352375 0.192957 0.455413
N12   N     N_1   0.239938 0.300957 0.230750 -0.176931

loop_
_geom_bond_atom_site_label_1
_geom_bond_atom_site_label_2
_ccdc_geom_bond_type
C6    C42   S    
C27   C29   A    
C16   C45   S    
C44   N10   T    
C19   C20   A    
C5    C41   S    
C10   C39   S    
C21   O5    A    
C21   C36   S    
C46   N12   T    
C2    O2    A    
C22   C35   S    
C32   C36   A    
C24   C26   A    
C15   N2    A    
C33   C36   A    
C34   C35   A    
C7    H4    S    
C29   C37   S    
C23   C33   A    
C31   C33   A    
C14   C16   A    
C22   O6    A    
C37   N3    T    
C17   C44   S    
C9    C11   A    
C38   N4    T    
C25   F5    S    
C4    C7    A    
C13   F1    S    
C41   N7    T    
C8    H3    S    
C5    C12   A    
C3    C8    A    
C6    C11   A    
C5    C7    A    
Cu1   O8    S    
C1    O3    A    
C6    C8    A    
Cu2   O7    S    
C28   H1    S    
C2    O4    A    
C24   C34   A    
C32   C34   A    
Cu1   N1    S    
C45   N11   T    
Cu2   N2    S    
Cu1   Cu2   S    
Cu1   O5    S    
C27   H2    S    
Cu1   O4    S    
C26   F6    S    
C16   N1    A    
Cu2   O3    S    
C10   C12   A    
C14   F2    S    
C13   C15   A    
C31   C35   A    
C25   C27   A    
Cu1   O1    S    
C21   O7    A    
C22   O8    A    
C18   C43   S    
C13   C20   A    
C14   C19   A    
C11   C12   A    
C23   F3    S    
Cu2   O6    S    
C24   F4    S    
C26   C28   A    
C1    C4    S    
C28   C30   A    
C2    C3    S    
C17   N2    A    
C43   N9    T    
C29   C31   A    
C3    C10   A    
C18   N1    A    
C30   C32   A    
C1    O1    A    
C15   C46   S    
C17   C19   A    
C18   C20   A    
C23   C25   A    
C42   N8    T    
C9    C40   S    
Cu2   O2    S    
C39   N5    T    
C40   N6    T    
C30   C38   S    
C4    C9    A    
