data_mof_unit_26332.cif
_audit_creation_date              2012-12-10T18:58:12-0500
_audit_creation_method            fapswitch 2.2
_symmetry_space_group_name_H-M    P1
_symmetry_Int_Tables_number       1
_space_group_crystal_system       triclinic
_cell_length_a                    11.03658
_cell_length_b                    10.848845
_cell_length_c                    9.553647
_cell_angle_alpha                 89.445282
_cell_angle_beta                  102.28631
_cell_angle_gamma                 90.863494
_cell_volume                      1117.54696927

loop_
_atom_site_label
_atom_site_type_symbol
_atom_type_description
_atom_site_fract_x
_atom_site_fract_y
_atom_site_fract_z
_atom_type_partial_charge
C1    C     C_R   0.501719 0.262312 0.501027 0.784364
C2    C     C_R   0.512147 0.129211 0.504159 -0.132658
C3    C     C_R   0.526837 0.066000 0.381055 -0.193270
C4    C     C_R   0.525325 0.937596 0.379671 -0.217685
C5    C     C_R   0.509284 0.870911 0.501189 -0.074688
C6    C     C_R   0.507560 0.934612 0.626728 0.027598
C7    C     C_3   0.416167 0.924588 0.721540 -0.488628
C8    C     C_3   0.421907 0.064370 0.728817 0.347784
C9    C     C_R   0.532057 0.604207 0.079317 0.176454
C10   C     C_R   0.451544 0.403510 0.063482 -0.058135
C11   C     C_R   0.450294 0.404310 0.914309 -0.053578
C12   C     C_R   0.262865 0.496816 0.442319 0.860714
C13   C     C_R   0.532445 0.603652 0.932770 0.172976
C14   C     C_3   0.649915 0.676185 0.951218 -0.535025
C15   C     C_3   0.648660 0.681243 0.110418 0.309170
C16   C     C_R   0.500568 0.737634 0.499570 0.800892
C17   C     C_R   0.737061 0.497711 0.558002 0.866829
C18   C     C_2   0.128167 0.485982 0.410838 -0.373693
C19   C     C_2   0.067614 0.481146 0.517937 -0.173460
C20   C     C_2   0.871834 0.493847 0.591359 -0.362384
C21   C     C_2   0.933067 0.472249 0.488086 -0.145581
C22   C     C_R   0.511863 0.061925 0.629732 0.024331
Cu1   Cu    Cu3+1 0.499990 0.499980 0.640670 0.943305
Cu2   Cu    Cu3+1 0.500010 0.500020 0.359330 0.969060
H1    H     H_    0.883645 0.452811 0.379289 0.218309
H2    H     H_    0.413947 0.324421 0.110198 0.151472
H3    H     H_    0.409508 0.327640 0.849231 0.185988
H4    H     H_    0.727037 0.621517 0.926289 0.230204
H5    H     H_    0.637437 0.767751 0.897865 0.149814
H6    H     H_    0.631003 0.774816 0.147857 0.052879
H7    H     H_    0.117161 0.487900 0.628988 0.186275
H8    H     H_    0.921420 0.511032 0.700676 0.146612
H9    H     H_    0.078365 0.480683 0.299858 0.153472
H10   H     H_    0.533781 0.115123 0.283764 0.167902
H11   H     H_    0.530479 0.891374 0.281613 0.151412
H12   H     H_    0.324449 0.888109 0.664278 0.158155
H13   H     H_    0.454232 0.877997 0.825129 0.202679
H14   H     H_    0.332449 0.107623 0.677809 0.086181
N1    N     N_R   0.500780 0.500930 0.148120 -0.174089
N2    N     N_R   0.500790 0.500890 0.852210 -0.180241
O1    O     O_R   0.500000 0.319640 0.618810 -0.587095
O2    O     O_R   0.500010 0.319680 0.381230 -0.594719
O3    O     O_R   0.320680 0.500000 0.575130 -0.584020
O4    O     O_R   0.320690 0.500040 0.337550 -0.585277
O5    O     O_R   0.499990 0.680320 0.618770 -0.574566
O6    O     O_R   0.500000 0.680360 0.381190 -0.593067
O7    O     O_R   0.679310 0.499960 0.662450 -0.587303
O8    O     O_R   0.679320 0.500000 0.424870 -0.522788
O9    O     O_3   0.465585 0.107470 0.871673 -0.586314
C23   C     C_3   0.595983 0.106752 0.918953 -0.303882
H15   H     H_    0.640421 0.176555 0.859529 0.184895
H16   H     H_    0.634382 0.013707 0.910253 0.152777
H17   H     H_    0.619140 0.132537 0.033724 0.172246
O10   O     O_3   0.750470 0.619551 0.194879 -0.532683
C24   C     C_3   0.848429 0.705739 0.236339 -0.325958
H18   H     H_    0.827744 0.769141 0.318773 0.165082
H19   H     H_    0.868000 0.759287 0.143340 0.150242
H20   H     H_    0.934238 0.656129 0.283986 0.190714

loop_
_geom_bond_atom_site_label_1
_geom_bond_atom_site_label_2
_ccdc_geom_bond_type
C16   O5    A    
C2    C22   A    
C8    C22   S    
C24   H18   S    
C14   H4    S    
C6    C7    S    
Cu1   O5    S    
Cu2   O2    S    
C7    H12   S    
C23   H16   S    
Cu1   O1    S    
C17   O8    A    
C11   H3    S    
Cu1   Cu2   S    
Cu2   O6    S    
C10   H2    S    
C2    C3    A    
C7    H13   S    
C4    H11   S    
C19   H7    S    
C7    C8    S    
C12   O4    A    
C13   C14   S    
C11   N2    A    
C8    H14   S    
C8    O9    S    
C1    O1    A    
C19   C21   S    
C18   C19   D    
C12   O3    A    
C24   H19   S    
C9    C15   S    
C5    C6    A    
Cu2   O4    S    
C18   H9    S    
C23   H17   S    
Cu1   O7    S    
C10   C11   A    
C14   H5    S    
C12   C18   S    
C3    C4    A    
Cu2   O8    S    
C15   O10   S    
C1    O2    A    
C9    N1    A    
C17   C20   S    
Cu1   O3    S    
C20   C21   D    
C15   H6    S    
C1    C2    S    
C20   H8    S    
C24   H20   S    
C16   O6    A    
O9    C23   S    
Cu1   N2    S    
C9    C13   A    
O10   C24   S    
C4    C5    A    
C5    C16   S    
C21   H1    S    
C3    H10   S    
C23   H15   S    
C14   C15   S    
Cu2   N1    S    
C17   O7    A    
C10   N1    A    
C13   N2    A    
C6    C22   A    
