data_mof_unit_15164.cif
_audit_creation_date              2012-12-10T17:48:39-0500
_audit_creation_method            fapswitch 2.2
_symmetry_space_group_name_H-M    P1
_symmetry_Int_Tables_number       1
_space_group_crystal_system       triclinic
_cell_length_a                    15.714915
_cell_length_b                    10.599115
_cell_length_c                    9.974915
_cell_angle_alpha                 88.78296
_cell_angle_beta                  90.584285
_cell_angle_gamma                 92.245664
_cell_volume                      1659.74019743

loop_
_atom_site_label
_atom_site_type_symbol
_atom_type_description
_atom_site_fract_x
_atom_site_fract_y
_atom_site_fract_z
_atom_type_partial_charge
C1    C     C_R   0.502421 0.260993 0.500925 0.864855
C2    C     C_R   0.718741 0.074319 0.666548 -0.130777
C3    C     C_R   0.719459 0.943103 0.663607 -0.152033
C4    C     C_R   0.338537 0.499592 0.499460 0.886587
C5    C     C_R   0.650528 0.874534 0.608585 -0.179537
C6    C     C_R   0.579325 0.937142 0.555663 0.095534
C7    C     C_R   0.578649 0.069222 0.558531 0.088140
C8    C     C_R   0.507988 0.128853 0.501256 -0.092084
C9    C     C_R   0.441651 0.062393 0.437485 -0.231259
C10   C     C_R   0.442148 0.933649 0.435209 -0.207208
C11   C     C_R   0.509146 0.872022 0.496205 -0.091216
C12   C     C_3   0.951326 0.457170 0.641355 -0.473912
C13   C     C_R   0.370028 0.370665 0.144266 -0.130673
C14   C     C_R   0.293982 0.336403 0.081491 -0.245431
C15   C     C_R   0.288835 0.342366 0.943385 -0.253729
C16   C     C_R   0.502713 0.739267 0.498793 0.860061
C17   C     C_R   0.363046 0.368650 0.869134 0.262375
C18   C     C_R   0.433915 0.436145 0.929792 0.119022
C19   C     C_R   0.435197 0.436804 0.073901 0.129808
C20   C     C_R   0.562231 0.560813 0.070683 -0.105217
C21   C     C_R   0.562312 0.560627 0.928081 -0.117240
C22   C     C_R   0.661429 0.500264 0.500605 0.867234
C23   C     C_3   0.917187 0.496987 0.500721 0.232471
C24   C     C_3   0.049444 0.454782 0.639036 -0.411330
C25   C     C_3   0.045955 0.403885 0.393062 -0.461289
C26   C     C_3   0.947169 0.403135 0.393501 0.086645
C27   C     C_1   0.750274 0.498873 0.502281 -0.171905
C28   C     C_3   0.082617 0.496695 0.498620 0.304588
C29   C     C_3   0.917086 0.822234 0.336787 -0.825330
C30   C     C_3   0.400883 0.163395 0.802064 -0.752669
C31   C     C_3   0.902659 0.195999 0.302617 -0.823648
C32   C     C_3   0.954264 0.633287 0.469311 0.028835
C33   C     C_3   0.052830 0.631194 0.464010 -0.449068
C34   C     C_1   0.825582 0.497676 0.502731 -0.050525
C35   C     C_1   0.174127 0.496904 0.498153 -0.093420
C36   C     C_1   0.249544 0.498003 0.498314 -0.205607
C37   C     C_R   0.649099 0.137402 0.614454 -0.169521
H1    H     H_    0.923990 0.363303 0.673868 0.177340
H2    H     H_    0.069832 0.357644 0.664367 0.167565
H3    H     H_    0.377053 0.340912 0.246426 0.197957
H4    H     H_    0.241785 0.294021 0.138941 0.153583
H5    H     H_    0.233128 0.298966 0.895594 0.141747
H6    H     H_    0.613233 0.610710 0.874574 0.143822
H7    H     H_    0.069233 0.432741 0.291463 0.153404
H8    H     H_    0.069342 0.307651 0.414628 0.175612
H9    H     H_    0.924710 0.436995 0.293365 0.132375
H10   H     H_    0.080754 0.699750 0.536895 0.160251
H11   H     H_    0.076533 0.661462 0.363064 0.177692
H12   H     H_    0.076775 0.518751 0.716872 0.176037
H13   H     H_    0.936846 0.693809 0.554291 0.148358
H14   H     H_    0.939622 0.646490 0.258434 0.223205
H15   H     H_    0.885574 0.851275 0.241518 0.243173
H16   H     H_    0.982906 0.864455 0.339028 0.238249
H17   H     H_    0.880138 0.858494 0.421186 0.247307
H18   H     H_    0.388544 0.110475 0.392077 0.138813
H19   H     H_    0.320699 0.280880 0.698236 0.202592
H20   H     H_    0.403532 0.101655 0.714196 0.236402
H21   H     H_    0.355108 0.117611 0.873985 0.222974
H22   H     H_    0.465165 0.170747 0.849397 0.253426
H23   H     H_    0.931739 0.525190 0.717705 0.168513
H24   H     H_    0.934808 0.229515 0.501625 0.231443
H25   H     H_    0.869606 0.105255 0.331988 0.250838
H26   H     H_    0.966479 0.176134 0.263054 0.233632
H27   H     H_    0.864052 0.241999 0.222965 0.248849
H28   H     H_    0.651662 0.239351 0.616676 0.146369
H29   H     H_    0.772570 0.127473 0.708334 0.129430
H30   H     H_    0.773848 0.894335 0.703091 0.126812
H31   H     H_    0.654254 0.772950 0.605856 0.137012
H32   H     H_    0.389222 0.881610 0.388850 0.150278
H33   H     H_    0.613157 0.611061 0.123354 0.148491
N1    N     N_R   0.499210 0.498800 0.142780 -0.114675
N2    N     N_R   0.499180 0.498720 0.857170 -0.112355
N3    N     N_2   0.918905 0.685881 0.345305 -0.296537
N4    N     N_2   0.373620 0.287723 0.760239 -0.242500
N5    N     N_2   0.911010 0.275847 0.418259 -0.290387
O1    O     O_R   0.500000 0.316780 0.614690 -0.587741
O2    O     O_R   0.499990 0.316750 0.385360 -0.633080
O3    O     O_R   0.377150 0.500020 0.614720 -0.608240
O4    O     O_R   0.377140 0.499990 0.385380 -0.631215
O5    O     O_R   0.500010 0.683250 0.614640 -0.614340
O6    O     O_R   0.500000 0.683220 0.385310 -0.607692
O7    O     O_R   0.622860 0.500010 0.614620 -0.634157
O8    O     O_R   0.622850 0.499980 0.385280 -0.605215
Zn1   Zn    Zn3+2 0.500010 0.500020 0.653130 0.949731
Zn2   Zn    Zn3+2 0.499990 0.499980 0.346870 0.943326

loop_
_geom_bond_atom_site_label_1
_geom_bond_atom_site_label_2
_ccdc_geom_bond_type
C4    C36   S    
C1    C8    S    
C1    O2    A    
C19   N1    A    
C35   C36   T    
O5    Zn1   S    
O1    Zn1   S    
C7    C8    A    
H24   N5    S    
C25   C28   S    
C12   C23   S    
C22   O7    A    
C5    C6    A    
C30   N4    S    
C29   N3    S    
C29   H17   S    
C30   H20   S    
C24   H2    S    
C18   C19   A    
C23   C26   S    
C13   H3    S    
N1    Zn2   S    
C28   C35   S    
C8    C9    A    
C37   H28   S    
C20   N1    A    
C9    H18   S    
C24   C28   S    
C9    C10   A    
O2    Zn2   S    
C21   H6    S    
C13   C14   A    
C31   H25   S    
C20   H33   S    
C5    H31   S    
C25   H7    S    
C26   N5    S    
C27   C34   T    
C18   N2    A    
H19   N4    S    
C13   C19   A    
C21   N2    A    
C31   H26   S    
C4    O4    A    
C6    C11   A    
C3    C5    A    
C25   C26   S    
C16   O5    A    
C4    O3    A    
C11   C16   S    
C31   N5    S    
C23   C34   S    
C30   H22   S    
C17   C18   A    
C7    C37   A    
C32   H13   S    
N2    Zn1   S    
C14   H4    S    
O8    Zn2   S    
C28   C33   S    
O7    Zn1   S    
C22   C27   S    
C17   N4    S    
C33   H10   S    
C25   H8    S    
O4    Zn2   S    
C24   H12   S    
C15   C17   A    
C1    O1    A    
C31   H27   S    
C3    H30   S    
H14   N3    S    
C15   H5    S    
C2    H29   S    
C6    C7    A    
C12   C24   S    
C32   C33   S    
C2    C3    A    
C23   C32   S    
C22   O8    A    
C2    C37   A    
C29   H16   S    
C30   H21   S    
C16   O6    A    
C12   H1    S    
C10   C11   A    
C26   H9    S    
C12   H23   S    
C10   H32   S    
O3    Zn1   S    
C20   C21   A    
C33   H11   S    
C14   C15   A    
C32   N3    S    
O6    Zn2   S    
C29   H15   S    
