data_mof_unit_36582.cif
_audit_creation_date              2012-12-10T18:50:01-0500
_audit_creation_method            fapswitch 2.2
_symmetry_space_group_name_H-M    P1
_symmetry_Int_Tables_number       1
_space_group_crystal_system       triclinic
_cell_length_a                    10.65898
_cell_length_b                    9.88774
_cell_length_c                    10.645868
_cell_angle_alpha                 90.023129
_cell_angle_beta                  91.205704
_cell_angle_gamma                 89.999976
_cell_volume                      1121.75382924

loop_
_atom_site_label
_atom_site_type_symbol
_atom_type_description
_atom_site_fract_x
_atom_site_fract_y
_atom_site_fract_z
_atom_type_partial_charge
C1    C     C_R   0.260925 0.499994 0.482403 0.929786
C2    C     C_R   0.564644 0.928866 0.591196 0.480170
C3    C     C_R   0.435442 0.928181 0.409301 -0.133098
C4    C     C_R   0.435465 0.071734 0.409285 -0.129942
C5    C     C_R   0.499556 0.500214 0.257941 0.969338
C6    C     C_R   0.740426 0.499998 0.497688 0.966620
C7    C     C_R   0.499994 0.500250 0.742084 1.007616
C8    C     C_3   0.379129 0.426349 0.070535 0.182144
C9    C     C_3   0.617080 0.421226 0.075017 0.174706
C10   C     C_3   0.383960 0.418254 0.925130 0.184583
C11   C     C_3   0.621761 0.429653 0.929661 0.183588
C12   C     C_3   0.494379 0.648716 0.928961 -0.421481
C13   C     C_3   0.501427 0.648793 0.071256 -0.452170
C14   C     C_3   0.499500 0.500636 0.121808 -0.141910
C15   C     C_3   0.499759 0.500700 0.878319 -0.178514
C16   C     C_R   0.061995 0.376043 0.446653 0.452338
C17   C     C_R   0.061994 0.623947 0.446792 0.432614
C18   C     C_R   0.935148 0.377101 0.466356 -0.119366
C19   C     C_R   0.935155 0.622883 0.466508 -0.165103
C20   C     C_R   0.872855 0.499991 0.480958 -0.201239
C21   C     C_R   0.128105 0.499994 0.452784 -0.292856
C22   C     C_R   0.564543 0.071254 0.591261 0.480648
H1    H     H_    0.399834 0.310105 0.900654 0.130913
H2    H     H_    0.384045 0.125703 0.336396 0.163405
H3    H     H_    0.380647 0.320528 0.106464 0.113712
H4    H     H_    0.603552 0.312678 0.099347 0.120251
H5    H     H_    0.259360 0.552976 0.867484 0.344319
H6    H     H_    0.739407 0.582639 0.922125 0.358321
H7    H     H_    0.422112 0.709192 0.107827 0.197252
H8    H     H_    0.587391 0.703349 0.103273 0.196425
H9    H     H_    0.182171 0.268479 0.358793 0.348030
H10   H     H_    0.182113 0.731568 0.359001 0.338225
H11   H     H_    0.657117 0.224303 0.654625 0.374067
H12   H     H_    0.622735 0.323891 0.893657 0.157766
H13   H     H_    0.656971 0.775657 0.654578 0.372504
H14   H     H_    0.407331 0.701106 0.896803 0.199632
H15   H     H_    0.572458 0.711064 0.892761 0.238531
H16   H     H_    0.885503 0.281456 0.467898 0.197948
H17   H     H_    0.885521 0.718533 0.468178 0.199191
H18   H     H_    0.258175 0.576275 0.078953 0.351675
H19   H     H_    0.738339 0.558982 0.133875 0.340754
H20   H     H_    0.384010 0.874149 0.336422 0.161857
N1    N     N_R   0.499970 0.857200 0.499970 -0.175127
N2    N     N_R   0.499970 0.142800 0.499970 -0.174454
O1    O     O_R   0.316750 0.614620 0.499990 -0.592761
O2    O     O_3   0.731085 0.459337 0.134846 -0.697827
O3    O     O_3   0.269183 0.453612 0.865388 -0.681954
O4    O     O_3   0.732308 0.490626 0.886137 -0.697324
O5    O     O_3   0.117623 0.253107 0.422971 -0.709921
O6    O     O_3   0.117618 0.746897 0.423249 -0.716314
O7    O     O_3   0.633710 0.134253 0.684722 -0.726904
O8    O     O_3   0.634264 0.866049 0.684370 -0.735347
O9    O     O_R   0.316750 0.385380 0.499990 -0.579955
O10   O     O_R   0.499970 0.614670 0.314790 -0.642421
O11   O     O_R   0.499970 0.385330 0.314790 -0.644475
O12   O     O_R   0.683220 0.614710 0.500010 -0.660071
O13   O     O_R   0.683220 0.385290 0.500010 -0.648691
O14   O     O_R   0.500010 0.614660 0.685200 -0.626960
O15   O     O_R   0.500010 0.385340 0.685200 -0.627308
O16   O     O_3   0.267199 0.484176 0.114259 -0.727783
Zn1   Zn    Zn3+2 0.499980 0.653120 0.500000 0.965049
Zn2   Zn    Zn3+2 0.499980 0.346880 0.500000 0.987297

loop_
_geom_bond_atom_site_label_1
_geom_bond_atom_site_label_2
_ccdc_geom_bond_type
C17   O6    S    
C2    C22   A    
H19   O2    S    
C8    C10   S    
C3    H20   S    
C1    C21   S    
C16   C21   A    
H18   O16   S    
O10   Zn1   S    
C8    O16   S    
C10   H1    S    
H11   O7    S    
C6    C20   S    
O9    Zn2   S    
C5    O10   A    
C7    O14   A    
C19   C20   A    
C12   C15   S    
C2    N1    A    
C9    C14   S    
C1    O1    A    
O14   Zn1   S    
C7    C15   S    
C5    C14   S    
O13   Zn2   S    
C13   C14   S    
C12   C13   S    
C8    H3    S    
C9    C11   S    
C6    O13   A    
C3    N1    A    
C11   O4    S    
C2    O8    S    
H9    O5    S    
C19   H17   S    
C7    O15   A    
C17   C19   A    
C9    H4    S    
H10   O6    S    
C18   C20   A    
C10   C15   S    
C18   H16   S    
C4    H2    S    
C17   C21   A    
C10   O3    S    
C12   H14   S    
C13   H7    S    
H5    O3    S    
C3    C4    A    
O11   Zn2   S    
C13   H8    S    
C9    O2    S    
C16   O5    S    
N1    Zn1   S    
C16   C18   A    
C12   H15   S    
O1    Zn1   S    
H13   O8    S    
C1    O9    A    
O12   Zn1   S    
H6    O4    S    
O15   Zn2   S    
C8    C14   S    
C4    N2    A    
N2    Zn2   S    
C11   C15   S    
C5    O11   A    
C11   H12   S    
C22   N2    A    
C6    O12   A    
C22   O7    S    
