data_mof_unit_32815.cif
_audit_creation_date              2012-12-10T19:07:00-0500
_audit_creation_method            fapswitch 2.2
_symmetry_space_group_name_H-M    P1
_symmetry_Int_Tables_number       1
_space_group_crystal_system       triclinic
_cell_length_a                    27.775996
_cell_length_b                    10.812666
_cell_length_c                    9.536983
_cell_angle_alpha                 90.068657
_cell_angle_beta                  89.965247
_cell_angle_gamma                 90.127657
_cell_volume                      2864.25690325

loop_
_atom_site_label
_atom_site_type_symbol
_atom_type_description
_atom_site_fract_x
_atom_site_fract_y
_atom_site_fract_z
_atom_type_partial_charge
C1    C     C_R   0.499065 0.262309 0.499906 0.805051
C2    C     C_R   0.278223 0.487729 0.624238 -0.102128
C3    C     C_R   0.253358 0.499664 0.497339 0.359282
C4    C     C_R   0.101583 0.497784 0.485348 -0.048770
C5    C     C_R   0.127096 0.387338 0.509460 -0.008907
C6    C     C_R   0.101809 0.276545 0.526962 -0.144934
C7    C     C_R   0.127226 0.608574 0.464944 -0.066663
C8    C     C_R   0.354375 0.499906 0.499460 -0.038957
C9    C     C_R   0.645482 0.499913 0.501363 -0.037559
C10   C     C_R   0.974282 0.382659 0.484882 0.042727
C11   C     C_R   0.974647 0.610321 0.487615 0.046075
C12   C     C_R   0.407416 0.499944 0.499963 0.798949
C13   C     C_R   0.949191 0.496537 0.488689 0.069318
C14   C     C_R   0.947332 0.271948 0.473876 -0.208878
C15   C     C_R   0.897245 0.273418 0.474102 -0.142848
C16   C     C_R   0.872262 0.384990 0.487303 -0.020940
C17   C     C_R   0.898179 0.496769 0.495988 -0.045657
C18   C     C_R   0.873088 0.608797 0.513030 -0.017075
C19   C     C_R   0.822581 0.607299 0.517105 0.533975
C20   C     C_R   0.821745 0.387774 0.491008 0.534841
C21   C     C_R   0.720744 0.454829 0.620108 -0.097405
C22   C     C_R   0.670521 0.455628 0.619018 -0.221533
C23   C     C_R   0.499199 0.737716 0.499983 0.805306
C24   C     C_R   0.671495 0.544535 0.385690 -0.218547
C25   C     C_R   0.721681 0.544234 0.387204 -0.100467
C26   C     C_R   0.746450 0.499070 0.504161 0.355792
C27   C     C_R   0.025248 0.383445 0.494597 0.055508
C28   C     C_R   0.050544 0.497321 0.481624 0.029961
C29   C     C_R   0.025236 0.610456 0.464261 0.024407
C30   C     C_R   0.051864 0.274297 0.519069 -0.204258
C31   C     C_R   0.102245 0.716749 0.432240 -0.149557
C32   C     C_R   0.948934 0.719242 0.519359 -0.216525
C33   C     C_R   0.898968 0.719001 0.529007 -0.150713
C34   C     C_R   0.592535 0.500127 0.500175 0.800101
C35   C     C_R   0.051970 0.717842 0.423924 0.160529
C36   C     C_R   0.494149 0.063800 0.625700 0.121958
C37   C     C_R   0.494207 0.129229 0.499683 -0.096578
C38   C     C_R   0.487490 0.064253 0.373390 -0.208101
C39   C     C_R   0.487615 0.935353 0.373435 -0.209326
C40   C     C_R   0.494443 0.870796 0.499781 -0.097873
C41   C     C_R   0.494331 0.936559 0.625730 0.137602
C42   C     C_3   0.528357 0.930754 0.746770 -0.474977
C43   C     C_3   0.528001 0.071155 0.747080 -0.455059
C44   C     C_R   0.523502 0.590897 0.073716 0.257356
C45   C     C_R   0.177596 0.390325 0.514930 0.533817
C46   C     C_R   0.473150 0.417301 0.074396 -0.079324
C47   C     C_R   0.473176 0.417233 0.925442 -0.081484
C48   C     C_R   0.523422 0.591082 0.926201 0.254966
C49   C     C_3   0.575890 0.619715 0.919999 -0.491637
C50   C     C_3   0.576051 0.618445 0.078837 -0.510755
C51   C     C_R   0.177755 0.607348 0.470725 0.546521
C52   C     C_R   0.278937 0.511620 0.371608 -0.104955
C53   C     C_R   0.329111 0.511477 0.372447 -0.213968
C54   C     C_R   0.328465 0.488162 0.625494 -0.214513
Cu1   Cu    Cu3+1 0.500000 0.499980 0.640670 0.943558
Cu2   Cu    Cu3+1 0.500000 0.500020 0.359330 0.944446
H1    H     H_    0.346956 0.478848 0.724851 0.157074
H2    H     H_    0.259845 0.520590 0.273187 0.138323
H3    H     H_    0.121990 0.800226 0.406006 0.194769
H4    H     H_    0.967111 0.805331 0.541413 0.164904
H5    H     H_    0.653164 0.581468 0.295172 0.147459
H6    H     H_    0.880751 0.805599 0.549779 0.187748
H7    H     H_    0.741397 0.578927 0.297446 0.140882
H8    H     H_    0.484502 0.112312 0.274195 0.160891
H9    H     H_    0.484700 0.887017 0.274241 0.163990
H10   H     H_    0.511354 0.889749 0.841542 0.197000
H11   H     H_    0.258570 0.478484 0.721770 0.138924
H12   H     H_    0.563852 0.890964 0.717442 0.197858
H13   H     H_    0.510602 0.111212 0.841771 0.195785
H14   H     H_    0.563318 0.112852 0.718610 0.203986
H15   H     H_    0.452159 0.348867 0.130259 0.137367
H16   H     H_    0.452222 0.348708 0.869488 0.139681
H17   H     H_    0.597484 0.543461 0.873933 0.218125
H18   H     H_    0.583177 0.712637 0.875218 0.193868
H19   H     H_    0.597185 0.540171 0.121811 0.217359
H20   H     H_    0.583762 0.710368 0.126159 0.196717
H21   H     H_    0.120555 0.190566 0.546808 0.188001
H22   H     H_    0.651309 0.420242 0.709340 0.148130
H23   H     H_    0.739724 0.419964 0.710930 0.141305
H24   H     H_    0.878171 0.186267 0.465048 0.187450
H25   H     H_    0.964045 0.182695 0.461258 0.138419
H26   H     H_    0.034925 0.185941 0.537276 0.136633
H27   H     H_    0.348056 0.520767 0.273722 0.159143
N1    N     N_R   0.201760 0.499302 0.495660 -0.468373
N2    N     N_R   0.798055 0.497958 0.504696 -0.470020
N3    N     N_R   0.500300 0.500930 0.147930 -0.183671
N4    N     N_R   0.500310 0.500890 0.852020 -0.184134
O1    O     O_R   0.500000 0.319640 0.618810 -0.582680
O2    O     O_2   0.796468 0.281476 0.479897 -0.532925
O3    O     O_2   0.202746 0.713215 0.451735 -0.533065
O4    O     O_2   0.798138 0.714086 0.533448 -0.533142
O5    O     O_R   0.500010 0.319680 0.381230 -0.585512
O6    O     O_R   0.430260 0.500000 0.618780 -0.583737
O7    O     O_R   0.430270 0.500040 0.381190 -0.585206
O8    O     O_R   0.499990 0.680320 0.618770 -0.576021
O9    O     O_R   0.500000 0.680360 0.381190 -0.585397
O10   O     O_R   0.569730 0.499960 0.618810 -0.585467
O11   O     O_R   0.569740 0.500000 0.381220 -0.578984
O12   O     O_2   0.202403 0.285092 0.537876 -0.533266
C55   C     C_3   0.030126 0.828107 0.350393 -0.883517
H28   H     H_    0.053065 0.856011 0.260236 0.240646
H29   H     H_    0.994372 0.806557 0.304732 0.248179
H30   H     H_    0.027825 0.907902 0.423460 0.223323

loop_
_geom_bond_atom_site_label_1
_geom_bond_atom_site_label_2
_ccdc_geom_bond_type
C10   C27   A    
Cu1   Cu2   S    
C24   H5    S    
C41   C42   S    
Cu1   O10   S    
Cu2   O11   S    
C21   C26   A    
Cu2   O7    S    
C28   C29   A    
C16   C20   A    
C51   O3    S    
C5    C6    A    
C9    C22   A    
C23   C40   S    
C34   O10   A    
C23   O9    A    
C18   C19   A    
C25   H7    S    
C31   H3    S    
Cu1   O1    S    
C16   C17   A    
C1    C37   S    
C1    O1    A    
C43   H13   S    
C21   C22   A    
C27   C30   A    
C42   H12   S    
C39   H9    S    
C12   O7    A    
C36   C41   A    
C4    C7    A    
C44   N3    A    
C4    C28   A    
C38   H8    S    
C7    C31   A    
C24   C25   A    
C22   H22   S    
Cu1   O8    S    
C2    H11   S    
C45   O12   S    
C8    C54   A    
C39   C40   A    
C33   H6    S    
C6    H21   S    
C25   C26   A    
C5    C45   A    
C55   H30   S    
C47   N4    A    
C30   H26   S    
C37   C38   A    
C50   H20   S    
Cu2   N3    S    
C15   H24   S    
C8    C12   S    
C20   N2    A    
C21   H23   S    
C55   H29   S    
C17   C18   A    
C48   N4    A    
C46   H15   S    
C52   H2    S    
C48   C49   S    
C6    C30   A    
C11   C32   A    
C43   H14   S    
C2    C54   A    
C9    C34   S    
C31   C35   A    
C12   O6    A    
C45   N1    A    
C42   C43   S    
C32   H4    S    
C35   C55   S    
C3    N1    S    
C52   C53   A    
C44   C50   S    
Cu2   O9    S    
C46   C47   A    
C40   C41   A    
Cu1   O6    S    
C14   C15   A    
C4    C5    A    
C19   N2    A    
C10   C13   A    
C8    C53   A    
C3    C52   A    
C9    C24   A    
C1    O5    A    
C20   O2    S    
C29   C35   A    
C13   C17   A    
C53   H27   S    
C32   C33   A    
C2    C3    A    
C7    C51   A    
C50   H19   S    
C11   C13   A    
C38   C39   A    
C26   N2    S    
C55   H28   S    
C34   O11   A    
C23   O8    A    
C49   H17   S    
Cu1   N4    S    
C18   C33   A    
C47   H16   S    
C19   O4    S    
C44   C48   A    
Cu2   O5    S    
C11   C29   A    
C36   C37   A    
C49   C50   S    
C27   C28   A    
C42   H10   S    
C49   H18   S    
C36   C43   S    
C14   H25   S    
C51   N1    A    
C15   C16   A    
C10   C14   A    
C46   N3    A    
C54   H1    S    
