data_mof_unit_40670.cif
_audit_creation_date              2012-12-11T16:43:11-0500
_audit_creation_method            fapswitch 2.2
_symmetry_space_group_name_H-M    P1
_symmetry_Int_Tables_number       1
_space_group_crystal_system       triclinic
_cell_length_a                    6.922365
_cell_length_b                    23.281221
_cell_length_c                    25.844143
_cell_angle_alpha                 104.835375
_cell_angle_beta                  90.397665
_cell_angle_gamma                 90.37521
_cell_volume                      4025.98384961

loop_
_atom_site_label
_atom_site_type_symbol
_atom_type_description
_atom_site_fract_x
_atom_site_fract_y
_atom_site_fract_z
_atom_type_partial_charge
O1    O     O_R   0.505750 0.453350 0.547660 -0.540094
O2    O     O_R   0.170990 0.432220 0.437590 -0.541068
O3    O     O_R   0.005600 0.546650 0.452340 -0.539567
C1    C     C_R   0.339752 0.415137 0.417607 0.711318
O4    O     O_R   0.175720 0.446240 0.546340 -0.543220
O5    O     O_R   0.010370 0.560770 0.561860 -0.538682
C2    C     C_R   0.345071 0.434369 0.562964 0.687998
O6    O     O_R   0.500990 0.439230 0.438140 -0.538571
O7    O     O_3   0.340820 0.537560 0.504970 -0.367814
V1    V     V_3+5 0.064050 0.493030 0.499080 1.397716
O8    O     O_R   0.680940 0.567780 0.562410 -0.542950
C3    C     C_R   0.850874 0.584312 0.582687 0.713229
O9    O     O_R   0.676210 0.553760 0.453660 -0.542446
C4    C     C_R   0.845000 0.565853 0.437153 0.692189
V2    V     V_3+5 0.564640 0.506970 0.500920 1.397862
O10   O     O_3   0.837740 0.462440 0.495030 -0.368844
C5    C     C_R   0.774353 0.884596 0.122397 -0.160208
H1    H     H_    0.642760 0.903899 0.111749 0.120111
C6    C     C_R   0.763011 0.849069 0.158551 -0.143751
H2    H     H_    0.623528 0.842644 0.175016 0.100639
C7    C     C_R   0.929703 0.823275 0.174098 0.094646
C8    C     C_R   0.108277 0.834088 0.152399 -0.141376
H3    H     H_    0.239322 0.814319 0.162787 0.099263
C9    C     C_R   0.119764 0.869813 0.116309 -0.162363
H4    H     H_    0.259621 0.877064 0.100451 0.118943
C10   C     C_R   0.952864 0.895565 0.100801 -0.052663
C11   C     C_R   0.062985 0.787826 0.251576 -0.150720
H5    H     H_    0.185754 0.817525 0.254251 0.110176
C12   C     C_R   0.050379 0.752795 0.288168 -0.150783
H6    H     H_    0.163991 0.756539 0.317878 0.108813
C13   C     C_R   0.891526 0.714436 0.287153 0.081579
C14   C     C_R   0.745579 0.712180 0.248490 -0.150983
H7    H     H_    0.622813 0.682480 0.245816 0.109747
C15   C     C_R   0.758186 0.747211 0.211897 -0.151267
H8    H     H_    0.644577 0.743468 0.182187 0.108225
C16   C     C_R   0.917056 0.785563 0.212908 0.081595
C17   C     C_R   0.700426 0.665863 0.347654 -0.140522
H9    H     H_    0.569340 0.685623 0.337281 0.099417
C18   C     C_R   0.689044 0.630125 0.383737 -0.161644
H10   H     H_    0.549226 0.622856 0.399607 0.119746
C19   C     C_R   0.856009 0.604388 0.399227 -0.055648
C20   C     C_R   0.034466 0.615377 0.377614 -0.159232
H11   H     H_    0.166106 0.596085 0.388245 0.120783
C21   C     C_R   0.045702 0.650914 0.341468 -0.143431
H12   H     H_    0.185151 0.657355 0.324992 0.100359
C22   C     C_R   0.878955 0.676701 0.325945 0.094590
C23   C     C_R   0.031481 0.639375 0.665009 -0.214976
C24   C     C_R   0.865301 0.633459 0.632203 -0.085859
C25   C     C_R   0.714706 0.674597 0.647004 -0.223288
C26   C     C_R   0.730421 0.721559 0.693512 0.090574
C27   C     C_R   0.896883 0.726755 0.726353 0.054182
C28   C     C_R   0.047422 0.685305 0.712135 0.088548
C29   C     C_R   0.582862 0.763570 0.707744 -0.179310
C30   C     C_R   0.598549 0.809797 0.754457 -0.185700
C31   C     C_R   0.762335 0.814934 0.787717 0.083328
C32   C     C_R   0.912873 0.773483 0.773493 0.053231
C33   C     C_R   0.079289 0.778652 0.806347 0.093770
C34   C     C_R   0.226914 0.736671 0.792097 -0.181408
C35   C     C_R   0.211262 0.690462 0.745375 -0.191092
C36   C     C_R   0.778177 0.860813 0.834888 -0.196295
C37   C     C_R   0.944173 0.866624 0.867752 -0.085966
C38   C     C_R   0.094850 0.825533 0.852910 -0.228648
H13   H     H_    0.147840 0.607703 0.654230 0.125529
H14   H     H_    0.586511 0.670595 0.621950 0.129040
H15   H     H_    0.454462 0.760454 0.682921 0.136918
H16   H     H_    0.481765 0.841343 0.764752 0.136739
H17   H     H_    0.661851 0.892495 0.845677 0.130138
H18   H     H_    0.222966 0.829490 0.877989 0.126500
H19   H     H_    0.355300 0.739782 0.816925 0.134969
H20   H     H_    0.328061 0.658923 0.735078 0.133115
C39   C     C_R   0.288225 0.170357 0.140070 -0.214160
C40   C     C_R   0.456358 0.135376 0.131088 -0.083943
C41   C     C_R   0.605123 0.147322 0.169884 -0.224583
C42   C     C_R   0.584499 0.192470 0.217617 0.093566
C43   C     C_R   0.415490 0.227271 0.226062 0.052462
C44   C     C_R   0.267695 0.216440 0.186887 0.088047
C45   C     C_R   0.728939 0.203126 0.257398 -0.179848
C46   C     C_R   0.708088 0.248405 0.304539 -0.193818
C47   C     C_R   0.541701 0.283686 0.313021 0.087792
C48   C     C_R   0.393907 0.272858 0.273846 0.052525
C49   C     C_R   0.224893 0.307657 0.282294 0.093886
C50   C     C_R   0.080457 0.297003 0.242512 -0.180307
C51   C     C_R   0.101310 0.251724 0.195369 -0.194642
C52   C     C_R   0.521158 0.329760 0.359842 -0.212978
C53   C     C_R   0.353011 0.364733 0.368834 -0.085679
C54   C     C_R   0.204253 0.352796 0.330034 -0.224412
H21   H     H_    0.172929 0.161801 0.110402 0.127655
H22   H     H_    0.734354 0.120446 0.163612 0.123318
H23   H     H_    0.859037 0.176695 0.251900 0.137427
H24   H     H_    0.822985 0.256057 0.334269 0.134297
H25   H     H_    0.636447 0.338309 0.389512 0.128770
H26   H     H_    0.075010 0.379667 0.336314 0.123662
H27   H     H_    0.950354 0.323431 0.248010 0.137164
H28   H     H_    0.986411 0.244070 0.165639 0.133603
C55   C     C_R   0.286021 0.103313 0.864983 -0.041617
C56   C     C_R   0.279783 0.140601 0.830158 -0.179438
H29   H     H_    0.152134 0.140176 0.805473 0.111191
C57   C     C_R   0.437403 0.177144 0.825667 0.080828
C58   C     C_R   0.603995 0.175453 0.856570 -0.145163
H30   H     H_    0.727856 0.203239 0.854048 0.104786
C59   C     C_R   0.611164 0.138933 0.892024 -0.143256
H31   H     H_    0.740939 0.139680 0.915838 0.135383
C60   C     C_R   0.452676 0.102649 0.897345 -0.098504
C61   C     C_R   0.583647 0.221379 0.755448 -0.149636
H32   H     H_    0.715464 0.197095 0.757147 0.110393
C62   C     C_R   0.569964 0.256348 0.718810 -0.151125
H33   H     H_    0.691987 0.257758 0.693190 0.105083
C63   C     C_R   0.399687 0.287736 0.714421 0.084290
C64   C     C_R   0.243954 0.283196 0.747936 -0.151804
H34   H     H_    0.112076 0.307570 0.746748 0.106644
C65   C     C_R   0.257119 0.247817 0.784168 -0.151818
H35   H     H_    0.134653 0.245573 0.809458 0.106331
C66   C     C_R   0.426815 0.216311 0.788272 0.090650
C67   C     C_R   0.208073 0.330660 0.649611 -0.139963
H36   H     H_    0.080227 0.307013 0.656951 0.100140
C68   C     C_R   0.194410 0.366105 0.613324 -0.165166
H37   H     H_    0.056260 0.369316 0.594381 0.121559
C69   C     C_R   0.357513 0.396439 0.601293 -0.054532
C70   C     C_R   0.534135 0.390677 0.626738 -0.159510
H38   H     H_    0.662639 0.413760 0.618897 0.121454
C71   C     C_R   0.547352 0.355800 0.663347 -0.145169
H39   H     H_    0.684975 0.353766 0.682916 0.101859
C72   C     C_R   0.384775 0.325097 0.675293 0.095224
O11   O     O_R   0.308350 0.060850 0.061810 -0.540613
O12   O     O_R   0.633860 0.053770 0.953650 -0.530182
O13   O     O_R   0.798960 0.939210 0.938150 -0.537136
C73   C     C_R   0.464466 0.064935 0.936265 0.697820
O14   O     O_R   0.638360 0.067800 0.062400 -0.543598
O15   O     O_R   0.803500 0.953330 0.047670 -0.542643
C74   C     C_R   0.469592 0.084940 0.082341 0.702972
O16   O     O_R   0.303810 0.046730 0.952290 -0.534156
O17   O     O_3   0.468430 0.962490 0.995010 -0.373542
V3    V     V_3+5 0.745300 0.006960 0.000930 1.429128
O18   O     O_R   0.132880 0.946160 0.046390 -0.545383
C75   C     C_R   0.964023 0.934098 0.062875 0.680295
O19   O     O_R   0.128380 0.932130 0.937650 -0.542349
C76   C     C_R   0.958458 0.915627 0.917359 0.751145
V4    V     V_3+5 0.244670 0.992930 0.999140 1.418199
O20   O     O_3   0.971670 0.037510 0.005000 -0.363453
C77   C     C_1   0.121003 0.064860 0.864604 0.291762
N1    N     N_1   0.988619 0.034078 0.864048 -0.362317

loop_
_geom_bond_atom_site_label_1
_geom_bond_atom_site_label_2
_ccdc_geom_bond_type
C31   C32   A    
O13   C76   A    
C59   H31   S    
C11   C12   A    
C19   C20   A    
C55   C56   A    
C1    O6    A    
C61   C62   A    
C49   C50   A    
C33   C38   A    
C18   C19   A    
C7    C16   S    
C45   C46   A    
C46   H24   S    
C45   H23   S    
C55   C77   S    
C17   H9    S    
C5    C10   A    
O11   V4    S    
C6    C7    A    
C9    C10   A    
C27   C32   A    
C64   C65   A    
C23   H13   S    
C47   C52   A    
C62   H33   S    
O17   V4    S    
V2    O10   S    
C57   C58   A    
C68   H37   S    
C15   H8    S    
C41   C42   A    
C69   C70   A    
C10   C75   S    
C7    C8    A    
O15   C75   A    
O8    V2    S    
C52   C53   A    
C58   H30   S    
O13   V3    S    
C55   C60   A    
O17   V3    S    
C42   C45   A    
C56   C57   A    
O1    V2    S    
C52   H25   S    
C63   C64   A    
C29   H15   S    
C43   C48   A    
C49   C54   A    
C3    C24   S    
C59   C60   A    
C50   H27   S    
O9    C4    A    
C2    C69   S    
C20   C21   A    
C44   C51   A    
C61   H32   S    
C21   C22   A    
C67   H36   S    
C70   C71   A    
C26   C29   A    
C42   C43   A    
C27   C28   A    
C77   N1    T    
C36   H17   S    
O19   V4    S    
C18   H10   S    
O4    C2    A    
C46   C47   A    
C48   C49   A    
C57   C66   S    
C1    C53   S    
C26   C27   A    
C34   C35   A    
C53   C54   A    
C51   H28   S    
C13   C22   S    
C61   C66   A    
C36   C37   A    
C14   C15   A    
O2    C1    A    
C43   C44   A    
C41   H22   S    
O5    V1    S    
C12   H6    S    
C28   C35   A    
C23   C24   A    
C29   C30   A    
C56   H29   S    
C5    H1    S    
O11   C74   A    
C65   C66   A    
C9    H4    S    
C70   H38   S    
C40   C74   S    
C71   H39   S    
O18   C75   A    
O3    C4    A    
C4    C19   S    
C39   H21   S    
C67   C72   A    
C24   C25   A    
C58   C59   A    
C50   C51   A    
O6    V2    S    
O9    V2    S    
C8    C9    A    
C25   H14   S    
C32   C33   A    
C63   C72   S    
O2    V1    S    
C60   C73   S    
C21   H12   S    
O7    V1    S    
O12   V3    S    
C30   C31   A    
O15   V3    S    
C65   H35   S    
O1    C2    A    
C13   C14   A    
C40   C41   A    
O14   C74   A    
O18   V4    S    
C67   C68   A    
O8    C3    A    
C34   H19   S    
V3    O20   S    
C23   C28   A    
C30   H16   S    
C11   C16   A    
C38   H18   S    
C14   H7    S    
C6    H2    S    
O7    V2    S    
O4    V1    S    
C12   C13   A    
O16   V4    S    
V1    O10   S    
O14   V3    S    
O5    C3    A    
C37   C76   S    
C33   C34   A    
C39   C44   A    
C62   C63   A    
O3    V1    S    
C5    C6    A    
C68   C69   A    
C15   C16   A    
C37   C38   A    
C73   O16   A    
C71   C72   A    
V4    O20   S    
C35   H20   S    
C47   C48   A    
C39   C40   A    
C17   C18   A    
C25   C26   A    
C20   H11   S    
C64   H34   S    
C11   H5    S    
O12   C73   A    
C8    H3    S    
O19   C76   A    
C54   H26   S    
C17   C22   A    
C31   C36   A    
