data_mof_unit_33814.cif
_audit_creation_date              2012-12-11T14:33:11-0500
_audit_creation_method            fapswitch 2.2
_symmetry_space_group_name_H-M    P1
_symmetry_Int_Tables_number       1
_space_group_crystal_system       triclinic
_cell_length_a                    6.946821
_cell_length_b                    13.841586
_cell_length_c                    17.795295
_cell_angle_alpha                 111.857977
_cell_angle_beta                  95.699093
_cell_angle_gamma                 89.862797
_cell_volume                      1579.13704436

loop_
_atom_site_label
_atom_site_type_symbol
_atom_type_description
_atom_site_fract_x
_atom_site_fract_y
_atom_site_fract_z
_atom_type_partial_charge
O1    O     O_R   0.484560 0.544530 0.414330 -0.531675
O2    O     O_R   0.197040 0.638810 0.585080 -0.540748
O3    O     O_R   0.026800 0.455470 0.585670 -0.540360
C1    C     C_R   0.373347 0.679735 0.609048 0.686678
O4    O     O_R   0.155000 0.556150 0.414940 -0.543448
O5    O     O_R   0.984450 0.372220 0.414320 -0.535588
C2    C     C_R   0.318928 0.569191 0.388732 0.768067
O6    O     O_R   0.526900 0.627780 0.585680 -0.541908
O7    O     O_3   0.339170 0.439750 0.499990 -0.374723
V1    V     V_3+5 0.064350 0.511180 0.500000 1.375721
O8    O     O_R   0.654880 0.361190 0.414920 -0.539984
C3    C     C_R   0.817365 0.325409 0.385983 0.755925
O9    O     O_R   0.696930 0.443850 0.585060 -0.539702
C4    C     C_R   0.873338 0.425176 0.608357 0.694804
V2    V     V_3+5 0.564340 0.488820 0.500000 1.382058
O10   O     O_3   0.839390 0.560250 0.500010 -0.382260
C5    C     C_R   0.036944 0.839825 0.811163 -0.063514
C6    C     C_R   0.904507 0.376202 0.670920 -0.085569
C7    C     C_R   0.913948 0.793202 0.668629 -0.114333
C8    C     C_R   0.967376 0.764305 0.735387 -0.154348
C9    C     C_R   0.040608 0.943876 0.820125 -0.196448
C10   C     C_R   0.972270 0.974782 0.754830 0.093370
C11   C     C_R   0.920798 0.898114 0.677299 0.084025
C12   C     C_R   0.953198 0.080331 0.765466 0.064099
C13   C     C_R   0.918074 0.112108 0.697266 0.047460
C14   C     C_R   0.884425 0.032899 0.619375 -0.129867
C15   C     C_R   0.878230 0.927567 0.610066 -0.171444
C16   C     C_R   0.952756 0.154044 0.843921 -0.174087
C17   C     C_R   0.946904 0.256761 0.857023 -0.182278
C18   C     C_R   0.953148 0.291990 0.793191 0.094633
C19   C     C_R   0.918648 0.221861 0.711436 0.067673
C20   C     C_R   0.994045 0.396983 0.811825 0.136755
C21   C     C_R   0.969580 0.439580 0.751652 -0.164033
C22   C     C_R   0.887411 0.266153 0.650142 -0.211230
H1    H     H_    0.843765 0.868685 0.549695 0.142992
H2    H     H_    0.850687 0.217232 0.586925 0.115136
H3    H     H_    0.000814 0.521908 0.767942 0.109451
H4    H     H_    0.935435 0.308010 0.919128 0.155581
H5    H     H_    0.865371 0.734009 0.610326 0.156541
H6    H     H_    0.955571 0.683114 0.727733 0.092409
H7    H     H_    0.098821 0.999307 0.878905 0.111458
H8    H     H_    0.856954 0.050864 0.565325 0.159133
H9    H     H_    0.945820 0.134093 0.896764 0.136110
H10   H     H_    0.115734 0.221248 0.309988 0.143920
C23   C     C_2   0.130159 0.036923 0.183437 -0.345190
C24   C     C_2   0.970841 0.095364 0.201580 0.194864
H11   H     H_    0.671672 0.189819 0.286510 0.161145
C25   C     C_2   0.812315 0.226936 0.313866 -0.303359
C26   C     C_2   0.974993 0.186406 0.279867 -0.148536
H12   H     H_    0.262153 0.060456 0.225006 0.126326
C27   C     C_R   0.407412 0.786822 0.674590 -0.067199
C28   C     C_R   0.537040 0.473266 0.825225 -0.042135
C29   C     C_R   0.525904 0.891096 0.814022 -0.129598
C30   C     C_R   0.487185 0.794337 0.751658 -0.138246
C31   C     C_R   0.378239 0.880782 0.660169 -0.184921
C32   C     C_R   0.434275 0.982189 0.721312 0.108420
C33   C     C_R   0.495879 0.983870 0.800389 0.109490
C34   C     C_R   0.427324 0.081904 0.710027 0.013331
C35   C     C_R   0.465492 0.178728 0.780913 0.040376
C36   C     C_R   0.500532 0.172544 0.858056 -0.151290
C37   C     C_R   0.521849 0.077831 0.867054 -0.217572
C38   C     C_R   0.393086 0.091804 0.632562 0.137076
C39   C     C_R   0.379782 0.190098 0.627692 -0.215212
C40   C     C_R   0.420273 0.282130 0.695284 0.077236
C41   C     C_R   0.471618 0.279338 0.772995 0.090081
C42   C     C_R   0.417151 0.377178 0.683910 -0.111330
C43   C     C_R   0.473786 0.470852 0.747616 -0.151720
C44   C     C_R   0.531963 0.377476 0.838260 -0.168371
H13   H     H_    0.559246 0.078271 0.927796 0.152786
H14   H     H_    0.576478 0.382052 0.899284 0.110924
H15   H     H_    0.467449 0.542264 0.736049 0.089407
H16   H     H_    0.348506 0.194898 0.568277 0.151841
H17   H     H_    0.579572 0.893484 0.873983 0.149088
H18   H     H_    0.515385 0.724748 0.764423 0.089779
H19   H     H_    0.301103 0.871689 0.602953 0.154241
H20   H     H_    0.518980 0.240874 0.913290 0.136788
H21   H     H_    0.372243 0.378856 0.624480 0.149801
H22   H     H_    0.336002 0.676444 0.198124 0.142200
C45   C     C_2   0.319507 0.606999 0.320838 -0.318702
C46   C     C_2   0.480702 0.647819 0.303763 0.183044
H23   H     H_    0.777374 0.650433 0.214586 0.136359
C47   C     C_2   0.637644 0.666309 0.189273 -0.336468
C48   C     C_2   0.476299 0.665091 0.225980 -0.114924
H24   H     H_    0.186890 0.594059 0.279915 0.101601
O11   O     O_R   0.421600 0.630430 0.917010 -0.526054
O12   O     O_R   0.793840 0.702190 0.087630 -0.537655
O13   O     O_R   0.964010 0.886170 0.088190 -0.520250
C49   C     C_R   0.631884 0.694739 0.116876 0.777420
O14   O     O_R   0.751460 0.619510 0.917500 -0.534018
O15   O     O_R   0.921330 0.802900 0.916840 -0.540725
C50   C     C_R   0.574606 0.578687 0.893024 0.705192
O16   O     O_R   0.464290 0.713700 0.088350 -0.532389
O17   O     O_3   0.609200 0.818520 0.002630 -0.360027
V3    V     V_3+5 0.884140 0.747190 0.002530 1.472644
O18   O     O_R   0.251150 0.814630 0.917340 -0.543452
C51   C     C_R   0.073848 0.812888 0.884085 0.692970
O19   O     O_R   0.293530 0.897310 0.087470 -0.529836
C52   C     C_R   0.129467 0.935405 0.113947 0.797458
V4    V     V_3+5 0.384070 0.769710 0.002370 1.473793
O20   O     O_3   0.109180 0.698190 0.002460 -0.350329
I1    I     I_    0.125343 0.480694 0.930463 -0.425704
I2    I     I_    0.719850 0.073850 0.115438 -0.445486
I3    I     I_    0.392098 0.974598 0.513040 -0.546916
C53   C     C_3   0.661422 0.682501 0.363879 -0.641989
H25   H     H_    0.748369 0.741998 0.352646 0.193064
H26   H     H_    0.622592 0.720184 0.427142 0.198984
H27   H     H_    0.752984 0.614899 0.358550 0.205422

loop_
_geom_bond_atom_site_label_1
_geom_bond_atom_site_label_2
_ccdc_geom_bond_type
H10   C26   S    
C34   C38   A    
C31   C32   A    
C13   C19   A    
O17   V3    S    
C4    C6    S    
O2    C1    A    
O18   C51   A    
C20   I1    S    
C1    O6    A    
C53   H26   S    
O19   C52   A    
O11   C50   A    
C23   C24   D    
C24   I2    S    
C24   C26   S    
C14   C15   A    
C38   C39   A    
C46   C53   S    
C16   C17   A    
C23   C52   S    
O5    C3    A    
C45   H24   S    
C8    H6    S    
O12   C49   A    
O18   V4    S    
V2    O10   S    
O13   V3    S    
C5    C8    A    
C32   C33   A    
O14   V3    S    
O12   V3    S    
C30   H18   S    
O8    V2    S    
H22   C48   S    
V4    O20   S    
C17   H4    S    
O15   V3    S    
O1    V2    S    
C11   C15   A    
O14   C50   A    
O7    V1    S    
O17   V4    S    
C43   H15   S    
C28   C44   A    
C3    C25   S    
O13   C52   A    
C31   H19   S    
C42   C43   A    
C35   C36   A    
O9    C4    A    
C46   C48   S    
C53   H25   S    
O19   V4    S    
H23   C47   S    
C1    C27   S    
C49   O16   A    
C12   C13   A    
O4    C2    A    
C29   C33   A    
C15   H1    S    
C13   C14   A    
C29   C30   A    
C36   H20   S    
C21   H3    S    
C45   C46   D    
C36   C37   A    
C40   C42   A    
C7    C11   A    
C17   C18   A    
O11   V4    S    
H11   C25   S    
V3    O20   S    
C41   C44   A    
C19   C22   A    
C5    C51   S    
C33   C37   A    
C6    C22   A    
O3    C4    A    
C7    H5    S    
C9    H7    S    
C25   C26   D    
O6    V2    S    
O9    V2    S    
C10   C12   A    
O2    V1    S    
C14   H8    S    
C2    C45   S    
C38   I3    S    
C37   H13   S    
C42   H21   S    
O1    C2    A    
C29   H17   S    
C12   C16   A    
C28   C43   A    
O5    V1    S    
O8    C3    A    
O15   C51   A    
C16   H9    S    
C27   C30   A    
C20   C21   A    
C7    C8    A    
C34   C35   A    
O4    V1    S    
O3    V1    S    
V1    O10   S    
C35   C41   A    
C18   C20   A    
C18   C19   A    
C23   H12   S    
C47   C49   S    
C40   C41   A    
C22   H2    S    
C32   C34   A    
C27   C31   A    
O7    V2    S    
C6    C21   A    
C5    C9    A    
C39   C40   A    
C39   H16   S    
C44   H14   S    
C47   C48   D    
C10   C11   A    
C28   C50   S    
C9    C10   A    
C53   H27   S    
O16   V4    S    
