data_mof_unit_13587.cif
_audit_creation_date              2013-03-05T15:51:14-0500
_audit_creation_method            fapswitch 2.2
_symmetry_space_group_name_H-M    P1
_symmetry_Int_Tables_number       1
_space_group_crystal_system       triclinic
_cell_length_a                    19.479522
_cell_length_b                    11.313688
_cell_length_c                    18.682249
_cell_angle_alpha                 89.440881
_cell_angle_beta                  89.817491
_cell_angle_gamma                 90.308602
_cell_volume                      4117.01448086

loop_
_atom_site_label
_atom_site_type_symbol
_atom_site_description
_atom_site_fract_x
_atom_site_fract_y
_atom_site_fract_z
_atom_type_partial_charge
O1    O     O_R   0.787520 0.042810 0.170440 -0.526520
O2    O     O_R   0.212480 0.042810 0.829560 -0.431488
O3    O     O_R   0.287520 0.542810 0.170440 -0.526477
O4    O     O_R   0.712480 0.542810 0.829560 -0.431475
O5    O     O_R   0.765640 0.292100 0.175020 -0.484243
O6    O     O_R   0.234360 0.292100 0.824980 -0.559336
O7    O     O_R   0.265640 0.792100 0.175020 -0.484217
O8    O     O_R   0.734360 0.792100 0.824980 -0.559403
C1    C     C_R   0.730890 0.379838 0.148744 0.541408
C2    C     C_R   0.272947 0.369347 0.854545 0.581387
C3    C     C_R   0.230890 0.879838 0.148744 0.541390
C4    C     C_R   0.772940 0.869367 0.854537 0.581330
O9    O     O_R   0.670190 0.408840 0.168540 -0.490049
O10   O     O_R   0.329810 0.408840 0.831460 -0.429737
O11   O     O_R   0.170190 0.908840 0.168540 -0.490056
O12   O     O_R   0.829810 0.908840 0.831460 -0.429621
O13   O     O_R   0.556620 0.251410 0.175160 -0.444353
O14   O     O_R   0.443380 0.251410 0.824840 -0.461716
O15   O     O_R   0.056620 0.751410 0.175160 -0.444317
O16   O     O_R   0.943380 0.751410 0.824840 -0.461659
C5    C     C_R   0.531823 0.157701 0.147315 0.564058
C6    C     C_R   0.462510 0.154373 0.855485 0.513953
C7    C     C_R   0.031829 0.657702 0.147311 0.564063
C8    C     C_R   0.962519 0.654371 0.855479 0.513928
O17   O     O_R   0.545960 0.049620 0.170320 -0.450788
O18   O     O_R   0.454040 0.049620 0.829680 -0.523119
O19   O     O_R   0.045960 0.549620 0.170320 -0.450762
O20   O     O_R   0.954040 0.549620 0.829680 -0.523165
O21   O     O_R   0.681390 0.958010 0.176690 -0.429030
O22   O     O_R   0.318610 0.958010 0.823310 -0.441992
O23   O     O_R   0.181390 0.458010 0.176690 -0.429045
O24   O     O_R   0.818610 0.458010 0.823310 -0.441965
C9    C     C_R   0.730625 0.013008 0.139537 0.516370
C10   C     C_R   0.271393 0.017110 0.859669 0.541809
C11   C     C_R   0.230629 0.513001 0.139538 0.516376
C12   C     C_R   0.771395 0.517113 0.859668 0.541874
O25   O     O_R   0.787510 0.044390 0.330970 -0.453341
O26   O     O_R   0.212490 0.044390 0.669030 -0.422274
O27   O     O_R   0.287510 0.544390 0.330970 -0.453332
O28   O     O_R   0.712490 0.544390 0.669030 -0.422268
O29   O     O_R   0.765630 0.293570 0.323840 -0.494576
O30   O     O_R   0.234370 0.293570 0.676160 -0.523286
O31   O     O_R   0.265630 0.793570 0.323840 -0.494574
O32   O     O_R   0.734370 0.793570 0.676160 -0.523314
C13   C     C_R   0.729496 0.379452 0.351357 0.528416
C14   C     C_R   0.271254 0.375961 0.647610 0.548693
C15   C     C_R   0.229496 0.879452 0.351357 0.528409
C16   C     C_R   0.771254 0.875961 0.647610 0.548667
O33   O     O_R   0.670190 0.410420 0.329080 -0.539011
O34   O     O_R   0.329810 0.410420 0.670920 -0.490427
O35   O     O_R   0.170190 0.910420 0.329080 -0.539015
O36   O     O_R   0.829810 0.910420 0.670920 -0.490406
O37   O     O_R   0.556610 0.252880 0.323980 -0.472669
O38   O     O_R   0.443390 0.252880 0.676020 -0.468371
O39   O     O_R   0.056610 0.752880 0.323980 -0.472681
O40   O     O_R   0.943390 0.752880 0.676020 -0.468371
C17   C     C_R   0.562117 0.152441 0.360478 0.532969
C18   C     C_R   0.468018 0.157123 0.647625 0.543397
C19   C     C_R   0.062117 0.652441 0.360478 0.532968
C20   C     C_R   0.968018 0.657123 0.647625 0.543370
O41   O     O_R   0.545950 0.051210 0.330860 -0.474222
O42   O     O_R   0.454050 0.051210 0.669140 -0.533048
O43   O     O_R   0.045950 0.551210 0.330860 -0.474216
O44   O     O_R   0.954050 0.551210 0.669140 -0.533045
O45   O     O_R   0.681390 0.959480 0.325510 -0.529686
O46   O     O_R   0.318610 0.959480 0.674490 -0.471791
O47   O     O_R   0.181390 0.459480 0.325510 -0.529689
O48   O     O_R   0.818610 0.459480 0.674490 -0.471782
C21   C     C_R   0.740679 0.975403 0.354747 0.565469
C22   C     C_R   0.271714 0.019349 0.638751 0.552813
C23   C     C_R   0.240679 0.475403 0.354748 0.565468
C24   C     C_R   0.771714 0.519348 0.638752 0.552816
Cr1   Cr    Cr6+3 0.772010 0.169670 0.250090 1.118300
Cr2   Cr    Cr6+3 0.227990 0.169670 0.749910 1.124882
Cr3   Cr    Cr6+3 0.272010 0.669670 0.250090 1.118360
Cr4   Cr    Cr6+3 0.727990 0.669670 0.749910 1.124810
Cr5   Cr    Cr6+3 0.615000 0.323260 0.249260 1.132950
Cr6   Cr    Cr6+3 0.385000 0.323260 0.750740 1.170138
Cr7   Cr    Cr6+3 0.115000 0.823260 0.249260 1.132941
Cr8   Cr    Cr6+3 0.885000 0.823260 0.750740 1.170268
Cr9   Cr    Cr6+3 0.616710 0.010760 0.250840 1.138848
Cr10  Cr    Cr6+3 0.383290 0.010760 0.749160 1.112834
Cr11  Cr    Cr6+3 0.116710 0.510760 0.250840 1.138844
Cr12  Cr    Cr6+3 0.883290 0.510760 0.749160 1.112855
O49   O     O_3   0.667900 0.167900 0.250060 -0.357938
O50   O     O_3   0.332100 0.167900 0.749940 -0.377555
O51   O     O_3   0.167900 0.667900 0.250060 -0.357943
O52   O     O_3   0.832100 0.667900 0.749940 -0.377558
H1    H     H_    0.429766 0.029703 0.085239 0.197588
H2    H     H_    0.412146 0.024554 0.955747 0.140747
H3    H     H_    0.929764 0.529744 0.085236 0.197655
H4    H     H_    0.912154 0.524561 0.955745 0.140703
C25   C     C_R   0.481466 0.163513 0.930804 -0.017508
C26   C     C_R   0.495809 0.181359 0.078799 0.043006
C27   C     C_R   0.981492 0.663496 0.930791 -0.017532
C28   C     C_R   0.995833 0.681362 0.078786 0.042980
C29   C     C_R   0.518063 0.260170 0.958560 -0.107908
C30   C     C_R   0.514727 0.279465 0.033564 -0.073191
C31   C     C_R   0.018112 0.760131 0.958540 -0.107872
C32   C     C_R   0.014773 0.779449 0.033542 -0.073182
C33   C     C_R   0.452022 0.097325 0.051136 -0.085553
C34   C     C_R   0.443293 0.092429 0.977588 -0.118399
C35   C     C_R   0.952038 0.597340 0.051126 -0.085572
C36   C     C_R   0.943316 0.592422 0.977580 -0.118416
C37   C     C_R   0.548401 0.346210 0.913576 0.171352
C38   C     C_R   0.523672 0.396600 0.059375 0.187404
C39   C     C_R   0.048450 0.846164 0.913548 0.171306
C40   C     C_R   0.023710 0.896601 0.059335 0.187376
C41   C     C_R   0.048333 0.961956 0.935334 0.196881
C42   C     C_R   0.040944 0.987843 0.009099 0.170157
C43   C     C_R   0.548318 0.462003 0.935383 0.196870
C44   C     C_R   0.540940 0.487856 0.009161 0.170180
C45   C     C_R   0.760436 0.895117 0.926175 0.040286
C46   C     C_R   0.256636 0.939961 0.085630 0.002627
C47   C     C_R   0.260446 0.395087 0.926185 0.040152
C48   C     C_R   0.756638 0.439950 0.085627 0.002628
C49   C     C_R   0.700421 0.942725 0.947777 0.066610
C50   C     C_R   0.304806 0.889594 0.042627 -0.016810
C51   C     C_R   0.200418 0.442635 0.947798 0.066526
C52   C     C_R   0.804794 0.389561 0.042619 -0.016759
C53   C     C_R   0.689799 0.977045 0.015771 0.048140
C54   C     C_R   0.309006 0.912462 0.971372 -0.036919
C55   C     C_R   0.189803 0.476973 0.015788 0.048123
C56   C     C_R   0.809009 0.412449 0.971368 -0.036873
C57   C     C_R   0.808640 0.942961 0.039879 0.029640
C58   C     C_R   0.226229 0.065439 0.984256 -0.046886
C59   C     C_R   0.308656 0.442991 0.039878 0.029651
C60   C     C_R   0.726244 0.565441 0.984255 -0.046867
C61   C     C_R   0.813541 0.884046 0.975036 -0.085777
C62   C     C_R   0.222590 0.037400 0.057972 -0.094201
C63   C     C_R   0.313564 0.384077 0.975036 -0.085870
C64   C     C_R   0.722610 0.537407 0.057973 -0.094202
C65   C     C_3   0.631232 0.960465 0.920289 -0.101416
C66   C     C_3   0.339358 0.775724 0.040380 -0.096971
C67   C     C_3   0.131223 0.460375 0.920321 -0.101423
C68   C     C_3   0.839365 0.275710 0.040380 -0.096955
C69   C     C_3   0.616868 0.005076 0.997245 0.076103
C70   C     C_3   0.347915 0.800597 0.959123 0.110003
C71   C     C_3   0.116871 0.505001 0.997277 0.076088
C72   C     C_3   0.847946 0.300608 0.959128 0.110020
C73   C     C_R   0.742144 0.974168 0.066514 0.004273
C74   C     C_R   0.267601 0.995970 0.937418 -0.019838
C75   C     C_R   0.242155 0.474151 0.066520 0.004223
C76   C     C_R   0.767609 0.495968 0.937415 -0.019816
H5    H     H_    0.863133 0.851742 0.957218 0.152263
H6    H     H_    0.188642 0.085231 0.093078 0.234537
H7    H     H_    0.363162 0.351813 0.957210 0.152295
H8    H     H_    0.688685 0.585264 0.093086 0.234556
H9    H     H_    0.105764 0.375491 0.906581 0.193006
H10   H     H_    0.802744 0.204035 0.054459 0.141319
H11   H     H_    0.605785 0.875574 0.906542 0.192950
H12   H     H_    0.302735 0.704062 0.054478 0.141380
H13   H     H_    0.605773 0.100156 0.002150 0.083352
H14   H     H_    0.401480 0.814828 0.940163 0.184726
H15   H     H_    0.105779 0.600083 0.002178 0.083360
H16   H     H_    0.901514 0.314873 0.940187 0.184704
C77   C     C_R   0.507920 0.167322 0.581915 0.057370
C78   C     C_R   0.546703 0.159312 0.436717 -0.010891
C79   C     C_R   0.007921 0.667322 0.581915 0.057367
C80   C     C_R   0.046704 0.659312 0.436717 -0.010891
C81   C     C_R   0.543117 0.069846 0.554712 -0.023771
C82   C     C_R   0.561788 0.065089 0.483142 -0.048786
C83   C     C_R   0.043117 0.569846 0.554712 -0.023768
C84   C     C_R   0.061789 0.565089 0.483142 -0.048786
C85   C     C_R   0.519232 0.262557 0.465857 -0.102050
C86   C     C_R   0.500226 0.266925 0.537727 -0.052981
C87   C     C_R   0.019233 0.762557 0.465857 -0.102048
C88   C     C_R   0.000226 0.766925 0.537727 -0.052975
C89   C     C_3   0.524693 0.941524 0.558288 -0.107702
C90   C     C_3   0.542681 0.936170 0.479178 -0.099794
C91   C     C_3   0.024693 0.441524 0.558288 -0.107710
C92   C     C_3   0.042681 0.436170 0.479178 -0.099798
H17   H     H_    0.509216 0.338441 0.432168 0.210994
H18   H     H_    0.474825 0.344967 0.556957 0.170115
H19   H     H_    0.009217 0.838441 0.432169 0.210992
H20   H     H_    0.974825 0.844967 0.556957 0.170121
H21   H     H_    0.970318 0.423605 0.570025 0.166516
H22   H     H_    0.085514 0.377106 0.466583 0.170808
H23   H     H_    0.470318 0.923605 0.570025 0.166517
H24   H     H_    0.585515 0.877106 0.466584 0.170809
C93   C     C_R   0.751764 0.914618 0.577072 0.016230
C94   C     C_R   0.251231 0.939780 0.416519 0.038822
C95   C     C_R   0.251764 0.414619 0.577072 0.016229
C96   C     C_R   0.751230 0.439779 0.416520 0.038821
C97   C     C_R   0.783009 0.012891 0.545638 -0.040854
C98   C     C_R   0.205191 0.015574 0.451354 -0.042509
C99   C     C_R   0.283010 0.512892 0.545638 -0.040854
C100  C     C_R   0.705189 0.515571 0.451356 -0.042509
C101  C     C_R   0.779435 0.030155 0.472773 -0.012401
C102  C     C_R   0.212779 0.039253 0.523297 -0.033529
C103  C     C_R   0.279435 0.530155 0.472773 -0.012403
C104  C     C_R   0.712778 0.539250 0.523298 -0.033527
C105  C     C_R   0.712738 0.851276 0.460017 -0.147553
C106  C     C_R   0.320438 0.938906 0.524332 -0.167448
C107  C     C_R   0.212738 0.351278 0.460017 -0.147551
C108  C     C_R   0.820438 0.438906 0.524332 -0.167450
C109  C     C_R   0.713903 0.836728 0.533910 -0.168721
C110  C     C_R   0.311127 0.907907 0.452435 -0.157354
C111  C     C_R   0.213903 0.336730 0.533910 -0.168726
C112  C     C_R   0.811126 0.407907 0.452435 -0.157355
C113  C     C_3   0.856316 0.053144 0.549336 -0.088366
C114  C     C_3   0.129029 0.001203 0.459843 -0.112508
C115  C     C_3   0.356317 0.553143 0.549336 -0.088363
C116  C     C_3   0.629027 0.501196 0.459846 -0.112514
C117  C     C_3   0.852665 0.071839 0.468981 0.105388
C118  C     C_3   0.138015 0.023327 0.539053 0.110146
C119  C     C_3   0.352666 0.571838 0.468980 0.105390
C120  C     C_3   0.638014 0.523321 0.539056 0.110146
C121  C     C_R   0.746958 0.947055 0.429167 0.079649
C122  C     C_R   0.268602 0.998158 0.561826 0.042135
C123  C     C_R   0.246958 0.447056 0.429167 0.079649
C124  C     C_R   0.768602 0.498157 0.561826 0.042133
H25   H     H_    0.686173 0.787601 0.427113 0.124970
H26   H     H_    0.364609 0.906849 0.552129 0.126311
H27   H     H_    0.186172 0.287602 0.427113 0.124966
H28   H     H_    0.864609 0.406851 0.552129 0.126308
H29   H     H_    0.689193 0.760050 0.556859 0.140416
H30   H     H_    0.347721 0.851857 0.426439 0.156771
H31   H     H_    0.189192 0.260052 0.556859 0.140409
H32   H     H_    0.847721 0.351859 0.426439 0.156772
H33   H     H_    0.892936 0.983405 0.565714 0.188279
H34   H     H_    0.113095 0.910973 0.446327 0.154584
H35   H     H_    0.392936 0.483404 0.565713 0.188275
H36   H     H_    0.613095 0.410966 0.446329 0.154581
H37   H     H_    0.858214 0.164525 0.450694 0.132585
H38   H     H_    0.113386 0.104228 0.559656 0.196759
H39   H     H_    0.358215 0.664524 0.450694 0.132588
H40   H     H_    0.613384 0.604221 0.559659 0.196764
C125  C     C_2   0.571178 0.875529 0.608162 0.265844
H41   H     H_    0.615608 0.918760 0.631248 0.131553
O53   O     O_2   0.558285 0.773278 0.624667 -0.427748
C126  C     C_2   0.480837 0.916148 0.433082 0.276655
H42   H     H_    0.439461 0.979650 0.434139 0.105902
O54   O     O_2   0.478459 0.833691 0.391578 -0.416992
C127  C     C_2   0.071177 0.375529 0.608162 0.265856
H43   H     H_    0.115608 0.418759 0.631247 0.131565
O55   O     O_2   0.058283 0.273278 0.624668 -0.427725
C128  C     C_2   0.980837 0.416150 0.433082 0.276655
H44   H     H_    0.939460 0.479652 0.434140 0.105902
O56   O     O_2   0.978458 0.333694 0.391577 -0.416998
C129  C     C_2   0.862818 0.164520 0.591593 0.248393
H45   H     H_    0.819860 0.224719 0.595444 0.142530
O57   O     O_2   0.915996 0.186822 0.623097 -0.403060
C130  C     C_2   0.089576 0.095619 0.421226 0.236491
H46   H     H_    0.102590 0.119382 0.366417 0.165023
O58   O     O_2   0.041293 0.143629 0.450505 -0.434090
C131  C     C_2   0.362819 0.664520 0.591592 0.248378
H47   H     H_    0.319861 0.724717 0.595445 0.142532
O59   O     O_2   0.415999 0.686822 0.623094 -0.403092
C132  C     C_2   0.589573 0.595612 0.421229 0.236498
H48   H     H_    0.602585 0.619371 0.366419 0.165038
O60   O     O_2   0.541293 0.643625 0.450510 -0.434092
N1    N     N_R   0.896073 0.990037 0.429015 0.090360
O61   O     O_R   0.887144 0.876347 0.435930 -0.390193
O62   O     O_R   0.934048 0.030257 0.376750 -0.239953
N2    N     N_R   0.123212 0.918348 0.583148 0.088731
O63   O     O_R   0.153124 0.817849 0.570699 -0.353336
O64   O     O_R   0.082771 0.927421 0.638316 -0.226800
N3    N     N_R   0.396073 0.490035 0.429014 0.090359
O65   O     O_R   0.387143 0.376345 0.435930 -0.390189
O66   O     O_R   0.434048 0.530254 0.376750 -0.239933
N4    N     N_R   0.623213 0.418341 0.583152 0.088732
O67   O     O_R   0.653125 0.317843 0.570701 -0.353334
O68   O     O_R   0.582776 0.427415 0.638323 -0.226789
N5    N     N_R   0.581587 0.318155 0.847117 0.069604
O69   O     O_R   0.647654 0.303748 0.848432 -0.229768
O70   O     O_R   0.554324 0.350908 0.786684 -0.199181
N6    N     N_R   0.496327 0.427175 0.129272 0.090829
O71   O     O_R   0.441809 0.372724 0.153704 -0.351920
O72   O     O_R   0.534137 0.482370 0.175580 -0.233885
N7    N     N_R   0.081548 0.818156 0.847033 0.069560
O73   O     O_R   0.147602 0.803575 0.848274 -0.229725
O74   O     O_R   0.054271 0.851194 0.786661 -0.199082
N8    N     N_R   0.996381 0.927205 0.129231 0.090850
O75   O     O_R   0.941869 0.872770 0.153688 -0.351916
O76   O     O_R   0.034205 0.982427 0.175517 -0.233974
N9    N     N_R   0.035846 0.049855 0.880804 0.123612
O77   O     O_R   0.972878 0.082056 0.868836 -0.209242
O78   O     O_R   0.081907 0.074684 0.832563 -0.259678
N10   N     N_R   0.042510 0.108886 0.030152 0.097225
O79   O     O_R   0.065300 0.140544 0.092280 -0.246170
O80   O     O_R   0.030215 0.190288 0.982896 -0.247624
N11   N     N_R   0.535947 0.549981 0.880861 0.123181
O81   O     O_R   0.473065 0.582846 0.869122 -0.209378
O82   O     O_R   0.581891 0.574224 0.832409 -0.259184
N12   N     N_R   0.542595 0.608879 0.030259 0.097139
O83   O     O_R   0.565400 0.640439 0.092399 -0.246261
O84   O     O_R   0.530414 0.690351 0.983021 -0.247465
C133  C     C_2   0.870548 0.012724 0.055378 0.231263
H49   H     H_    0.884704 0.041471 0.107969 0.203609
O85   O     O_2   0.905367 0.049121 0.005466 -0.508450
C134  C     C_2   0.183419 0.163998 0.960955 0.224560
H50   H     H_    0.167924 0.178181 0.906740 0.189921
O86   O     O_2   0.162863 0.232941 0.005407 -0.451997
C135  C     C_2   0.370558 0.512768 0.055386 0.231298
H51   H     H_    0.384707 0.541517 0.107979 0.203674
O87   O     O_2   0.405384 0.549168 0.005479 -0.508539
C136  C     C_2   0.683440 0.664009 0.960957 0.224653
H52   H     H_    0.667873 0.678123 0.906752 0.189834
O88   O     O_2   0.662957 0.733016 0.005409 -0.452052
C137  C     C_2   0.630079 0.047471 0.859169 0.283103
H53   H     H_    0.583210 0.089390 0.844835 0.146658
O89   O     O_2   0.680261 0.064693 0.821028 -0.387198
C138  C     C_2   0.402557 0.780279 0.086426 0.266652
H54   H     H_    0.447302 0.733439 0.071085 0.248305
O90   O     O_2   0.402604 0.830041 0.144161 -0.456374
C139  C     C_2   0.130068 0.547375 0.859198 0.283129
H55   H     H_    0.083206 0.589326 0.844879 0.146635
O91   O     O_2   0.180241 0.564562 0.821041 -0.387230
C140  C     C_2   0.902544 0.280272 0.086458 0.266806
H56   H     H_    0.947267 0.233314 0.071187 0.248239
O92   O     O_2   0.902594 0.330172 0.144149 -0.456444
N13   N     N_R   0.568473 0.927367 0.034468 0.110538
O93   O     O_R   0.512412 0.897584 0.002291 -0.371550
O94   O     O_R   0.584830 0.872797 0.093413 -0.191131
N14   N     N_R   0.308777 0.718444 0.915250 0.130322
O95   O     O_R   0.335277 0.677736 0.856560 -0.193373
O96   O     O_R   0.245240 0.693936 0.931076 -0.330524
N15   N     N_R   0.068486 0.427302 0.034523 0.110635
O97   O     O_R   0.012406 0.397533 0.002381 -0.371428
O98   O     O_R   0.084855 0.372763 0.093474 -0.191144
N16   N     N_R   0.808840 0.218447 0.915231 0.130356
O99   O     O_R   0.835348 0.177840 0.856518 -0.193329
O100  O     O_R   0.745309 0.193879 0.931045 -0.330429

loop_
_geom_bond_atom_site_label_1
_geom_bond_atom_site_label_2
_geom_bond_distance
_ccdc_geom_bond_type
N16   O100  1.299400 A    
O4    C12   1.312444 A    
C65   C69   1.553439 S    
O39   C19   1.324519 A    
C62   H6    1.080881 S    
C127  O55   1.218958 D    
C65   H11   1.111131 S    
C68   C72   1.549548 S    
C49   C65   1.458009 S    
Cr7   O51   2.042224 S    
C137  H53   1.064860 S    
C67   C71   1.553452 S    
C66   C138  1.505051 S    
C69   N13   1.456088 S    
C27   C31   1.406381 A    
C132  O60   1.219353 D    
N7    O73   1.298380 A    
O21   C9    1.330295 A    
C130  H46   1.085030 S    
C98   C114  1.499356 S    
N8    O75   1.303845 A    
C1    O9    1.283085 A    
O44   Cr12  2.076282 S    
C128  H44   1.082858 S    
C3    O11   1.283071 A    
C102  C118  1.494501 S    
C4    O12   1.265072 A    
C118  H38   1.107483 S    
C61   H5    1.087068 S    
C29   C37   1.406334 A    
O2    C10   1.312420 A    
O17   Cr9   2.088633 S    
C46   C62   1.386010 A    
C110  H30   1.074617 S    
C71   N15   1.456093 S    
O31   Cr3   1.979204 S    
C128  O56   1.219642 D    
C86   H18   1.078541 S    
O16   Cr8   1.966852 S    
C68   H10   1.106357 S    
O13   C5    1.278594 A    
O28   Cr4   2.103188 S    
N14   O95   1.299855 A    
O12   Cr8   2.096854 S    
C98   C102  1.381295 A    
O15   C7    1.278571 A    
O6    C2    1.280176 A    
C125  H41   1.084540 S    
O46   Cr10  1.972102 S    
C19   C80   1.457589 S    
O14   Cr6   1.966852 S    
C114  C130  1.499840 S    
C126  O54   1.219643 D    
C69   H13   1.102982 S    
C59   C75   1.433300 A    
C17   O41   1.314022 A    
C60   C76   1.431280 A    
C72   H16   1.111224 S    
N6    O72   1.300204 A    
C23   C123  1.429545 S    
C112  H32   1.074618 S    
C136  H52   1.068764 S    
C59   C135  1.468870 S    
H1    C33   1.079057 S    
C1    C48   1.442709 S    
Cr12  O52   2.043216 S    
H3    C35   1.079047 S    
N3    O66   1.300288 A    
N4    O68   1.300444 A    
C105  H25   1.082269 S    
C51   C55   1.347561 A    
C19   O43   1.314023 A    
C30   C38   1.424655 A    
C20   O44   1.287565 A    
C134  O86   1.213388 D    
C102  C122  1.385868 A    
Cr8   O52   2.032900 S    
N12   O84   1.293279 A    
O46   C22   1.319388 A    
C12   C76   1.471311 S    
C59   C63   1.391622 A    
H4    C36   1.061598 S    
C108  C124  1.404126 A    
C57   C61   1.391626 A    
C16   O36   1.282337 A    
C58   C62   1.411706 A    
C129  O57   1.219480 D    
O31   C15   1.310959 A    
C57   C133  1.468851 S    
O32   C16   1.284621 A    
C13   C96   1.464074 S    
C103  C123  1.399864 A    
C92   C128  1.500571 S    
C130  O58   1.219353 D    
O47   Cr11  1.968081 S    
C43   C44   1.418836 A    
C113  H33   1.108027 S    
C93   C109  1.407613 A    
C29   C30   1.421578 A    
C135  O87   1.218443 D    
C91   C127  1.498215 S    
O24   C12   1.328867 A    
O30   C14   1.284623 A    
N1    O61   1.302147 A    
N13   O94   1.298639 A    
C37   N5    1.437021 S    
C55   C71   1.498107 S    
O8    Cr4   1.984468 S    
C129  H45   1.084424 S    
C50   C54   1.355767 A    
C53   C69   1.498153 S    
O32   Cr4   1.959109 S    
C104  C124  1.385868 A    
O11   Cr7   2.077830 S    
C57   C73   1.433288 A    
C96   C112  1.395112 A    
N2    O64   1.300441 A    
C63   H7    1.087066 S    
O27   Cr3   2.085431 S    
O3    Cr3   2.099760 S    
C50   C66   1.457634 S    
C81   C89   1.494428 S    
C138  O90   1.221574 D    
Cr5   O49   2.042224 S    
N9    O77   1.300854 A    
C107  C111  1.388933 A    
C32   C40   1.424693 A    
O22   C10   1.328894 A    
C116  C120  1.513791 S    
C111  H31   1.074723 S    
N10   O79   1.297010 A    
C2    O10   1.265071 A    
C9    C73   1.454442 S    
C100  C116  1.499358 S    
C48   C52   1.363978 A    
O5    C1    1.297827 A    
C106  C122  1.404127 A    
O25   C21   1.273447 A    
C48   C64   1.385986 A    
C71   H15   1.102977 S    
O8    C4    1.280180 A    
C119  N3    1.465229 S    
C133  H49   1.074315 S    
C103  C119  1.501258 S    
N5    O70   1.300699 A    
Cr1   O49   2.028006 S    
C45   C49   1.351920 A    
Cr3   O51   2.028006 S    
C47   C51   1.351927 A    
C42   N10   1.428686 S    
C22   C122  1.460703 S    
C58   C134  1.459852 S    
C84   C92   1.505935 S    
C25   C29   1.406405 A    
C117  N1    1.465229 S    
C87   H19   1.078561 S    
O26   Cr2   2.103188 S    
C92   H22   1.098135 S    
C88   H20   1.078541 S    
C5    O17   1.322841 A    
O29   C13   1.310960 A    
O28   C24   1.316692 A    
O14   C6    1.290508 A    
C65   C137  1.500598 S    
C8    O20   1.293702 A    
C18   C77   1.454210 S    
C41   N9    1.438882 S    
C40   C42   1.426355 A    
C97   C101  1.375373 A    
N4    O67   1.303014 A    
C38   N6    1.454279 S    
O40   Cr8   1.974260 S    
C100  C104  1.381293 A    
O41   Cr9   2.085963 S    
C120  H40   1.107482 S    
C70   H14   1.111233 S    
C106  C110  1.403615 A    
C28   C32   1.434342 A    
O33   Cr5   2.092703 S    
N8    O76   1.300207 A    
C37   C43   1.375731 A    
O35   Cr7   2.092703 S    
O29   Cr1   1.979204 S    
C115  C131  1.498466 S    
C78   C85   1.401584 A    
N11   O81   1.300677 A    
C113  C117  1.515953 S    
C91   H21   1.098378 S    
C89   H23   1.098379 S    
Cr9   O49   2.033600 S    
C18   O42   1.287564 A    
Cr11  O51   2.033600 S    
C17   C78   1.457589 S    
O26   C22   1.316694 A    
C33   C34   1.386666 A    
O20   Cr12  2.091685 S    
C20   C79   1.454209 S    
N15   O98   1.298627 A    
C81   C82   1.386173 A    
C80   C84   1.400690 A    
C40   N8    1.454246 S    
C16   C93   1.437269 S    
C108  H28   1.069620 S    
C26   C30   1.434316 A    
C99   C115  1.498518 S    
C120  N4    1.465659 S    
N14   O96   1.299417 A    
C94   C98   1.406641 A    
C97   C113  1.498519 S    
C101  C117  1.501259 S    
C127  H43   1.084539 S    
C117  H37   1.104331 S    
C83   C91   1.494428 S    
C107  H27   1.082270 S    
C131  O59   1.219481 D    
N16   O99   1.299854 A    
O42   Cr10  2.076282 S    
O18   Cr10  2.091685 S    
C39   C41   1.375605 A    
C136  O88   1.213385 D    
C109  H29   1.074725 S    
O34   Cr6   2.084430 S    
O6    Cr2   1.984468 S    
C140  O92   1.221570 D    
C137  O89   1.221478 D    
O24   Cr12  1.956344 S    
O30   Cr2   1.959109 S    
C39   N7    1.437025 S    
C139  H55   1.064837 S    
O48   Cr12  1.972102 S    
C53   C73   1.394764 A    
C54   C70   1.497819 S    
C8    C27   1.460353 S    
C135  H51   1.074322 S    
O37   C17   1.324519 A    
C15   O35   1.278728 A    
C132  H48   1.085030 S    
Cr10  O50   2.043216 S    
C58   C74   1.431309 A    
C51   C67   1.458057 S    
O40   C20   1.304004 A    
O43   Cr11  2.085963 S    
C52   C68   1.457605 S    
O37   Cr5   1.958266 S    
O21   Cr9   1.968693 S    
C95   C99   1.388950 A    
O39   Cr7   1.958266 S    
O3    C11   1.295773 A    
O45   Cr9   1.968081 S    
C82   C90   1.505935 S    
C13   O33   1.278727 A    
C66   H12   1.106365 S    
O13   Cr5   1.972946 S    
C115  H35   1.108027 S    
O15   Cr7   1.972946 S    
C119  H39   1.104330 S    
O23   C11   1.330298 A    
C67   C139  1.500589 S    
C77   C81   1.400492 A    
C87   C88   1.393073 A    
C140  H56   1.062522 S    
C10   C74   1.471335 S    
C56   C72   1.497846 S    
C25   C34   1.392603 A    
C106  H26   1.069620 S    
C31   C39   1.406361 A    
O1    Cr1   2.099760 S    
O19   Cr11  2.088633 S    
C125  O53   1.218959 D    
C101  C121  1.399863 A    
C41   C42   1.418698 A    
N13   O93   1.292924 A    
O45   C21   1.291653 A    
C126  H42   1.082860 S    
O47   C23   1.291652 A    
O1    C9    1.295813 A    
N15   O97   1.292888 A    
N6    O71   1.303846 A    
C6    O18   1.293743 A    
C28   C35   1.379166 A    
C35   C36   1.386637 A    
O36   Cr8   2.084430 S    
C11   C75   1.454402 S    
O38   Cr6   1.974260 S    
C91   C92   1.519682 S    
O22   Cr10  1.956344 S    
C85   C86   1.393074 A    
N11   O82   1.297259 A    
C89   C90   1.519684 S    
C114  H34   1.097410 S    
C83   C84   1.386173 A    
C94   C110  1.395114 A    
C108  C112  1.403613 A    
C118  N2    1.465655 S    
O23   Cr11  1.968693 S    
C38   C44   1.426354 A    
C7    C28   1.484347 S    
O7    C3    1.297839 A    
C45   C61   1.387171 A    
C134  H50   1.068644 S    
N10   O80   1.293361 A    
N12   O83   1.297003 A    
C47   C63   1.387170 A    
C5    C26   1.484364 S    
C85   H17   1.078561 S    
C113  C129  1.498466 S    
C79   C88   1.399390 A    
C80   C87   1.401585 A    
C3    C46   1.442710 S    
C49   C53   1.347606 A    
H2    C34   1.061587 S    
O16   C8    1.290527 A    
C26   C33   1.379182 A    
C90   C126  1.500569 S    
C7    O19   1.322851 A    
N5    O69   1.298376 A    
Cr4   O52   2.028220 S    
C99   C103  1.375373 A    
O2    Cr2   2.077568 S    
O48   C24   1.319388 A    
C116  C132  1.499841 S    
Cr6   O50   2.032900 S    
O27   C23   1.273447 A    
C116  H36   1.097407 S    
O5    Cr1   1.966212 S    
C104  C120  1.494500 S    
C44   N12   1.428736 S    
C15   C94   1.464075 S    
C60   C64   1.411722 A    
O9    Cr5   2.077830 S    
C64   H8    1.080851 S    
N1    O62   1.300287 A    
C93   C97   1.388949 A    
O7    Cr3   1.966212 S    
C67   H9    1.111123 S    
C115  C119  1.515953 S    
C95   C111  1.407614 A    
C96   C100  1.406644 A    
C90   H24   1.098134 S    
C139  O91   1.221473 D    
C14   C95   1.437270 S    
C107  C123  1.388639 A    
C105  C121  1.388641 A    
C31   C32   1.421605 A    
N2    O63   1.303014 A    
Cr2   O50   2.028220 S    
C46   C50   1.363998 A    
C138  H54   1.062549 S    
N9    O78   1.297457 A    
C6    C25   1.460394 S    
C79   C83   1.400492 A    
C21   C121  1.429546 S    
C54   C74   1.394738 A    
N3    O65   1.302148 A    
C27   C36   1.392611 A    
C4    C45   1.393451 S    
O38   C18   1.304004 A    
C68   C140  1.505070 S    
N7    O74   1.300721 A    
O25   Cr1   2.085431 S    
C72   N16   1.458808 S    
C77   C86   1.399390 A    
C66   C70   1.549516 S    
C70   N14   1.458826 S    
C131  H47   1.084425 S    
C60   C136  1.459835 S    
C14   O34   1.282336 A    
C24   C124  1.460700 S    
C105  C109  1.388935 A    
C133  O85   1.218443 D    
C89   C125  1.498213 S    
O10   Cr6   2.096854 S    
O4    Cr4   2.077568 S    
C78   C82   1.400690 A    
C43   N11   1.438996 S    
C114  C118  1.513786 S    
C55   C75   1.394710 A    
C56   C76   1.394755 A    
C2    C47   1.393458 S    
C52   C56   1.355741 A    
