data_mof_unit_29787.cif
_audit_creation_date              2012-12-11T15:54:34-0500
_audit_creation_method            fapswitch 2.2
_symmetry_space_group_name_H-M    P1
_symmetry_Int_Tables_number       1
_space_group_crystal_system       triclinic
_cell_length_a                    6.928217
_cell_length_b                    14.526345
_cell_length_c                    16.110804
_cell_angle_alpha                 89.894404
_cell_angle_beta                  89.836528
_cell_angle_gamma                 89.936973
_cell_volume                      1621.40790091

loop_
_atom_site_label
_atom_site_type_symbol
_atom_type_description
_atom_site_fract_x
_atom_site_fract_y
_atom_site_fract_z
_atom_type_partial_charge
O1    O     O_R   0.638180 0.333920 0.163320 -0.543192
O2    O     O_R   0.361820 0.666080 0.836680 -0.543215
O3    O     O_R   0.308470 0.344960 0.336080 -0.545623
O4    O     O_R   0.691530 0.655040 0.663920 -0.545635
O5    O     O_R   0.138140 0.166110 0.336680 -0.537305
O6    O     O_R   0.861860 0.833890 0.663320 -0.537314
C1    C     C_R   0.477351 0.367119 0.365148 0.679213
C2    C     C_R   0.522648 0.632881 0.634852 0.679181
O7    O     O_R   0.308460 0.344950 0.163930 -0.543757
O8    O     O_R   0.691540 0.655050 0.836070 -0.543721
O9    O     O_R   0.138140 0.166100 0.163310 -0.508673
O10   O     O_R   0.861860 0.833900 0.836690 -0.508594
C3    C     C_R   0.477588 0.367176 0.134963 0.682917
C4    C     C_R   0.522412 0.632824 0.865037 0.682975
O11   O     O_R   0.638180 0.333930 0.336700 -0.545717
O12   O     O_R   0.361820 0.666070 0.663300 -0.545724
O13   O     O_3   0.471670 0.191340 0.250000 -0.351605
O14   O     O_3   0.528330 0.808660 0.750000 -0.351597
V1    V     V_3+5 0.196830 0.260900 0.250000 1.431958
V2    V     V_3+5 0.803170 0.739100 0.750000 1.432099
O15   O     O_R   0.808420 0.155070 0.163920 -0.542222
O16   O     O_R   0.191580 0.844930 0.836080 -0.542250
C5    C     C_R   0.978199 0.133215 0.134715 0.735201
C6    C     C_R   0.021800 0.866790 0.865282 0.735332
O17   O     O_R   0.808420 0.155080 0.336070 -0.539770
O18   O     O_R   0.191580 0.844920 0.663930 -0.539773
C7    C     C_R   0.977177 0.133066 0.364650 0.688797
C8    C     C_R   0.022823 0.866934 0.635350 0.688767
V3    V     V_3+5 0.696830 0.239130 0.250000 1.432060
V4    V     V_3+5 0.303170 0.760870 0.750000 1.432082
O19   O     O_3   0.971850 0.308690 0.250010 -0.380814
O20   O     O_3   0.028150 0.691310 0.749990 -0.380826
H1    H     H_    0.289987 0.849215 0.268006 0.111533
H2    H     H_    0.710019 0.150785 0.731994 0.111591
C9    C     C_R   0.825506 0.173783 0.528325 -0.141248
C10   C     C_R   0.174496 0.826217 0.471675 -0.141255
C11   C     C_R   0.752720 0.195941 0.606459 -0.126016
C12   C     C_R   0.247284 0.804060 0.393542 -0.125994
C13   C     C_R   0.765405 0.132951 0.671206 -0.122412
C14   C     C_R   0.234598 0.867049 0.328794 -0.122420
C15   C     C_R   0.850922 0.047301 0.658317 -0.130209
C16   C     C_R   0.149080 0.952699 0.341683 -0.130224
C17   C     C_R   0.924102 0.022233 0.579358 0.067769
C18   C     C_R   0.075899 0.977767 0.420642 0.067779
C19   C     C_R   0.911183 0.086873 0.512925 0.069616
C20   C     C_R   0.088818 0.913127 0.487075 0.069617
C21   C     C_R   0.012843 0.935287 0.566490 -0.184409
C22   C     C_R   0.987158 0.064713 0.433510 -0.184420
H3    H     H_    0.814949 0.225986 0.480619 0.107743
H4    H     H_    0.185052 0.774014 0.519381 0.107742
H5    H     H_    0.687451 0.262690 0.616933 0.118576
H6    H     H_    0.312554 0.737310 0.383067 0.118574
H7    H     H_    0.860399 0.001615 0.711231 0.108971
H8    H     H_    0.139603 0.998386 0.288769 0.108959
C23   C     C_R   0.173758 0.983527 0.958548 -0.311679
C24   C     C_R   0.826231 0.016495 0.041440 -0.311602
H9    H     H_    0.309965 0.971629 0.927327 0.204751
H10   H     H_    0.690017 0.028427 0.072647 0.204645
C25   C     C_R   0.166716 0.049067 0.022430 0.479159
C26   C     C_R   0.833272 0.950947 0.977560 0.479368
C27   C     C_R   0.991422 0.065244 0.065645 -0.216774
C28   C     C_R   0.008572 0.934773 0.934346 -0.216769
C29   C     C_R   0.321226 0.478379 0.464958 -0.158669
C30   C     C_R   0.678773 0.521621 0.535042 -0.158670
H11   H     H_    0.181044 0.462961 0.438920 0.116420
H12   H     H_    0.818956 0.537039 0.561080 0.116417
C31   C     C_R   0.332574 0.542140 0.529927 -0.159854
C32   C     C_R   0.667426 0.457860 0.470073 -0.159853
H13   H     H_    0.200525 0.574027 0.551721 0.115825
H14   H     H_    0.799475 0.425973 0.448279 0.115828
C33   C     C_R   0.511492 0.564616 0.565982 -0.045455
C34   C     C_R   0.488508 0.435384 0.434018 -0.045463
C35   C     C_R   0.320323 0.473943 0.032001 -0.163077
C36   C     C_R   0.679677 0.526055 0.967997 -0.162999
H15   H     H_    0.179397 0.454856 0.055555 0.114583
H16   H     H_    0.820602 0.545141 0.944443 0.114592
C37   C     C_R   0.331395 0.537656 0.966858 -0.158145
C38   C     C_R   0.668604 0.462342 0.033141 -0.158143
H17   H     H_    0.198469 0.565876 0.942382 0.116228
H18   H     H_    0.801530 0.434122 0.057616 0.116214
C39   C     C_R   0.511221 0.564540 0.933898 -0.053157
C40   C     C_R   0.488778 0.435459 0.066101 -0.053175
O21   O     O_3   0.335117 0.093009 0.045523 -0.544978
C41   C     C_3   0.374297 0.164051 0.988165 -0.215069
H19   H     H_    0.406373 0.136032 0.925403 0.126798
H20   H     H_    0.504363 0.201782 0.009217 0.149155
H21   H     H_    0.253198 0.214433 0.985175 0.112285
O22   O     O_3   0.664882 0.907024 0.954416 -0.544905
C42   C     C_3   0.624950 0.836299 0.011995 -0.215608
H22   H     H_    0.591527 0.864696 0.074486 0.127199
H23   H     H_    0.746197 0.786051 0.015692 0.112182
H24   H     H_    0.495460 0.798307 0.990679 0.149276

loop_
_geom_bond_atom_site_label_1
_geom_bond_atom_site_label_2
_ccdc_geom_bond_type
C7    C22   S    
V4    O20   S    
C29   H11   S    
C8    C21   S    
C23   C25   A    
O13   V3    S    
C41   H21   S    
O4    C2    A    
V1    O19   S    
C26   O22   S    
C13   C15   A    
O9    V1    S    
C36   H16   S    
C30   C32   A    
C9    C11   A    
C25   O21   S    
O3    C1    A    
C11   H5    S    
C38   H18   S    
C12   H6    S    
O12   V4    S    
C23   C28   A    
C26   C28   A    
C30   C33   A    
O7    C3    A    
O5    C7    A    
O7    V1    S    
O6    C8    A    
O8    V2    S    
C9    H3    S    
O3    V1    S    
O14   V4    S    
C42   H23   S    
C31   C33   A    
C1    O11   A    
C2    O12   A    
V3    O19   S    
C15   C17   A    
C16   C18   A    
C18   C20   A    
O11   V3    S    
C37   H17   S    
O17   V3    S    
C29   C31   A    
C25   C27   A    
H1    C14   S    
H2    C13   S    
C41   H19   S    
O8    C4    A    
C1    C34   S    
O15   V3    S    
C3    C40   S    
C24   C26   A    
C31   H13   S    
C30   H12   S    
C38   C40   A    
O21   C41   S    
C37   C39   A    
C32   C34   A    
O10   V2    S    
O1    V3    S    
C29   C34   A    
C42   H24   S    
C10   C20   A    
C17   C19   A    
C15   H7    S    
O18   V4    S    
C23   H9    S    
O16   C6    A    
O1    C3    A    
C35   H15   S    
C36   C39   A    
C10   C12   A    
C9    C19   A    
C35   C40   A    
C10   H4    S    
V2    O20   S    
C19   C22   A    
C20   C21   A    
C2    C33   S    
C6    C28   S    
O16   V4    S    
C41   H20   S    
C14   C16   A    
O5    V1    S    
O17   C7    A    
O6    V2    S    
O10   C6    A    
O18   C8    A    
O2    V4    S    
O15   C5    A    
C11   C13   A    
C16   H8    S    
C12   C14   A    
O9    C5    A    
O13   V1    S    
C24   H10   S    
O14   V2    S    
O2    C4    A    
O4    V2    S    
C5    C27   S    
O22   C42   S    
C32   H14   S    
C36   C38   A    
C35   C37   A    
C24   C27   A    
C4    C39   S    
C42   H22   S    
C17   C21   A    
C18   C22   A    
