data_mof_unit_23689.cif
_audit_creation_date              2013-03-05T15:55:02-0500
_audit_creation_method            fapswitch 2.2
_symmetry_space_group_name_H-M    P1
_symmetry_Int_Tables_number       1
_space_group_crystal_system       triclinic
_cell_length_a                    6.929664
_cell_length_b                    14.542115
_cell_length_c                    16.218111
_cell_angle_alpha                 90.470578
_cell_angle_beta                  89.588744
_cell_angle_gamma                 89.933017
_cell_volume                      1634.23255455

loop_
_atom_site_label
_atom_site_type_symbol
_atom_site_description
_atom_site_fract_x
_atom_site_fract_y
_atom_site_fract_z
_atom_type_partial_charge
O1    O     O_R   0.505810 0.583360 0.413880 -0.584554
O2    O     O_R   0.175870 0.595480 0.585520 -0.563001
O3    O     O_R   0.005540 0.416640 0.586120 -0.595357
C1    C     C_R   0.343759 0.618204 0.614177 0.999102
O4    O     O_R   0.176100 0.594390 0.414490 -0.591713
O5    O     O_R   0.005770 0.415540 0.413870 -0.587712
C2    C     C_R   0.345513 0.613975 0.383763 0.959006
O6    O     O_R   0.505580 0.584460 0.586130 -0.581376
O7    O     O_3   0.339190 0.441320 0.500000 -0.278932
V1    V     V_3+5 0.064350 0.510890 0.500000 1.247341
O8    O     O_R   0.676050 0.404520 0.414480 -0.596843
C3    C     C_R   0.845258 0.384358 0.384099 0.973451
O9    O     O_R   0.675830 0.405610 0.585510 -0.608791
C4    C     C_R   0.844388 0.385479 0.614924 1.008068
V2    V     V_3+5 0.564340 0.489110 0.500000 1.220005
O10   O     O_3   0.839370 0.558680 0.500000 -0.239412
C5    C     C_2   0.728754 0.214760 0.790487 -0.227224
C6    C     C_2   0.888913 0.166636 0.811250 0.073568
H1    H     H_    0.601485 0.210498 0.829705 0.173665
C7    C     C_2   0.710933 0.274841 0.716827 0.010173
C8    C     C_2   0.859384 0.323751 0.686302 -0.405401
H2    H     H_    0.568182 0.283014 0.690659 0.162594
H3    H     H_    0.999084 0.320760 0.715901 0.185432
C9    C     C_R   0.015207 0.251379 0.192600 -0.185866
H4    H     H_    0.127677 0.255836 0.146022 0.173759
C10   C     C_R   0.003719 0.320659 0.253041 0.571968
C11   C     C_R   0.856343 0.317163 0.314383 -0.398753
C12   C     C_R   0.720293 0.245749 0.310470 -0.174268
H5    H     H_    0.607812 0.241293 0.357045 0.181048
C13   C     C_R   0.731741 0.176488 0.250024 0.570824
C14   C     C_R   0.879216 0.179924 0.188715 -0.396678
C15   C     C_R   0.210495 0.754575 0.697177 0.404058
C16   C     C_R   0.227263 0.816095 0.763970 -0.241846
H6    H     H_    0.117147 0.868375 0.772565 0.177351
C17   C     C_R   0.383865 0.812002 0.818500 -0.341580
C18   C     C_R   0.527289 0.743873 0.804326 0.543602
C19   C     C_R   0.507174 0.680701 0.739262 -0.128851
H7    H     H_    0.615803 0.627609 0.731545 0.177575
C20   C     C_R   0.351921 0.685401 0.684179 -0.389838
C21   C     C_R   0.199679 0.736382 0.295328 -0.116151
H8    H     H_    0.067928 0.732125 0.331422 0.179710
C22   C     C_R   0.209474 0.800973 0.231821 -0.099921
H9    H     H_    0.084611 0.843773 0.220409 0.135669
C23   C     C_R   0.379156 0.811562 0.184857 -0.221543
C24   C     C_R   0.537393 0.754605 0.201817 -0.183054
H10   H     H_    0.668436 0.759945 0.165316 0.157917
C25   C     C_R   0.526705 0.686724 0.262592 0.562056
C26   C     C_R   0.357816 0.679014 0.312837 -0.311748
O11   O     O_R   0.230120 0.912300 0.917180 -0.596520
O12   O     O_R   0.559740 0.902430 0.088770 -0.607588
O13   O     O_R   0.729930 0.081310 0.089370 -0.587553
C27   C     C_R   0.390399 0.880446 0.117537 0.974807
O14   O     O_R   0.559840 0.901330 0.917750 -0.598705
O15   O     O_R   0.730030 0.080210 0.917120 -0.598848
C28   C     C_R   0.392006 0.878815 0.888868 1.025926
O16   O     O_R   0.230020 0.913400 0.089430 -0.602320
O17   O     O_3   0.396460 0.055470 0.003290 -0.260406
V3    V     V_3+5 0.671360 0.985960 0.003250 1.194862
O18   O     O_R   0.059740 0.091300 0.917690 -0.553432
C29   C     C_R   0.892010 0.110667 0.887478 0.880423
O19   O     O_R   0.059640 0.092400 0.088720 -0.588559
C30   C     C_R   0.890407 0.112627 0.119061 0.961723
V4    V     V_3+5 0.171350 0.007820 0.003190 1.217877
O20   O     O_3   0.896380 0.938200 0.003220 -0.282990
O21   O     O_3   0.684655 0.734522 0.854649 -0.746040
H11   H     H_    0.759699 0.792149 0.849545 0.333017
O22   O     O_3   0.682456 0.628309 0.269123 -0.761883
H12   H     H_    0.632164 0.565635 0.279138 0.313847
N1    N     N_R   0.051106 0.159169 0.755506 0.244032
O23   O     O_R   0.226465 0.165196 0.783108 -0.418388
O24   O     O_R   0.024269 0.134667 0.679076 -0.346970
O25   O     O_3   0.135600 0.391449 0.247893 -0.751865
H13   H     H_    0.077092 0.447807 0.271891 0.314994
O26   O     O_3   0.599708 0.105766 0.255148 -0.739287
H14   H     H_    0.658227 0.049353 0.231271 0.310511
N2    N     N_R   0.052593 0.766064 0.641800 0.231858
O27   O     O_R   0.034181 0.843157 0.602506 -0.363041
O28   O     O_R   0.906017 0.710537 0.645961 -0.397014

loop_
_geom_bond_atom_site_label_1
_geom_bond_atom_site_label_2
_geom_bond_distance
_ccdc_geom_bond_type
O11   V4    1.999961 S    
C10   O25   1.379999 S    
C17   C18   1.418756 A    
C1    O6    1.301106 A    
O15   C29   1.297737 A    
C24   H10   1.083641 S    
C10   C11   1.421855 A    
C4    C8    1.474863 S    
C12   H5    1.083872 S    
N2    O28   1.300033 A    
O5    C3    1.296629 A    
C13   C14   1.421938 A    
C13   O26   1.379941 S    
C15   C20   1.417053 A    
V2    O10   2.158787 S    
C5    C7    1.491564 S    
N1    O24   1.301616 A    
C24   C25   1.402342 A    
O19   V4    1.997638 S    
C16   C17   1.406348 A    
O8    V2    1.997616 S    
O12   C27   1.300912 A    
O1    V2    2.008009 S    
O7    V1    2.155534 S    
C23   C27   1.489459 S    
C6    N1    1.440796 S    
C21   C22   1.400972 A    
O18   C29   1.296164 A    
O9    C4    1.298884 A    
C14   C30   1.490072 S    
N1    O23   1.300825 A    
O13   C30   1.296607 A    
C22   C23   1.405682 A    
C25   O22   1.377928 S    
O17   V4    1.707661 S    
O14   C28   1.298243 A    
C8    H3    1.084636 S    
V3    O20   1.706248 S    
O26   H14   0.989522 S    
C3    C11   1.489815 S    
C17   C28   1.494150 S    
O22   H12   0.990389 S    
O12   V3    2.002986 S    
N2    O27   1.300708 A    
O4    C2    1.304755 A    
C18   O21   1.374051 S    
O11   C28   1.301564 A    
O2    C1    1.298028 A    
C15   N2    1.431066 S    
C19   H7    1.083565 S    
C25   C26   1.426331 A    
C1    C20   1.493271 S    
O14   V3    2.006043 S    
C5    C6    1.357321 D    
O16   V4    2.011273 S    
O13   V3    2.003942 S    
C9    H4    1.083862 S    
O3    C4    1.291441 A    
C6    C29   1.485989 S    
C21   H8    1.083101 S    
C7    H2    1.085986 S    
O6    V2    1.999591 S    
O9    V2    2.008835 S    
C22   H9    1.083167 S    
O2    V1    2.005911 S    
C23   C24   1.403567 A    
O15   V3    2.004907 S    
C21   C26   1.408436 A    
C18   C19   1.401180 A    
O1    C2    1.296481 A    
C9    C10   1.401673 A    
O25   H13   0.989578 S    
O5    V1    2.004069 S    
O8    C3    1.300829 A    
O18   V4    2.008872 S    
C2    C26   1.497207 S    
C12   C13   1.401516 A    
O7    V2    1.708737 S    
C9    C14   1.404931 A    
O4    V1    2.002951 S    
C19   C20   1.405285 A    
O3    V1    2.004986 S    
V1    O10   1.706176 S    
C15   C16   1.404785 A    
O17   V3    2.155486 S    
C5    H1    1.085774 S    
C16   H6    1.084005 S    
O19   C30   1.300954 A    
V4    O20   2.158760 S    
C7    C8    1.345145 D    
O21   H11   0.990495 S    
C11   C12   1.404784 A    
C27   O16   1.296999 A    
