data_mof_unit_29880.cif
_audit_creation_date              2013-03-05T15:51:58-0500
_audit_creation_method            fapswitch 2.2
_symmetry_space_group_name_H-M    P1
_symmetry_Int_Tables_number       1
_space_group_crystal_system       triclinic
_cell_length_a                    23.228098
_cell_length_b                    7.30014
_cell_length_c                    15.118615
_cell_angle_alpha                 90.363821
_cell_angle_beta                  108.168618
_cell_angle_gamma                 89.61817
_cell_volume                      2435.74476138

loop_
_atom_site_label
_atom_site_type_symbol
_atom_site_description
_atom_site_fract_x
_atom_site_fract_y
_atom_site_fract_z
_atom_type_partial_charge
O1    O     O_R   0.711000 0.648610 0.341170 -0.593826
O2    O     O_R   0.289000 0.351390 0.658830 -0.592759
O3    O     O_R   0.789000 0.148610 0.158830 -0.596344
O4    O     O_R   0.211000 0.851390 0.841170 -0.579990
O5    O     O_R   0.829650 0.322030 0.336650 -0.587623
O6    O     O_R   0.170350 0.677970 0.663350 -0.588857
O7    O     O_R   0.670350 0.822030 0.163350 -0.576894
O8    O     O_R   0.329650 0.177970 0.836650 -0.590609
C1    C     C_R   0.854343 0.485597 0.356549 1.026763
C2    C     C_R   0.145658 0.514402 0.643448 1.026837
C3    C     C_R   0.645662 0.985961 0.143422 1.023014
C4    C     C_R   0.354341 0.014058 0.856565 1.025774
O9    O     O_R   0.713950 0.319280 0.352070 -0.582194
O10   O     O_R   0.286050 0.680720 0.647930 -0.583295
O11   O     O_R   0.786050 0.819280 0.147930 -0.574812
O12   O     O_R   0.213950 0.180720 0.852070 -0.595270
O13   O     O_R   0.672470 0.142870 0.174360 -0.596021
O14   O     O_R   0.327530 0.857130 0.825640 -0.584822
O15   O     O_R   0.827530 0.642870 0.325640 -0.587722
O16   O     O_R   0.172470 0.357130 0.674360 -0.586693
C5    C     C_R   0.702206 0.488455 0.376535 1.015566
C6    C     C_R   0.297869 0.511576 0.623554 1.015804
C7    C     C_R   0.797608 0.986921 0.123208 1.015648
C8    C     C_R   0.202078 0.013149 0.876420 1.016963
O17   O     O_3   0.736530 0.478650 0.191680 -0.289745
O18   O     O_3   0.263470 0.521350 0.808320 -0.288705
O19   O     O_3   0.763470 0.978650 0.308320 -0.289128
O20   O     O_3   0.236530 0.021350 0.691680 -0.289395
V1    V     V_3+5 0.752500 0.206170 0.260820 1.217466
V2    V     V_3+5 0.247500 0.793830 0.739180 1.226022
V3    V     V_3+5 0.747500 0.706170 0.239180 1.230356
V4    V     V_3+5 0.252500 0.293830 0.760820 1.220740
C9    C     C_R   0.825901 0.992827 0.049246 -0.255100
C10   C     C_R   0.173651 0.007716 0.950210 -0.254890
C11   C     C_R   0.674071 0.501858 0.450606 -0.254454
C12   C     C_R   0.326079 0.498373 0.549576 -0.253727
C13   C     C_R   0.822293 0.997486 0.887663 -0.244125
C14   C     C_R   0.176879 0.035502 0.111141 -0.247703
C15   C     C_R   0.674461 0.604312 0.603221 -0.248057
C16   C     C_R   0.325639 0.397624 0.396695 -0.251813
C17   C     C_R   0.791582 0.992026 0.953942 0.343958
C18   C     C_R   0.207676 0.026240 0.045024 0.350793
C19   C     C_R   0.706174 0.569406 0.539892 0.354960
C20   C     C_R   0.293942 0.431842 0.460102 0.353466
C21   C     C_R   0.889193 0.000064 0.076209 -0.280748
C22   C     C_R   0.110404 0.998613 0.923311 -0.283569
C23   C     C_R   0.611895 0.467862 0.426840 -0.281831
C24   C     C_R   0.388283 0.532145 0.573463 -0.282595
C25   C     C_R   0.920617 0.006188 0.009909 0.129523
C26   C     C_R   0.078734 0.011100 0.989231 0.130721
C27   C     C_R   0.579179 0.504640 0.489784 0.129305
C28   C     C_R   0.420955 0.496475 0.510349 0.130476
C29   C     C_R   0.885760 0.002323 0.914560 0.102542
C30   C     C_R   0.113445 0.027507 0.084327 0.102579
C31   C     C_R   0.611882 0.574218 0.578892 0.107094
C32   C     C_R   0.388223 0.427633 0.421093 0.105259
C33   C     C_R   0.985301 0.014101 0.035075 0.066461
C34   C     C_R   0.013983 0.008765 0.963925 0.065910
C35   C     C_R   0.515113 0.478527 0.466596 0.068644
C36   C     C_R   0.485007 0.522959 0.533485 0.066400
C37   C     C_R   0.976938 0.004286 0.869917 -0.201626
C38   C     C_R   0.022208 0.029610 0.128830 -0.202921
C39   C     C_R   0.519974 0.591991 0.621227 -0.197751
C40   C     C_R   0.480106 0.410280 0.378707 -0.201472
C41   C     C_R   0.914284 0.002433 0.846115 -0.137541
C42   C     C_R   0.084803 0.036868 0.152541 -0.141018
C43   C     C_R   0.581990 0.616027 0.643249 -0.141607
C44   C     C_R   0.418084 0.386592 0.356620 -0.146875
H1    H     H_    0.887830 0.999942 0.772996 0.175099
H2    H     H_    0.111122 0.050068 0.225405 0.180659
H3    H     H_    0.606785 0.669831 0.711440 0.170442
H4    H     H_    0.393269 0.333682 0.288271 0.184907
H5    H     H_    0.087461 0.983483 0.849856 0.122795
H6    H     H_    0.912421 0.997479 0.149969 0.121843
H7    H     H_    0.409982 0.579580 0.643468 0.123880
H8    H     H_    0.590263 0.419263 0.357039 0.124000
H9    H     H_    0.796491 0.994789 0.814275 0.188538
H10   H     H_    0.202623 0.048031 0.184283 0.191105
H11   H     H_    0.698747 0.656177 0.672037 0.181960
H12   H     H_    0.301324 0.346473 0.327745 0.193323
H13   H     H_    0.994699 0.005088 0.812177 0.139641
H14   H     H_    0.004286 0.040115 0.186261 0.140140
H15   H     H_    0.500978 0.630453 0.675101 0.138771
H16   H     H_    0.499034 0.372614 0.324652 0.139432
C45   C     C_1   0.416813 0.006585 0.918578 -0.246012
C46   C     C_1   0.583194 0.993448 0.081396 -0.248163
C47   C     C_1   0.083184 0.507397 0.581409 -0.245051
C48   C     C_1   0.916817 0.492598 0.418587 -0.244922
C49   C     C_1   0.469164 0.002212 0.969889 0.076250
C50   C     C_1   0.530845 0.997818 0.030080 0.076232
C51   C     C_1   0.030839 0.502603 0.530094 0.075390
C52   C     C_1   0.969162 0.497388 0.469902 0.075396
N1    N     N_R   0.272897 0.035405 0.075422 0.232144
O21   O     O_R   0.301644 0.114554 0.154045 -0.416923
O22   O     O_R   0.304207 0.949864 0.029938 -0.432028
N2    N     N_R   0.726255 0.986275 0.922929 0.226526
O23   O     O_R   0.695803 0.047990 0.840986 -0.398201
O24   O     O_R   0.696882 0.905079 0.971906 -0.432988
N3    N     N_R   0.229718 0.397799 0.432692 0.234152
O25   O     O_R   0.205146 0.280777 0.366585 -0.410669
O26   O     O_R   0.194558 0.495952 0.466623 -0.434785
N4    N     N_R   0.770379 0.603755 0.567193 0.233851
O27   O     O_R   0.794914 0.721222 0.633099 -0.406322
O28   O     O_R   0.805571 0.505487 0.533376 -0.435327

loop_
_geom_bond_atom_site_label_1
_geom_bond_atom_site_label_2
_geom_bond_distance
_ccdc_geom_bond_type
O17   V3    1.793238 S    
O1    C5    1.331827 A    
N1    O21   1.301575 A    
C47   C51   1.222048 T    
O19   V1    1.798531 S    
C18   N1    1.441366 S    
C9    C21   1.399041 A    
O3    C7    1.333860 A    
C10   C18   1.410738 A    
O15   V3    1.964362 S    
C25   C33   1.431763 A    
C33   C38   1.413625 A    
O7    C3    1.318881 A    
C35   C40   1.413574 A    
C26   C30   1.416924 A    
C4    C45   1.462482 S    
C36   C39   1.413640 A    
C40   C44   1.385441 A    
O9    V1    2.032957 S    
C23   H8    1.076539 S    
C14   C18   1.399977 A    
C1    C48   1.462785 S    
O4    C8    1.333801 A    
C20   N3    1.441199 S    
C25   C29   1.416451 A    
C17   N2    1.442580 S    
C3    C46   1.462472 S    
O1    V3    2.025146 S    
O13   V1    1.966283 S    
O2    V4    2.025149 S    
O3    V1    2.018731 S    
C40   H16   1.075356 S    
C28   C36   1.432378 A    
C1    O15   1.319177 A    
C15   C31   1.402227 A    
C48   C52   1.222049 T    
C2    O16   1.319171 A    
C7    C9    1.464053 S    
N2    O24   1.300447 A    
O2    C6    1.331908 A    
C16   H12   1.084337 S    
C10   C22   1.398736 A    
C11   C19   1.410708 A    
C16   C20   1.399314 A    
C43   H3    1.084630 S    
C44   H4    1.084289 S    
C13   C29   1.402351 A    
C34   C37   1.413723 A    
O11   C7    1.335005 A    
C38   H14   1.075743 S    
C11   C23   1.398757 A    
C35   C36   1.432040 A    
O12   C8    1.334737 A    
C24   H7    1.076620 S    
O10   V2    2.032959 S    
O5    V1    1.991931 S    
C39   C43   1.385727 A    
C2    C47   1.462785 S    
O7    V3    1.987965 S    
C38   C42   1.386038 A    
O8    V4    1.987969 S    
C46   C50   1.221880 T    
C51   C52   1.438513 S    
C45   C49   1.221879 T    
O18   V4    1.793239 S    
C23   C27   1.414268 A    
C14   H10   1.084350 S    
C16   C32   1.402197 A    
C32   C44   1.391458 A    
C13   H9    1.084342 S    
C8    C10   1.463710 S    
C39   H15   1.075429 S    
C21   H6    1.077006 S    
C26   C34   1.431872 A    
O5    C1    1.319935 A    
C31   C43   1.391653 A    
N3    O25   1.301672 A    
C14   C30   1.402552 A    
C21   C25   1.413080 A    
O8    C4    1.318757 A    
N2    O23   1.301718 A    
O9    C5    1.337568 A    
N4    O28   1.300906 A    
O14   V2    1.966285 S    
O6    V2    1.991929 S    
C12   C20   1.410584 A    
C27   C35   1.432267 A    
C29   C41   1.391891 A    
O16   V4    1.964359 S    
C3    O13   1.318962 A    
N3    O26   1.300914 A    
O6    C2    1.319939 A    
C15   C19   1.399460 A    
O11   V3    2.044887 S    
C30   C42   1.391842 A    
O12   V4    2.044888 S    
C6    C12   1.464377 S    
C22   C26   1.413449 A    
C9    C17   1.412524 A    
O10   C6    1.337402 A    
O20   V2    1.798533 S    
C5    C11   1.464538 S    
C19   N4    1.441260 S    
C37   H13   1.075623 S    
C33   C34   1.431266 A    
C42   H2    1.084438 S    
C41   H1    1.084529 S    
C12   C24   1.398966 A    
C27   C31   1.417113 A    
C13   C17   1.400455 A    
N4    O27   1.301720 A    
C37   C41   1.386091 A    
C24   C28   1.414242 A    
N1    O22   1.300836 A    
C4    O14   1.319075 A    
C49   C50   1.438247 S    
C22   H5    1.076868 S    
O4    V2    2.018728 S    
C28   C32   1.417122 A    
C15   H11   1.084378 S    
