data_mof_unit_59768.cif
_audit_creation_date              2012-12-11T14:03:26-0500
_audit_creation_method            fapswitch 2.2
_symmetry_space_group_name_H-M    P1
_symmetry_Int_Tables_number       1
_space_group_crystal_system       triclinic
_cell_length_a                    6.959833
_cell_length_b                    11.436463
_cell_length_c                    18.564769
_cell_angle_alpha                 90.000024
_cell_angle_beta                  92.835361
_cell_angle_gamma                 90.0
_cell_volume                      1475.87001148

loop_
_atom_site_label
_atom_site_type_symbol
_atom_type_description
_atom_site_fract_x
_atom_site_fract_y
_atom_site_fract_z
_atom_type_partial_charge
O1    O     O_R   0.330540 0.606360 0.598870 -0.542331
O2    O     O_R   0.669460 0.106360 0.401130 -0.542332
O3    O     O_R   0.026770 0.620470 0.750430 -0.540614
O4    O     O_R   0.973230 0.120470 0.249570 -0.540614
O5    O     O_R   0.856460 0.393640 0.750930 -0.533759
O6    O     O_R   0.143540 0.893640 0.249070 -0.533759
C1    C     C_R   0.199345 0.648402 0.774683 0.694632
C2    C     C_R   0.800655 0.148402 0.225316 0.694634
O7    O     O_R   0.000920 0.620350 0.599420 -0.545333
O8    O     O_R   0.999080 0.120350 0.400580 -0.545333
O9    O     O_R   0.830430 0.393520 0.598850 -0.539802
O10   O     O_R   0.169570 0.893520 0.401150 -0.539802
C3    C     C_R   0.166707 0.647839 0.574589 0.762372
C4    C     C_R   0.833292 0.147839 0.425411 0.762373
O11   O     O_R   0.356570 0.606480 0.750960 -0.540669
O12   O     O_R   0.643430 0.106480 0.249040 -0.540670
O13   O     O_3   0.176990 0.425580 0.674890 -0.366463
O14   O     O_3   0.823010 0.925580 0.325110 -0.366463
V1    V     V_3+5 0.902170 0.513810 0.674910 1.467694
V2    V     V_3+5 0.097830 0.013810 0.325090 1.467694
O15   O     O_R   0.500800 0.379530 0.599380 -0.545475
O16   O     O_R   0.499200 0.879530 0.400620 -0.545475
C5    C     C_R   0.666599 0.352050 0.574555 0.761899
C6    C     C_R   0.333401 0.852050 0.425445 0.761899
O17   O     O_R   0.526650 0.379650 0.750390 -0.537411
O18   O     O_R   0.473350 0.879650 0.249610 -0.537411
C7    C     C_R   0.697712 0.351286 0.774333 0.709591
C8    C     C_R   0.302288 0.851286 0.225667 0.709591
V3    V     V_3+5 0.402160 0.486190 0.674900 1.468495
V4    V     V_3+5 0.597840 0.986190 0.325100 1.468494
O19   O     O_3   0.677210 0.574420 0.674910 -0.376825
O20   O     O_3   0.322790 0.074420 0.325090 -0.376826
C9    C     C_R   0.713854 0.062284 0.876266 -0.088213
C10   C     C_R   0.286147 0.562284 0.123734 -0.088213
H1    H     H_    0.712419 0.937256 0.004169 0.159548
H2    H     H_    0.287581 0.437256 0.995831 0.159548
C11   C     C_R   0.709629 0.263783 0.832293 -0.164236
C12   C     C_R   0.290371 0.763783 0.167707 -0.164236
C13   C     C_R   0.780609 0.354605 0.180071 0.327880
C14   C     C_R   0.219390 0.854605 0.819929 0.327880
C15   C     C_R   0.790117 0.434985 0.122678 -0.020410
C16   C     C_R   0.209883 0.934985 0.877322 -0.020410
C17   C     C_R   0.798285 0.393248 0.051346 0.228840
C18   C     C_R   0.201715 0.893248 0.948654 0.228840
C19   C     C_R   0.759907 0.272878 0.034700 0.034029
C20   C     C_R   0.240093 0.772878 0.965300 0.034028
C21   C     C_R   0.758312 0.192843 0.093159 0.041770
C22   C     C_R   0.241689 0.692842 0.906841 0.041771
C23   C     C_R   0.729199 0.228827 0.962211 0.117031
C24   C     C_R   0.270801 0.728827 0.037789 0.117031
C25   C     C_R   0.720649 0.105911 0.948931 0.062163
C26   C     C_R   0.279351 0.605910 0.051069 0.062163
C27   C     C_R   0.719791 0.030791 0.008811 -0.117666
C28   C     C_R   0.280209 0.530791 0.991188 -0.117666
C29   C     C_R   0.736070 0.073022 0.078698 -0.133082
C30   C     C_R   0.263930 0.573022 0.921302 -0.133083
C31   C     C_R   0.699518 0.303792 0.902673 -0.306568
C32   C     C_R   0.300482 0.803792 0.097327 -0.306569
C33   C     C_R   0.715303 0.142609 0.818165 0.390871
C34   C     C_R   0.284697 0.642609 0.181835 0.390870
C35   C     C_R   0.780420 0.233136 0.165335 -0.204158
C36   C     C_R   0.219579 0.733137 0.834665 -0.204158
H3    H     H_    0.665697 0.395107 0.909589 0.184729
H4    H     H_    0.334303 0.895107 0.090411 0.184729
H5    H     H_    0.734401 0.009049 0.121644 0.103249
H6    H     H_    0.265599 0.509049 0.878355 0.103249
C37   C     C_2   0.831800 0.233758 0.484683 -0.314966
C38   C     C_2   0.168200 0.733758 0.515317 -0.314967
H7    H     H_    0.968905 0.270696 0.503742 0.153735
H8    H     H_    0.031094 0.770696 0.496258 0.153735
C39   C     C_2   0.668107 0.266121 0.515289 -0.319841
C40   C     C_2   0.331893 0.766121 0.484711 -0.319841
H9    H     H_    0.531002 0.229185 0.496228 0.152597
H10   H     H_    0.468998 0.729185 0.503772 0.152597
O21   O     O_3   0.710857 0.099401 0.748348 -0.591100
H11   H     H_    0.724383 0.163303 0.713108 0.286933
O22   O     O_3   0.289144 0.599401 0.251652 -0.591101
H12   H     H_    0.275618 0.663303 0.286892 0.286933
C41   C     C_2   0.709324 0.934195 0.858076 0.777321
O23   O     O_2   0.625008 0.864284 0.894796 -0.591058
O24   O     O_R   0.795587 0.893708 0.796374 -0.605750
H13   H     H_    0.778836 0.806396 0.788924 0.306560
C42   C     C_2   0.290676 0.434195 0.141924 0.777320
O25   O     O_2   0.374992 0.364284 0.105204 -0.591058
O26   O     O_R   0.204413 0.393708 0.203626 -0.605750
H14   H     H_    0.221164 0.306396 0.211076 0.306560
O27   O     O_3   0.775689 0.397750 0.249700 -0.588966
H15   H     H_    0.741830 0.335242 0.283589 0.286759
O28   O     O_3   0.224311 0.897750 0.750300 -0.588965
H16   H     H_    0.258164 0.835241 0.716411 0.286759
O29   O     O_3   0.862175 0.470368 0.000909 -0.628263
H17   H     H_    0.947158 0.426257 0.969462 0.285592
O30   O     O_3   0.137824 0.970368 0.999091 -0.628263
H18   H     H_    0.052842 0.926257 0.030538 0.285592
C43   C     C_2   0.795586 0.564093 0.136736 0.847335
O31   O     O_2   0.834845 0.601891 0.197301 -0.515223
O32   O     O_R   0.753224 0.643161 0.080632 -0.635308
H19   H     H_    0.761447 0.727725 0.096940 0.281869
C44   C     C_2   0.204414 0.064093 0.863265 0.847334
O33   O     O_2   0.165156 0.101891 0.802700 -0.515223
O34   O     O_R   0.246776 0.143161 0.919368 -0.635308
H20   H     H_    0.238554 0.227725 0.903060 0.281869

loop_
_geom_bond_atom_site_label_1
_geom_bond_atom_site_label_2
_ccdc_geom_bond_type
O27   H15   S    
O30   H18   S    
H1    C27   S    
O13   V3    S    
C43   O31   D    
C13   O27   S    
O4    C2    A    
V1    O19   S    
O24   H13   S    
C14   C36   A    
C13   C15   A    
O22   H12   S    
O9    V1    S    
O34   H20   S    
O3    C1    A    
O12   V4    S    
O32   H19   S    
C23   C31   A    
O17   V3    S    
C19   C21   A    
O7    C3    A    
C18   O30   S    
O5    C7    A    
O7    V1    S    
O6    C8    A    
C42   O25   D    
C18   C20   A    
C23   C25   A    
C24   C26   A    
C4    C37   S    
O3    V1    S    
O14   V4    S    
C8    C12   S    
C14   O28   S    
C37   C39   D    
C2    C35   S    
C14   C16   A    
C9    C33   A    
C12   C32   A    
C10   C34   A    
C15   C17   A    
C16   C18   A    
O18   C8    A    
C29   H5    S    
C26   C28   A    
O11   V3    S    
C20   C22   A    
C27   C29   A    
C32   H4    S    
C13   C35   A    
C28   C30   A    
C34   O22   S    
C24   C32   A    
C5    C39   S    
C40   H10   S    
O8    C4    A    
O8    V2    S    
O29   H17   S    
C39   H9    S    
C9    C41   S    
C1    O11   A    
O26   H14   S    
O15   V3    S    
C17   O29   S    
C9    C25   A    
C25   C27   A    
O21   H11   S    
C1    C36   S    
C22   C36   A    
C44   O33   D    
C19   C23   A    
C38   C40   D    
O10   V2    S    
O1    V3    S    
C17   C19   A    
C11   C33   A    
C12   C34   A    
C38   H8    S    
C44   O34   S    
O18   V4    S    
O15   C5    A    
O16   C6    A    
O1    C3    A    
C10   C42   S    
C33   O21   S    
C6    C40   S    
C21   C29   A    
V2    O20   S    
C22   C30   A    
C20   C24   A    
O16   V4    S    
C42   O26   S    
C10   C26   A    
C31   H3    S    
C21   C35   A    
C43   O32   S    
O5    V1    S    
O17   C7    A    
O6    V2    S    
O10   C6    A    
C41   O24   S    
O2    V4    S    
V3    O19   S    
C16   C44   S    
V4    O20   S    
C15   C43   S    
C7    C11   S    
C30   H6    S    
O9    C5    A    
O13   V1    S    
O14   V2    S    
O2    C4    A    
H2    C28   S    
C41   O23   D    
O4    V2    S    
C2    O12   A    
C37   H7    S    
O28   H16   S    
C11   C31   A    
C3    C38   S    
