data_mof_unit_58781.cif
_audit_creation_date              2012-12-10T20:27:11-0500
_audit_creation_method            fapswitch 2.2
_symmetry_space_group_name_H-M    P1
_symmetry_Int_Tables_number       1
_space_group_crystal_system       triclinic
_cell_length_a                    10.472167
_cell_length_b                    10.675066
_cell_length_c                    9.900746
_cell_angle_alpha                 89.160586
_cell_angle_beta                  102.745928
_cell_angle_gamma                 90.571373
_cell_volume                      1079.39926372

loop_
_atom_site_label
_atom_site_type_symbol
_atom_type_description
_atom_site_fract_x
_atom_site_fract_y
_atom_site_fract_z
_atom_type_partial_charge
C1    C     C_R   0.507405 0.259827 0.502317 0.941884
C2    C     C_R   0.538762 0.129190 0.509563 -0.268236
C3    C     C_R   0.570354 0.068986 0.395266 0.581139
C4    C     C_R   0.575719 0.938304 0.393749 0.037592
C5    C     C_R   0.542523 0.870921 0.506267 -0.166382
C6    C     C_R   0.545101 0.933600 0.629142 -0.053633
C7    C     C_3   0.463077 0.919804 0.734396 -0.438306
C8    C     C_3   0.464883 0.062087 0.739337 0.753720
C9    C     C_R   0.387728 0.477342 0.045363 0.105582
C10   C     C_R   0.605242 0.542433 0.097343 0.615224
C11   C     C_R   0.605037 0.545969 0.953470 0.026402
C12   C     C_R   0.257252 0.495171 0.443415 0.926292
C13   C     C_R   0.386904 0.479019 0.903526 0.172447
C14   C     C_3   0.296546 0.368907 0.879603 -0.451464
C15   C     C_3   0.301668 0.364853 0.034297 -0.447750
C16   C     C_R   0.510123 0.739884 0.500979 0.931637
C17   C     C_R   0.742501 0.493141 0.556271 0.815646
C18   C     C_2   0.117570 0.470870 0.415793 -0.343984
C19   C     C_2   0.071692 0.399761 0.507086 -0.048186
C20   C     C_2   0.882563 0.471077 0.582983 0.441995
C21   C     C_2   0.932601 0.393555 0.501220 0.028212
C22   C     C_R   0.545945 0.061315 0.632077 -0.022616
H1    H     H_    0.198069 0.395172 0.819119 0.235936
H2    H     H_    0.339962 0.286549 0.841839 0.265627
H3    H     H_    0.206032 0.385496 0.060073 0.216574
H4    H     H_    0.353317 0.281453 0.088031 0.240652
H5    H     H_    0.136914 0.353700 0.593267 0.180444
H6    H     H_    0.052778 0.512242 0.325499 0.180053
H7    H     H_    0.364478 0.879762 0.690262 0.222509
H8    H     H_    0.516973 0.872436 0.830721 0.171256
N1    N     N_R   0.499160 0.499140 0.142600 -0.155394
N2    N     N_R   0.499160 0.499180 0.856960 -0.135884
O1    O     O_R   0.500020 0.316790 0.614700 -0.604580
O2    O     O_R   0.500000 0.316760 0.385350 -0.562469
O3    O     O_R   0.317820 0.500020 0.571850 -0.584310
O4    O     O_R   0.317800 0.499980 0.342510 -0.610645
O5    O     O_R   0.500000 0.683240 0.614650 -0.619711
O6    O     O_R   0.499980 0.683210 0.385300 -0.603607
O7    O     O_R   0.682200 0.500020 0.657490 -0.621183
O8    O     O_R   0.682180 0.499980 0.428150 -0.563428
Zn1   Zn    Zn3+2 0.500010 0.500020 0.653140 0.957650
Zn2   Zn    Zn3+2 0.499990 0.499980 0.346860 1.006348
C23   C     C_3   0.852057 0.302257 0.401357 -0.787664
H9    H     H_    0.916330 0.234912 0.363944 0.247801
H10   H     H_    0.786727 0.247620 0.454628 0.227204
H11   H     H_    0.793964 0.351778 0.309235 0.297509
C24   C     C_3   0.538030 0.115014 0.878431 -0.861127
H12   H     H_    0.633638 0.067638 0.915590 0.214830
H13   H     H_    0.557337 0.216637 0.867839 0.246958
H14   H     H_    0.478135 0.100879 0.957084 0.258552
F1    F     F_    0.711855 0.582639 0.191058 -0.683477
C25   C     C_3   0.720650 0.606678 0.911483 -0.670287
H15   H     H_    0.789659 0.533883 0.893540 0.261926
H16   H     H_    0.688160 0.668693 0.820103 0.252896
H17   H     H_    0.775999 0.668573 0.993475 0.236339
F2    F     F_    0.962858 0.538989 0.682984 -0.685742
F3    F     F_    0.586367 0.135366 0.281722 -0.681677
C26   C     C_3   0.610483 0.875755 0.270586 -0.715820
H18   H     H_    0.684393 0.801859 0.306982 0.269215
H19   H     H_    0.521548 0.835161 0.202588 0.238444
H20   H     H_    0.654744 0.942285 0.206495 0.258199
F4    F     F_    0.341922 0.112784 0.689929 -0.677134

loop_
_geom_bond_atom_site_label_1
_geom_bond_atom_site_label_2
_ccdc_geom_bond_type
C14   H1    S    
C2    C22   A    
C8    C22   S    
N2    Zn1   S    
C6    C7    S    
C7    H7    S    
N1    Zn2   S    
C12   O4    A    
C19   H5    S    
C13   N2    A    
O4    Zn2   S    
C24   H12   S    
O2    Zn2   S    
C25   H17   S    
C16   O5    A    
C20   F2    S    
O1    Zn1   S    
C26   H20   S    
O8    Zn2   S    
C2    C3    A    
C9    C15   S    
C8    C24   S    
C1    O1    A    
C7    C8    S    
O7    Zn1   S    
C7    H8    S    
C13   C14   S    
C25   H15   S    
C12   O3    A    
C23   H10   S    
C10   F1    S    
C3    F3    S    
C19   C21   S    
C25   H16   S    
C11   N2    A    
O6    Zn2   S    
C24   H14   S    
C23   H9    S    
O5    Zn1   S    
C5    C6    A    
O3    Zn1   S    
C23   H11   S    
C15   H3    S    
C10   C11   A    
C9    N1    A    
C1    O2    A    
C4    C26   S    
C3    C4    A    
C6    C22   A    
C17   C20   S    
C18   H6    S    
C20   C21   D    
C24   H13   S    
C1    C2    S    
C17   O7    A    
C14   H2    S    
C9    C13   A    
C14   C15   S    
C18   C19   D    
C5    C16   S    
C11   C25   S    
C26   H18   S    
C21   C23   S    
C26   H19   S    
C10   N1    A    
C8    F4    S    
C16   O6    A    
C4    C5    A    
C15   H4    S    
C17   O8    A    
C12   C18   S    
