data_mof_unit_21384.cif
_audit_creation_date              2013-03-05T15:49:45-0500
_audit_creation_method            fapswitch 2.2
_symmetry_space_group_name_H-M    P1
_symmetry_Int_Tables_number       1
_space_group_crystal_system       triclinic
_cell_length_a                    12.005511
_cell_length_b                    12.853864
_cell_length_c                    13.063176
_cell_angle_alpha                 87.497448
_cell_angle_beta                  113.512892
_cell_angle_gamma                 93.740461
_cell_volume                      1844.21519979

loop_
_atom_site_label
_atom_site_type_symbol
_atom_site_description
_atom_site_fract_x
_atom_site_fract_y
_atom_site_fract_z
_atom_type_partial_charge
O1    O     O_R   0.579910 0.341070 0.505280 -0.592810
O2    O     O_R   0.388440 0.353740 0.492580 -0.564005
C1    C     C_R   0.476010 0.299593 0.495333 0.941590
O3    O     O_R   0.643280 0.490550 0.663120 -0.582152
O4    O     O_R   0.451810 0.503220 0.650420 -0.591769
C2    C     C_R   0.567735 0.498942 0.709258 0.895051
Zn1   Zn    Zn3+2 0.627850 0.491540 0.508480 1.069827
Zn2   Zn    Zn3+2 0.372150 0.508460 0.491520 1.051109
O5    O     O_R   0.611560 0.646260 0.507420 -0.636802
O6    O     O_R   0.420090 0.658930 0.494720 -0.638307
O7    O     O_R   0.548190 0.496780 0.349580 -0.544538
O8    O     O_R   0.356720 0.509450 0.336880 -0.578260
C3    C     C_R   0.523143 0.700292 0.502035 0.855905
C4    C     C_R   0.433179 0.506668 0.290581 0.971231
C5    C     C_R   0.303391 0.647351 0.012389 -0.152149
H1    H     H_    0.233890 0.701311 0.966865 0.243376
C6    C     C_R   0.395191 0.530380 0.171108 -0.306657
C7    C     C_R   0.719401 0.450920 0.899358 0.271131
C8    C     C_R   0.755675 0.448623 0.014667 -0.221072
C9    C     C_R   0.684966 0.491188 0.063311 0.375324
C10   C     C_R   0.571700 0.532386 0.993638 0.005275
C11   C     C_R   0.548853 0.555030 0.881097 -0.075014
C12   C     C_R   0.479926 0.552158 0.031194 -0.090085
C13   C     C_R   0.389088 0.622205 0.970609 -0.113178
C14   C     C_R   0.384009 0.663369 0.868061 0.667652
C15   C     C_R   0.460691 0.627674 0.822195 -0.209899
C16   C     C_R   0.470952 0.497781 0.122670 0.643923
C17   C     C_R   0.307082 0.603651 0.113777 0.208276
C18   C     C_R   0.614866 0.504406 0.831203 -0.207133
H2    H     H_    0.841194 0.415398 0.066763 0.225938
H3    H     H_    0.451931 0.659171 0.741345 0.169065
C19   C     C_R   0.536080 0.811241 0.497718 -0.044654
C20   C     C_R   0.460826 0.187995 0.491935 -0.168244
C21   C     C_R   0.395143 0.030094 0.561399 -0.148877
C22   C     C_R   0.393112 0.137037 0.546582 -0.180144
C23   C     C_R   0.526207 0.132349 0.445836 0.228396
C24   C     C_R   0.531698 0.024986 0.463753 0.048012
C25   C     C_R   0.465737 0.974343 0.522384 0.134709
C26   C     C_R   0.469158 0.867878 0.539379 -0.203433
C27   C     C_R   0.603666 0.860002 0.441996 -0.162894
C28   C     C_R   0.600596 0.966708 0.423920 -0.098694
H4    H     H_    0.417399 0.828472 0.582807 0.163713
H5    H     H_    0.654107 0.815144 0.408217 0.193265
H6    H     H_    0.343926 0.991297 0.605466 0.185929
H7    H     H_    0.650605 0.002159 0.377376 0.213335
H8    H     H_    0.343040 0.180384 0.582008 0.227135
N1    N     N_R   0.798200 0.480260 0.519790 -0.124755
N2    N     N_R   0.201820 0.519740 0.480210 -0.167284
C29   C     C_R   0.025071 0.623050 0.427217 0.251082
C30   C     C_R   0.140521 0.605440 0.428522 -0.110892
C31   C     C_R   0.150936 0.447084 0.530605 0.727844
C32   C     C_R   0.033510 0.458724 0.528939 -0.093843
C33   C     C_R   0.969465 0.547896 0.477238 -0.089350
C34   C     C_R   0.850505 0.556468 0.474426 0.157862
C35   C     C_R   0.861070 0.395462 0.571978 0.148173
C36   C     C_R   0.978671 0.383182 0.577590 -0.152775
H9    H     H_    0.797356 0.622205 0.433868 0.182789
H10   H     H_    0.819596 0.336332 0.608959 0.172020
H11   H     H_    0.025585 0.314264 0.618739 0.207019
H12   H     H_    0.183427 0.662715 0.390896 0.221448
N3    N     N_R   0.221173 0.634259 0.156305 0.226790
O9    O     O_R   0.147882 0.563978 0.174627 -0.332855
O10   O     O_R   0.198616 0.732173 0.154011 -0.341220
N4    N     N_R   0.584337 0.184929 0.379524 0.209863
O11   O     O_R   0.519363 0.234172 0.288113 -0.288367
O12   O     O_R   0.702407 0.192134 0.415709 -0.362315
N5    N     N_R   0.967879 0.717584 0.376385 0.233147
O13   O     O_R   0.978040 0.755107 0.286177 -0.287340
O14   O     O_R   0.925253 0.775635 0.430088 -0.383263
F1    F     F_    0.300107 0.732813 0.808864 -0.655028
F2    F     F_    0.214980 0.363649 0.583727 -0.656331
F3    F     F_    0.534240 0.410997 0.164765 -0.580612
N6    N     N_R   0.792405 0.401491 0.853762 0.218992
O15   O     O_R   0.803925 0.301322 0.867156 -0.354630
O16   O     O_R   0.868814 0.458147 0.824152 -0.358927
N7    N     N_R   0.737083 0.505968 0.181812 0.253057
O17   O     O_R   0.720919 0.591841 0.222043 -0.406973
O18   O     O_R   0.813168 0.440664 0.248063 -0.341724

loop_
_geom_bond_atom_site_label_1
_geom_bond_atom_site_label_2
_geom_bond_distance
_ccdc_geom_bond_type
C35   C36   1.403259 A    
C11   C18   1.411665 A    
N6    O15   1.300685 A    
C3    C19   1.425557 S    
C8    C9    1.394688 A    
C33   C34   1.425301 A    
Zn1   O7    1.907896 S    
C23   C24   1.391037 A    
N7    O18   1.301458 A    
C21   C22   1.380224 A    
C25   C26   1.377410 A    
O7    C4    1.296881 A    
C1    C20   1.434537 S    
C5    H1    1.083749 S    
C20   C23   1.406547 A    
C9    N7    1.435690 S    
C7    C8    1.390621 A    
C19   C26   1.389771 A    
N3    O10   1.301132 A    
O5    C3    1.283126 A    
N2    C31   1.368026 A    
C12   C13   1.415466 A    
C12   C16   1.395737 A    
C17   N3    1.434011 S    
N2    C30   1.362090 A    
C15   H3    1.081677 S    
C21   C25   1.395480 A    
C10   C11   1.404485 A    
N6    O16   1.301082 A    
C4    C6    1.464691 S    
C31   F2    1.356386 S    
O3    Zn1   1.953130 S    
C26   H4    1.086118 S    
C27   H5    1.083936 S    
N5    O13   1.301355 A    
C6    C16   1.391163 A    
C21   H6    1.084212 S    
N7    O17   1.300852 A    
O3    C2    1.285326 A    
C14   C15   1.391494 A    
C31   C32   1.418815 A    
O1    C1    1.283356 A    
N4    O12   1.301290 A    
Zn2   N2    2.005046 S    
C24   C25   1.417957 A    
Zn2   O8    1.953131 S    
C7    C18   1.417013 A    
C13   C14   1.398341 A    
N1    C34   1.367857 A    
C27   C28   1.381930 A    
O8    C4    1.287946 A    
C7    N6    1.431391 S    
C10   C12   1.413478 A    
C32   C33   1.412153 A    
N1    C35   1.361757 A    
Zn1   O5    2.009912 S    
C5    C13   1.402749 A    
C29   N5    1.436487 S    
O1    Zn1   1.979002 S    
C6    C17   1.415312 A    
O2    Zn2   2.009912 S    
O6    C3    1.283257 A    
O4    Zn2   1.907896 S    
C36   H11   1.082995 S    
C30   H12   1.081602 S    
N4    O11   1.300079 A    
O2    C1    1.286123 A    
C8    H2    1.083493 S    
C5    C17   1.401101 A    
O4    C2    1.297498 A    
C29   C33   1.419378 A    
C20   C22   1.397223 A    
C19   C27   1.395036 A    
C24   C28   1.405138 A    
N3    O9    1.301171 A    
C2    C18   1.465633 S    
C9    C10   1.422057 A    
Zn2   O6    1.979000 S    
C29   C30   1.412223 A    
C11   C15   1.414433 A    
C35   H10   1.081413 S    
C28   H7    1.081271 S    
C14   F1    1.358268 S    
N5    O14   1.301084 A    
C23   N4    1.436632 S    
C22   H8    1.083590 S    
C16   F3    1.359300 S    
C32   C36   1.405973 A    
Zn1   N1    2.005285 S    
C34   H9    1.078579 S    
