data_mof_unit_41111.cif
_audit_creation_date              2012-12-11T17:36:14-0500
_audit_creation_method            fapswitch 2.2
_symmetry_space_group_name_H-M    P1
_symmetry_Int_Tables_number       1
_space_group_crystal_system       triclinic
_cell_length_a                    25.831982
_cell_length_b                    6.90339
_cell_length_c                    21.697104
_cell_angle_alpha                 89.995914
_cell_angle_beta                  96.124295
_cell_angle_gamma                 89.996292
_cell_volume                      3847.12413289

loop_
_atom_site_label
_atom_site_type_symbol
_atom_type_description
_atom_site_fract_x
_atom_site_fract_y
_atom_site_fract_z
_atom_type_partial_charge
O1    O     O_R   0.208650 0.594520 0.175450 -0.535826
O2    O     O_R   0.791350 0.405480 0.824550 -0.535822
O3    O     O_R   0.291350 0.094520 0.324550 -0.535840
O4    O     O_R   0.708650 0.905480 0.675450 -0.535838
O5    O     O_R   0.192980 0.260780 0.300160 -0.539357
O6    O     O_R   0.807020 0.739220 0.699840 -0.539360
O7    O     O_R   0.307020 0.760780 0.199840 -0.539331
O8    O     O_R   0.692980 0.239220 0.800160 -0.539324
C1    C     C_R   0.178898 0.432836 0.318542 0.726434
C2    C     C_R   0.821102 0.567164 0.681458 0.726428
C3    C     C_R   0.321100 0.932835 0.181455 0.726479
C4    C     C_R   0.678901 0.067165 0.818546 0.726478
O9    O     O_R   0.202550 0.264660 0.174420 -0.536030
O10   O     O_R   0.797450 0.735340 0.825580 -0.536031
O11   O     O_R   0.297450 0.764660 0.325580 -0.536045
O12   O     O_R   0.702550 0.235340 0.674420 -0.536043
O13   O     O_R   0.300990 0.096480 0.197920 -0.540582
O14   O     O_R   0.699010 0.903520 0.802080 -0.540585
O15   O     O_R   0.199010 0.596480 0.302080 -0.540559
O16   O     O_R   0.800990 0.403520 0.697920 -0.540556
C5    C     C_R   0.191069 0.433972 0.151102 0.705505
C6    C     C_R   0.808932 0.566027 0.848898 0.705490
C7    C     C_R   0.308930 0.933949 0.348899 0.705526
C8    C     C_R   0.691067 0.066051 0.651103 0.705520
O17   O     O_3   0.282290 0.427760 0.257860 -0.366382
O18   O     O_3   0.717710 0.572240 0.742140 -0.366380
O19   O     O_3   0.217710 0.927760 0.242140 -0.366365
O20   O     O_3   0.782290 0.072240 0.757860 -0.366364
V1    V     V_3+5 0.244010 0.152080 0.248540 1.464436
V2    V     V_3+5 0.755990 0.847920 0.751460 1.464429
V3    V     V_3+5 0.255990 0.652080 0.251460 1.464503
V4    V     V_3+5 0.744010 0.347920 0.748540 1.464522
C9    C     C_R   0.658374 0.054020 0.590959 -0.093627
C10   C     C_R   0.341626 0.945980 0.409042 -0.093630
C11   C     C_R   0.841616 0.553872 0.909049 -0.093643
C12   C     C_R   0.158378 0.446123 0.090956 -0.093637
C13   C     C_R   0.650238 0.993414 0.480510 -0.099409
C14   C     C_R   0.349766 0.006587 0.519490 -0.099411
C15   C     C_R   0.849750 0.491758 0.019416 -0.099384
C16   C     C_R   0.150234 0.508112 0.980582 -0.099374
C17   C     C_R   0.681448 0.031054 0.535721 -0.085788
C18   C     C_R   0.318554 0.968954 0.464280 -0.085789
C19   C     C_R   0.818535 0.529846 0.964240 -0.085745
C20   C     C_R   0.181452 0.470000 0.035754 -0.085748
C21   C     C_R   0.603796 0.048887 0.589227 -0.168027
C22   C     C_R   0.396202 0.951112 0.410771 -0.168030
C23   C     C_R   0.896200 0.549354 0.910808 -0.167889
C24   C     C_R   0.103796 0.450765 0.089210 -0.167909
C25   C     C_R   0.571047 0.027757 0.532486 0.038130
C26   C     C_R   0.428953 0.972246 0.467511 0.038131
C27   C     C_R   0.928941 0.527689 0.967536 0.038188
C28   C     C_R   0.071049 0.472403 0.032486 0.038169
C29   C     C_R   0.595707 0.983521 0.478960 -0.009144
C30   C     C_R   0.404295 0.016483 0.521038 -0.009146
C31   C     C_R   0.904288 0.482394 0.020983 -0.009057
C32   C     C_R   0.095699 0.517610 0.979029 -0.009064
C33   C     C_R   0.514924 0.035358 0.527734 -0.072481
C34   C     C_R   0.485077 0.964646 0.472260 -0.072484
C35   C     C_R   0.985061 0.535715 0.972324 -0.072394
C36   C     C_R   0.014930 0.464413 0.027706 -0.072397
C37   C     C_R   0.512771 0.886388 0.424518 -0.163255
C38   C     C_R   0.487231 0.113622 0.575476 -0.163254
C39   C     C_R   0.987265 0.385194 0.075323 -0.163202
C40   C     C_R   0.012726 0.614937 0.924708 -0.163199
C41   C     C_R   0.566419 0.913388 0.425833 0.581686
C42   C     C_R   0.433582 0.086623 0.574162 0.581683
C43   C     C_R   0.933600 0.411726 0.074021 0.581682
C44   C     C_R   0.066388 0.588322 0.925997 0.581699
H1    H     H_    0.411832 0.952759 0.366672 0.115027
H2    H     H_    0.588165 0.047239 0.633327 0.115024
H3    H     H_    0.088149 0.451713 0.133301 0.115040
H4    H     H_    0.911854 0.548517 0.866721 0.115035
H5    H     H_    0.668925 0.965055 0.438968 0.195720
H6    H     H_    0.331080 0.034946 0.561031 0.195721
H7    H     H_    0.831064 0.462584 0.060904 0.195693
H8    H     H_    0.168915 0.537187 0.939085 0.195685
C45   C     C_R   0.431507 0.797495 0.085130 -0.137180
C46   C     C_R   0.568495 0.202499 0.914873 -0.137168
C47   C     C_R   0.068509 0.297484 0.414893 -0.137288
C48   C     C_R   0.931491 0.702514 0.585106 -0.137291
H9    H     H_    0.453540 0.669983 0.075162 0.216657
H10   H     H_    0.546459 0.330007 0.924838 0.216634
H11   H     H_    0.046491 0.169963 0.424886 0.216775
H12   H     H_    0.953508 0.830034 0.575114 0.216774
C49   C     C_R   0.392069 0.781877 0.124814 -0.107859
C50   C     C_R   0.607931 0.218118 0.875186 -0.107810
C51   C     C_R   0.107947 0.281865 0.375209 -0.108120
C52   C     C_R   0.892053 0.718134 0.624790 -0.108146
H13   H     H_    0.384452 0.641761 0.144396 0.160411
H14   H     H_    0.615544 0.358231 0.855600 0.160409
H15   H     H_    0.115581 0.141734 0.355652 0.160439
H16   H     H_    0.884419 0.858264 0.644347 0.160439
C53   C     C_R   0.363190 0.945850 0.139276 -0.159504
C54   C     C_R   0.636813 0.054149 0.860729 -0.159488
C55   C     C_R   0.136804 0.445854 0.360716 -0.159576
C56   C     C_R   0.863195 0.554146 0.639283 -0.159580
C57   C     C_R   0.374755 0.124957 0.112550 -0.217923
C58   C     C_R   0.625254 0.875047 0.887461 -0.217977
C59   C     C_R   0.125214 0.624980 0.387407 -0.217717
C60   C     C_R   0.874785 0.375019 0.612592 -0.217702
H17   H     H_    0.353437 0.254454 0.122309 0.163371
H18   H     H_    0.646576 0.745555 0.877707 0.163373
H19   H     H_    0.146509 0.754495 0.377617 0.163375
H20   H     H_    0.853490 0.245505 0.622382 0.163382
C61   C     C_R   0.413673 0.139792 0.072430 0.664943
C62   C     C_R   0.586337 0.860210 0.927582 0.664932
C63   C     C_R   0.086299 0.639813 0.427531 0.664970
C64   C     C_R   0.913700 0.360186 0.572468 0.664974
C65   C     C_R   0.442466 0.976310 0.058579 -0.046159
C66   C     C_R   0.557540 0.023687 0.941429 -0.046155
C67   C     C_R   0.057531 0.476314 0.441416 -0.046180
C68   C     C_R   0.942469 0.523684 0.558583 -0.046180
C69   C     C_1   0.483084 0.992510 0.017268 0.106065
C70   C     C_1   0.516922 0.007485 0.982740 0.106064
C71   C     C_1   0.016917 0.492512 0.482733 0.106036
C72   C     C_1   0.983082 0.507486 0.517266 0.106035
F1    F     F_    0.591002 0.851737 0.376901 -0.657671
F2    F     F_    0.409000 0.148278 0.623094 -0.657675
F3    F     F_    0.909035 0.349090 0.122849 -0.657737
F4    F     F_    0.090951 0.650922 0.877164 -0.657734
C73   C     C_1   0.262646 0.966712 0.464648 0.302413
N1    N     N_1   0.217874 0.965277 0.464933 -0.308951
C74   C     C_1   0.737357 0.033346 0.535354 0.302418
N2    N     N_1   0.782130 0.034831 0.535070 -0.308951
C75   C     C_1   0.237363 0.468178 0.035403 0.302449
N3    N     N_1   0.282138 0.467066 0.035136 -0.308911
C76   C     C_1   0.762622 0.531483 0.964575 0.302452
N4    N     N_1   0.717846 0.532444 0.964829 -0.308911
C77   C     C_1   0.489571 0.753967 0.377743 0.423620
N5    N     N_1   0.471369 0.647134 0.340393 -0.333592
C78   C     C_1   0.510431 0.246053 0.622248 0.423621
N6    N     N_1   0.528635 0.352891 0.659595 -0.333603
C79   C     C_1   0.010526 0.252272 0.121915 0.423561
N7    N     N_1   0.028778 0.145032 0.159117 -0.333621
C80   C     C_1   0.989473 0.747957 0.878140 0.423521
N8    N     N_1   0.971227 0.855277 0.840959 -0.333606
F5    F     F_    0.423086 0.314036 0.046926 -0.685830
F6    F     F_    0.576928 0.685969 0.953091 -0.685814
F7    F     F_    0.076867 0.814070 0.453009 -0.685917
F8    F     F_    0.923132 0.185929 0.546991 -0.685914

loop_
_geom_bond_atom_site_label_1
_geom_bond_atom_site_label_2
_ccdc_geom_bond_type
O17   V3    S    
C59   H19   S    
C52   C56   A    
O1    C5    A    
C51   H15   S    
O19   V1    S    
C9    C21   A    
O3    C7    A    
C10   C18   A    
C60   H20   S    
C48   H12   S    
C11   C23   A    
C47   C51   A    
C25   C33   A    
C74   N2    T    
C5    C12   S    
O7    C3    A    
C6    C11   S    
C35   C40   A    
C26   C30   A    
C36   C39   A    
C39   C79   S    
O9    V1    S    
C14   C18   A    
C14   H6    S    
O4    C8    A    
C55   C59   A    
C62   F6    S    
C54   C58   A    
C71   C72   T    
O1    V3    S    
O13   V1    S    
O2    V4    S    
O3    V1    S    
C22   H1    S    
C61   C65   A    
C50   C54   A    
C49   C53   A    
C1    O15   A    
C15   C31   A    
C52   H16   S    
C2    O16   A    
C16   C32   A    
C51   C55   A    
O2    C6    A    
C10   C22   A    
C45   H9    S    
C11   C19   A    
C1    C55   S    
C16   C20   A    
C65   C69   S    
C13   C29   A    
C46   C50   A    
C34   C37   A    
O11   C7    A    
C40   C80   S    
O15   V3    S    
C35   C36   A    
O12   C8    A    
O10   C6    A    
C4    C54   S    
O10   V2    S    
O16   V4    S    
O5    V1    S    
O17   V1    S    
C39   C43   A    
C20   C75   S    
C60   C64   A    
O7    V3    S    
C38   C42   A    
O19   V3    S    
O8    V4    S    
C80   N8    T    
C50   H14   S    
C19   C76   S    
C64   F8    S    
C49   H13   S    
O18   V4    S    
C15   C19   A    
C33   C38   A    
C2    C56   S    
C58   H18   S    
C61   F5    S    
C16   H8    S    
C26   C34   A    
O5    C1    A    
C37   C41   A    
C46   H10   S    
C53   C57   A    
C31   C43   A    
C14   C30   A    
O20   V4    S    
O8    C4    A    
C7    C10   S    
C48   C68   A    
C21   C25   A    
O9    C5    A    
C46   C66   A    
C45   C65   A    
C73   N1    T    
O14   V2    S    
O6    V2    S    
O18   V2    S    
C15   H7    S    
C75   N3    T    
C12   C20   A    
C27   C35   A    
C24   H3    S    
C78   N6    T    
C40   C44   A    
C68   C72   S    
C29   C41   A    
C69   C70   T    
C62   C66   A    
C66   C70   S    
C3    O13   A    
C21   H2    S    
C63   C67   A    
C38   C78   S    
O6    C2    A    
C23   C27   A    
O11   V3    S    
C76   N4    T    
C30   C42   A    
C37   C77   S    
O12   V4    S    
C59   C63   A    
C22   C26   A    
C13   H5    S    
C8    C9    S    
C58   C62   A    
C47   C67   A    
C9    C17   A    
C17   C74   S    
O20   V2    S    
C77   N5    T    
C57   C61   A    
C48   C52   A    
C32   C44   A    
C44   F4    S    
C47   H11   S    
C3    C53   S    
C33   C34   A    
C79   N7    T    
C25   C29   A    
C56   C60   A    
C12   C24   A    
C27   C31   A    
C13   C17   A    
C57   H17   S    
C23   H4    S    
C45   C49   A    
C64   C68   A    
C24   C28   A    
C28   C36   A    
C42   F2    S    
C4    O14   A    
C41   F1    S    
C67   C71   S    
C43   F3    S    
C63   F7    S    
O4    V2    S    
C28   C32   A    
C18   C73   S    
