data_mof_unit_51888.cif
_audit_creation_date              2012-12-10T19:49:45-0500
_audit_creation_method            fapswitch 2.2
_symmetry_space_group_name_H-M    P1
_symmetry_Int_Tables_number       1
_space_group_crystal_system       triclinic
_cell_length_a                    10.868892
_cell_length_b                    16.065239
_cell_length_c                    17.170458
_cell_angle_alpha                 97.075876
_cell_angle_beta                  90.184019
_cell_angle_gamma                 91.955337
_cell_volume                      2973.50697621

loop_
_atom_site_label
_atom_site_type_symbol
_atom_type_description
_atom_site_fract_x
_atom_site_fract_y
_atom_site_fract_z
_atom_type_partial_charge
C1    C     C_R   0.502514 0.488836 0.349486 0.786098
C2    C     C_R   0.500036 0.511068 0.650553 0.797252
C3    C     C_R   0.871236 0.497074 0.493220 -0.087140
C4    C     C_R   0.128505 0.502506 0.498867 -0.086324
C5    C     C_R   0.935776 0.422775 0.470485 0.030630
C6    C     C_R   0.063752 0.576853 0.518729 0.019429
C7    C     C_R   0.518233 0.482422 0.264618 -0.065640
C8    C     C_R   0.494874 0.516969 0.735909 -0.071218
C9    C     C_R   0.588720 0.544315 0.232646 -0.226671
C10   C     C_R   0.427790 0.455713 0.770913 -0.224017
C11   C     C_R   0.608982 0.538661 0.151789 0.202539
C12   C     C_R   0.419392 0.460401 0.852606 0.204671
C13   C     C_R   0.551382 0.471286 0.102467 0.147870
C14   C     C_R   0.485442 0.526112 0.899246 0.149696
C15   C     C_R   0.484929 0.407974 0.135006 -0.196622
C16   C     C_R   0.549734 0.588332 0.863891 -0.196208
C17   C     C_R   0.468598 0.413343 0.215695 -0.204439
C18   C     C_R   0.554561 0.583838 0.782617 -0.221826
C19   C     C_2   0.547994 0.468659 0.017074 -0.262658
C20   C     C_2   0.494800 0.529984 0.984536 -0.260959
C21   C     C_R   0.454470 0.747440 0.454504 0.089012
C22   C     C_R   0.537112 0.251681 0.548236 0.086917
C23   C     C_R   0.262460 0.500968 0.500463 0.793883
C24   C     C_R   0.737377 0.498831 0.497054 0.785753
C25   C     C_R   0.462372 0.833911 0.453371 -0.268584
C26   C     C_R   0.529580 0.164883 0.547194 -0.257392
C27   C     C_R   0.531463 0.884471 0.511556 0.194733
C28   C     C_R   0.471329 0.115112 0.483804 0.199326
C29   C     C_R   0.594802 0.845654 0.567813 -0.288925
C30   C     C_R   0.416428 0.154654 0.424845 -0.301475
C31   C     C_R   0.586252 0.758519 0.565831 0.068557
C32   C     C_R   0.423246 0.241968 0.429257 0.062104
C33   C     C_2   0.541641 0.977112 0.514881 -0.211988
C34   C     C_2   0.462142 0.022491 0.478695 -0.221923
C35   C     C_R   0.211829 0.762623 0.646527 0.188512
C36   C     C_R   0.742200 0.251131 0.349560 0.192875
C37   C     C_R   0.168864 0.680447 0.620127 -0.136699
C38   C     C_R   0.795313 0.330213 0.377288 -0.100156
C39   C     C_R   0.122443 0.660315 0.543652 0.061330
C40   C     C_R   0.876106 0.339736 0.442015 0.039509
C41   C     C_R   0.117492 0.722851 0.493685 -0.185205
C42   C     C_R   0.907771 0.268444 0.476563 -0.184139
C43   C     C_R   0.158439 0.805352 0.519567 0.190169
C44   C     C_R   0.856419 0.188892 0.449074 0.187686
C45   C     C_R   0.207215 0.824621 0.595694 -0.180400
C46   C     C_R   0.772191 0.180957 0.386231 -0.196924
C47   C     C_R   0.936372 0.572896 0.515671 -0.244624
C48   C     C_R   0.063730 0.427005 0.474186 -0.246001
Cu1   Cu    Cu3+1 0.493640 0.415410 0.495980 0.932178
Cu2   Cu    Cu3+1 0.506360 0.584590 0.504020 0.937243
H1    H     H_    0.238806 0.888321 0.615980 0.125265
H2    H     H_    0.731966 0.119780 0.364695 0.126210
H3    H     H_    0.441563 0.355907 0.097518 0.131519
H4    H     H_    0.599231 0.639228 0.899405 0.133845
H5    H     H_    0.400235 0.708568 0.410274 0.121873
H6    H     H_    0.584003 0.289912 0.596277 0.124747
H7    H     H_    0.380225 0.272717 0.384183 0.112110
H8    H     H_    0.635793 0.728235 0.608631 0.111099
H9    H     H_    0.387741 0.991569 0.442938 0.136814
H10   H     H_    0.616859 0.008720 0.549635 0.151491
H11   H     H_    0.650289 0.882446 0.612946 0.123148
H12   H     H_    0.368879 0.118293 0.375780 0.122603
H13   H     H_    0.566461 0.137802 0.596479 0.113809
H14   H     H_    0.416239 0.859706 0.406484 0.113065
H15   H     H_    0.168137 0.632781 0.659637 0.122906
H16   H     H_    0.773040 0.384522 0.348962 0.122203
H17   H     H_    0.078961 0.707617 0.435159 0.136767
H18   H     H_    0.973704 0.274957 0.524544 0.142997
H19   H     H_    0.887899 0.630108 0.532988 0.165391
H20   H     H_    0.113297 0.370528 0.455904 0.159642
H21   H     H_    0.630079 0.596524 0.270979 0.155200
H22   H     H_    0.379781 0.404852 0.734401 0.152805
N1    N     N_R   0.515930 0.711660 0.510070 -0.169393
N2    N     N_R   0.484070 0.288340 0.489930 -0.171608
O1    O     O_R   0.494030 0.420280 0.382610 -0.602682
O2    O     O_R   0.505970 0.579720 0.617390 -0.587288
O3    O     O_R   0.504770 0.563150 0.389400 -0.593869
O4    O     O_R   0.495230 0.436850 0.610600 -0.593773
O5    O     O_R   0.314270 0.428570 0.496610 -0.588788
O6    O     O_R   0.685730 0.571430 0.503390 -0.591164
O7    O     O_R   0.325020 0.571440 0.503400 -0.571723
O8    O     O_R   0.674980 0.428560 0.496600 -0.574051
C49   C     C_3   0.337614 0.395882 0.886947 -0.434743
C50   C     C_3   0.202141 0.406171 0.867417 -0.838125
H23   H     H_    0.173769 0.470447 0.889892 0.256258
H24   H     H_    0.185646 0.394808 0.803079 0.246071
H25   H     H_    0.144381 0.360138 0.895575 0.240060
H26   H     H_    0.365366 0.331827 0.863117 0.192948
H27   H     H_    0.345552 0.400640 0.951644 0.220356
C51   C     C_3   0.693382 0.604224 0.121118 -0.433406
C52   C     C_3   0.825833 0.597641 0.149185 -0.841446
H28   H     H_    0.832484 0.610745 0.214097 0.246161
H29   H     H_    0.859402 0.533847 0.130114 0.256055
H30   H     H_    0.886089 0.644220 0.123498 0.240109
H31   H     H_    0.695116 0.597818 0.056171 0.220682
H32   H     H_    0.660131 0.667785 0.141662 0.193319
C53   C     C_3   0.255170 0.785250 0.730197 -0.441877
C54   C     C_3   0.371679 0.740039 0.746522 -0.793739
H33   H     H_    0.353202 0.671189 0.738595 0.260484
H34   H     H_    0.446308 0.756074 0.706437 0.253522
H35   H     H_    0.402543 0.759363 0.807992 0.231866
H36   H     H_    0.274414 0.853979 0.743338 0.198086
H37   H     H_    0.181321 0.768082 0.770524 0.197489
C55   C     C_3   0.653049 0.241738 0.281344 -0.414693
C56   C     C_3   0.715572 0.260678 0.205690 -0.841370
H38   H     H_    0.749015 0.327238 0.210762 0.254869
H39   H     H_    0.794276 0.219045 0.192376 0.249601
H40   H     H_    0.648432 0.249588 0.156316 0.242615
H41   H     H_    0.611768 0.176986 0.271657 0.192947
H42   H     H_    0.576670 0.284986 0.294874 0.218579
C57   C     C_3   0.147264 0.872794 0.466484 -0.423044
C58   C     C_3   0.012862 0.893199 0.454657 -0.843629
H43   H     H_    0.959612 0.836991 0.426962 0.250426
H44   H     H_    0.970695 0.915906 0.511868 0.256093
H45   H     H_    0.007937 0.943061 0.415505 0.234248
H46   H     H_    0.197817 0.931267 0.491675 0.201925
H47   H     H_    0.188686 0.851615 0.408667 0.190516
C59   C     C_3   0.897202 0.111944 0.483233 -0.411153
C60   C     C_3   0.875209 0.117571 0.571483 -0.849716
H48   H     H_    0.937063 0.166453 0.603854 0.245948
H49   H     H_    0.778497 0.132610 0.585179 0.248528
H50   H     H_    0.894523 0.056432 0.592069 0.236464
H51   H     H_    0.847354 0.054739 0.454336 0.202001
H52   H     H_    0.997002 0.104159 0.471856 0.202076
H53   H     H_    0.606440 0.631764 0.756231 0.149694
H54   H     H_    0.414463 0.364782 0.239645 0.138544
H55   H     H_    0.465633 0.586124 0.020688 0.158766
H56   H     H_    0.576125 0.412253 0.980886 0.158652

loop_
_geom_bond_atom_site_label_1
_geom_bond_atom_site_label_2
_ccdc_geom_bond_type
C38   C40   A    
C46   H2    S    
C27   C29   A    
C1    O3    A    
C57   C58   S    
C50   H25   S    
C58   H44   S    
C53   C54   S    
C51   H31   S    
C41   H17   S    
C27   C33   S    
C56   H39   S    
C43   C57   S    
C15   H3    S    
C31   H8    S    
C35   C37   A    
C50   H24   S    
C18   H53   S    
C32   N2    A    
C55   H41   S    
C17   H54   S    
C31   N1    A    
C45   H1    S    
C21   N1    A    
C19   H56   S    
Cu1   O4    S    
C15   C17   A    
C24   O8    A    
C59   C60   S    
C47   H19   S    
C24   O6    A    
C19   C20   D    
C7    C17   A    
C37   H15   S    
Cu1   O1    S    
C36   C46   A    
C57   H46   S    
C53   H36   S    
C40   C42   A    
C49   H26   S    
C28   C34   S    
C42   H18   S    
C41   C43   A    
C3    C24   S    
C42   C44   A    
C32   H7    S    
C55   C56   S    
C56   H40   S    
C44   C46   A    
C60   H49   S    
C49   H27   S    
C5    C48   A    
C29   H11   S    
C6    C47   A    
C13   C19   S    
C1    O1    A    
C14   C20   S    
C50   H23   S    
C20   H55   S    
C39   C41   A    
Cu2   N1    S    
C52   H28   S    
C21   H5    S    
C4    C23   S    
C22   H6    S    
C8    C18   A    
Cu1   O5    S    
C12   C49   S    
C25   H14   S    
Cu1   O8    S    
C26   H13   S    
C2    O4    A    
Cu2   O2    S    
C52   H29   S    
C43   C45   A    
C49   C50   S    
C44   C59   S    
C29   C31   A    
C6    C39   S    
C33   C34   D    
C59   H52   S    
C9    C11   A    
C53   H37   S    
C10   C12   A    
C4    C6    A    
C12   C14   A    
C54   H33   S    
C33   H10   S    
C54   H34   S    
C30   H12   S    
C34   H9    S    
C14   C16   A    
C22   N2    A    
C36   C38   A    
C35   C45   A    
Cu2   O3    S    
C2    O2    A    
C55   H42   S    
C4    C48   A    
C60   H50   S    
C7    C9    A    
C21   C25   A    
C23   O7    A    
C1    C7    S    
C8    C10   A    
C2    C8    S    
C9    H21   S    
C48   H20   S    
C3    C5    A    
Cu2   O6    S    
C60   H48   S    
C51   H32   S    
C25   C27   A    
C54   H35   S    
C56   H38   S    
C26   C28   A    
C57   H47   S    
C36   C55   S    
C13   C15   A    
C28   C30   A    
C37   C39   A    
C52   H30   S    
C30   C32   A    
C11   C13   A    
C11   C51   S    
C51   C52   S    
C3    C47   A    
C58   H43   S    
C59   H51   S    
C16   H4    S    
C38   H16   S    
C16   C18   A    
Cu1   Cu2   S    
C22   C26   A    
C5    C40   S    
Cu1   N2    S    
C23   O5    A    
C35   C53   S    
C58   H45   S    
Cu2   O7    S    
C10   H22   S    
