data_mof_unit_41935.cif
_audit_creation_date              2013-03-05T16:07:04-0500
_audit_creation_method            fapswitch 2.2
_symmetry_space_group_name_H-M    P1
_symmetry_Int_Tables_number       1
_space_group_crystal_system       triclinic
_cell_length_a                    10.879375
_cell_length_b                    9.596113
_cell_length_c                    9.061094
_cell_angle_alpha                 89.997801
_cell_angle_beta                  92.05668
_cell_angle_gamma                 90.014118
_cell_volume                      945.366189085

loop_
_atom_site_label
_atom_site_type_symbol
_atom_site_description
_atom_site_fract_x
_atom_site_fract_y
_atom_site_fract_z
_atom_type_partial_charge
O1    O     O_R   0.319640 0.618740 0.499990 -0.538124
O2    O     O_R   0.680360 0.381260 0.500010 -0.537631
O3    O     O_R   0.680360 0.618740 0.500010 -0.537608
O4    O     O_R   0.319640 0.381260 0.499990 -0.537476
C1    C     C_R   0.262752 0.499981 0.512448 0.872396
C2    C     C_R   0.737251 0.500015 0.487571 0.872592
O5    O     O_R   0.500000 0.618760 0.288390 -0.549002
O6    O     O_R   0.500000 0.381240 0.711610 -0.548984
O7    O     O_R   0.500000 0.618760 0.711610 -0.548879
O8    O     O_R   0.500000 0.381240 0.288390 -0.548982
C3    C     C_R   0.499666 0.500001 0.220841 0.835649
C4    C     C_R   0.500335 0.499998 0.779159 0.835787
Cu1   Cu    Cu3+1 0.500000 0.640660 0.500000 1.116660
Cu2   Cu    Cu3+1 0.500000 0.359340 0.500000 1.116800
C5    C     C_1   0.499888 0.499999 0.065611 -0.025421
C6    C     C_1   0.500113 0.499996 0.934389 -0.025459
C7    C     C_R   0.062625 0.372776 0.518185 0.248884
C8    C     C_R   0.937389 0.627200 0.481891 0.248852
C9    C     C_R   0.937304 0.372842 0.481467 0.248669
C10   C     C_R   0.062704 0.627129 0.518634 0.248508
C11   C     C_R   0.871880 0.500034 0.477086 -0.305672
C12   C     C_R   0.128129 0.499945 0.522977 -0.305655
C13   C     C_R   0.440151 0.074048 0.389147 0.319292
C14   C     C_R   0.559837 0.925946 0.610864 0.319113
C15   C     C_R   0.559843 0.074088 0.610857 0.319062
C16   C     C_R   0.440102 0.925907 0.389193 0.319153
N1    N     N_R   0.500000 0.852070 0.500000 -0.310355
N2    N     N_R   0.500000 0.147930 0.500000 -0.310271
Br1   Br    Br    0.134172 0.198787 0.587943 -0.229523
Br2   Br    Br    0.865872 0.801190 0.412102 -0.229507
Br3   Br    Br    0.865623 0.199066 0.411170 -0.229915
Br4   Br    Br    0.134372 0.800858 0.589071 -0.229941
N3    N     N_R   0.377168 0.145216 0.270233 0.174209
O9    O     O_R   0.262155 0.178541 0.281625 -0.267329
O10   O     O_R   0.424314 0.145646 0.140303 -0.249948
N4    N     N_R   0.622897 0.854768 0.729714 0.174104
O11   O     O_R   0.738035 0.821959 0.718428 -0.267356
O12   O     O_R   0.575640 0.853950 0.859580 -0.250044
N5    N     N_R   0.623090 0.145308 0.729557 0.174055
O13   O     O_R   0.575937 0.146301 0.859479 -0.250136
O14   O     O_R   0.738307 0.177779 0.718145 -0.267333
N6    N     N_R   0.376576 0.854673 0.270714 0.173811
O15   O     O_R   0.423918 0.852916 0.140893 -0.250479
O16   O     O_R   0.260854 0.824191 0.281779 -0.266568

loop_
_geom_bond_atom_site_label_1
_geom_bond_atom_site_label_2
_geom_bond_distance
_ccdc_geom_bond_type
Cu2   N2    2.028715 S    
C8    Br2   1.938594 S    
C8    C11   1.412907 A    
C7    Br1   1.938630 S    
N6    O15   1.301073 A    
C7    C12   1.412904 A    
O3    Cu1   1.973495 S    
C14   N1    1.374184 A    
O6    C4    1.293546 A    
O3    C2    1.303516 A    
C9    Br3   1.938675 S    
N4    O12   1.300963 A    
N3    O9    1.299252 A    
N5    O14   1.299285 A    
O2    C2    1.303499 A    
C13   N2    1.374197 A    
C15   N5    1.429703 S    
C15   N2    1.374122 A    
O5    C3    1.293554 A    
C16   N1    1.374037 A    
C14   N4    1.429714 S    
N6    O16   1.299819 A    
O1    C1    1.303525 A    
N4    O11   1.299245 A    
C9    C11   1.412917 A    
C10   C12   1.412853 A    
C8    C10   1.391753 A    
O4    Cu2   1.973495 S    
O2    Cu2   1.973392 S    
O7    C4    1.293534 A    
O1    Cu1   1.973392 S    
O8    C3    1.293526 A    
C5    C6    1.189103 T    
O5    Cu1   1.928909 S    
C14   C15   1.421584 A    
C16   N6    1.429682 S    
C10   Br4   1.938636 S    
C13   C16   1.421585 A    
N5    O13   1.300954 A    
O7    Cu1   1.928892 S    
C7    C9    1.391776 A    
O6    Cu2   1.928908 S    
N3    O10   1.300965 A    
Cu1   Cu2   2.699579 S    
C2    C11   1.471154 S    
C3    C5    1.406645 S    
Cu1   N1    2.028714 S    
C1    C12   1.471138 S    
C4    C6    1.406644 S    
O8    Cu2   1.928893 S    
O4    C1    1.303483 A    
C13   N3    1.429708 S    
