data_mof_unit_55250.cif
_audit_creation_date              2012-12-11T15:53:49-0500
_audit_creation_method            fapswitch 2.2
_symmetry_space_group_name_H-M    P1
_symmetry_Int_Tables_number       1
_space_group_crystal_system       triclinic
_cell_length_a                    10.734642
_cell_length_b                    10.754572
_cell_length_c                    16.958701
_cell_angle_alpha                 80.055595
_cell_angle_beta                  99.867423
_cell_angle_gamma                 118.943724
_cell_volume                      1678.76414014

loop_
_atom_site_label
_atom_site_type_symbol
_atom_type_description
_atom_site_fract_x
_atom_site_fract_y
_atom_site_fract_z
_atom_type_partial_charge
C1    C     C_R   0.358316 0.222871 0.626070 0.538767
C2    C     C_R   0.519721 0.730243 0.729956 0.187107
C3    C     C_R   0.499327 0.747354 0.807215 0.028822
C4    C     C_3   0.117667 0.422754 0.797308 0.047035
C5    C     C_3   0.148273 0.386100 0.720159 -0.074383
C6    C     C_R   0.408340 0.619125 0.686685 0.025949
C7    C     C_1   0.770645 0.629520 0.712448 0.017140
C8    C     C_1   0.816084 0.668965 0.778431 0.001739
C9    C     C_1   0.329507 0.155816 0.705482 -0.010353
C10   C     C_1   0.292878 0.109543 0.771916 -0.018362
C11   C     C_1   0.321185 0.684363 0.280246 -0.028461
C12   C     C_R   0.415722 0.619019 0.601616 0.581247
C13   C     C_1   0.299988 0.707796 0.209383 -0.012497
C14   C     C_R   0.792991 0.651806 0.146927 0.017116
C15   C     C_R   0.727533 0.513056 0.187139 -0.006797
C16   C     C_R   0.692550 0.492508 0.264186 -0.021641
C17   C     C_R   0.748875 0.738069 0.257599 -0.148480
C18   C     C_R   0.788087 0.761324 0.179505 -0.139301
C19   C     C_3   0.746884 0.380448 0.202227 -0.107659
C20   C     C_3   0.717961 0.366557 0.288953 -0.275925
C21   C     C_R   0.716055 0.605591 0.303847 0.006255
C22   C     C_R   0.325045 0.148916 0.164287 0.005133
C23   C     C_R   0.720199 0.586740 0.633150 0.541197
C24   C     C_R   0.292077 0.248749 0.181891 -0.015673
C25   C     C_R   0.299062 0.270334 0.259808 -0.050011
C26   C     C_R   0.371255 0.086813 0.306883 -0.177408
C27   C     C_R   0.372631 0.072228 0.227013 -0.176549
C28   C     C_3   0.160115 0.264949 0.156953 0.149767
C29   C     C_3   0.170749 0.295121 0.242460 -0.173560
C30   C     C_R   0.329771 0.183748 0.322863 0.024252
C31   C     C_R   0.883565 0.698554 0.857716 0.568400
C32   C     C_R   0.318091 0.706217 0.899612 0.584967
C33   C     C_R   0.251873 0.058309 0.851485 0.564396
C34   C     C_R   0.349442 0.224153 0.401262 0.549663
C35   C     C_R   0.882141 0.688355 0.081999 0.543840
C36   C     C_R   0.285381 0.738657 0.125254 0.545890
C37   C     C_R   0.284809 0.103620 0.085872 0.569383
C38   C     C_R   0.362870 0.657508 0.361896 0.544898
C39   C     C_R   0.701821 0.584607 0.389505 0.569028
C40   C     C_R   0.362318 0.660455 0.837540 -0.006284
C41   C     C_R   0.267013 0.542796 0.797451 -0.035332
C42   C     C_R   0.292984 0.516244 0.728167 -0.093803
Cr1   Cr    Cr6+3 0.608440 0.389080 0.519680 1.060693
Cr2   Cr    Cr6+3 0.288640 0.400090 0.490760 1.057646
Cr3   Cr    Cr6+3 0.602940 0.710800 0.489510 1.072418
Cr4   Cr    Cr6+3 0.052530 0.947560 0.964210 1.073573
Cr5   Cr    Cr6+3 0.059970 0.626800 0.992920 1.140377
Cr6   Cr    Cr6+3 0.373320 0.938440 0.995370 1.060691
H1    H     H_    0.660018 0.293056 0.168228 0.135932
H2    H     H_    0.622579 0.268849 0.306091 0.154469
H3    H     H_    0.812089 0.388809 0.334455 0.166072
H4    H     H_    0.404812 0.025938 0.355300 0.141585
H5    H     H_    0.401932 0.995137 0.214553 0.136789
H6    H     H_    0.062517 0.165241 0.141040 0.177517
H7    H     H_    0.199918 0.407106 0.248106 0.207117
H8    H     H_    0.078971 0.213322 0.275433 0.142093
H9    H     H_    0.157881 0.286123 0.730328 0.123091
H10   H     H_    0.757446 0.827304 0.283689 0.150627
H11   H     H_    0.828922 0.868538 0.148876 0.146571
O1    O     O_R   0.754020 0.497590 0.609930 -0.461617
O2    O     O_R   0.295080 0.533620 0.397890 -0.484677
O3    O     O_R   0.485280 0.746620 0.388440 -0.528132
O4    O     O_R   0.720550 0.696220 0.420010 -0.497805
O5    O     O_3   0.500010 0.499990 0.499980 -0.347871
O6    O     O_R   0.163320 0.092900 0.874450 -0.475188
O7    O     O_R   0.934650 0.822080 0.882840 -0.478765
O8    O     O_R   0.915520 0.604140 0.893670 -0.488431
O9    O     O_R   0.191760 0.638110 0.923230 -0.462001
O10   O     O_R   0.406180 0.826930 0.920660 -0.493026
O11   O     O_R   0.358620 0.062870 0.901950 -0.478052
O12   O     O_R   0.481420 0.271390 0.600630 -0.492006
O13   O     O_R   0.163910 0.085460 0.050210 -0.498679
O14   O     O_R   0.935200 0.815170 0.045770 -0.501133
O15   O     O_R   0.916120 0.596690 0.069430 -0.486772
O16   O     O_R   0.192310 0.631200 0.086170 -0.418053
O17   O     O_R   0.406770 0.819480 0.096420 -0.519006
O18   O     O_R   0.359170 0.055960 0.064880 -0.523890
O19   O     O_3   0.161940 0.837600 0.984160 -0.327046
O20   O     O_R   0.263810 0.254550 0.589590 -0.503906
O21   O     O_R   0.300820 0.531200 0.560890 -0.482588
O22   O     O_R   0.491480 0.744020 0.564270 -0.426827
O23   O     O_R   0.726290 0.693800 0.583010 -0.457423
O24   O     O_R   0.747830 0.500190 0.434090 -0.512742
O25   O     O_R   0.475680 0.273800 0.437630 -0.511368
O26   O     O_R   0.257620 0.257160 0.413750 -0.510172
O27   O     O_3   0.643257 0.823352 0.693477 -0.655363
H12   H     H_    0.719727 0.884889 0.731831 0.358164
O28   O     O_3   0.180531 0.381683 0.099079 -0.588110
H13   H     H_    0.283374 0.453664 0.103493 0.343614
C43   C     C_2   0.615538 0.865666 0.850617 0.584441
O29   O     O_2   0.677603 0.839782 0.913571 -0.512570
O30   O     O_R   0.645382 0.006109 0.821878 -0.631431
H14   H     H_    0.708596 0.075933 0.862443 0.378066
C44   C     C_2   0.002359 0.467767 0.782793 0.631149
O31   O     O_2   0.031749 0.592506 0.761343 -0.493963
O32   O     O_R   0.860391 0.362908 0.789454 -0.642521
H15   H     H_    0.789269 0.401255 0.778119 0.334420
C45   C     C_2   0.098006 0.316137 0.870850 0.597552
O33   O     O_2   0.188966 0.344119 0.928802 -0.472544
O34   O     O_R   0.971805 0.186737 0.873761 -0.647661
H16   H     H_    0.965198 0.128086 0.928004 0.356899
C46   C     C_2   0.054700 0.393228 0.643693 0.639509
O35   O     O_2   0.977584 0.284728 0.610598 -0.482922
O36   O     O_R   0.057432 0.522852 0.610317 -0.627417
H17   H     H_    0.992617 0.513382 0.558197 0.357207
C47   C     C_2   0.892826 0.398524 0.196901 0.621114
O37   O     O_2   0.904240 0.320529 0.157479 -0.463948
O38   O     O_R   0.015168 0.501449 0.236231 -0.696152
H18   H     H_    0.996778 0.567245 0.263119 0.292867

loop_
_geom_bond_atom_site_label_1
_geom_bond_atom_site_label_2
_ccdc_geom_bond_type
C31   O7    A    
C5    C42   S    
C35   O15   A    
C16   C21   A    
C23   O23   A    
C4    C45   S    
Cr1   O24   S    
C41   C42   A    
C14   C18   A    
C19   C20   S    
Cr6   O10   S    
C33   O6    A    
C7    C8    T    
Cr2   O5    S    
C31   O8    A    
C26   C27   A    
C1    O12   A    
C3    C43   S    
C28   C29   S    
Cr4   O7    S    
C20   H3    S    
C6    C12   S    
C47   O37   D    
C15   C16   A    
Cr3   O3    S    
O38   H18   S    
Cr6   O19   S    
Cr6   O17   S    
O34   H16   S    
C20   H2    S    
C36   O17   A    
C15   C19   S    
Cr3   O23   S    
C28   O28   S    
C9    C10   T    
Cr4   O13   S    
C17   H10   S    
C32   O9    A    
C38   O2    A    
C4    C41   S    
Cr1   O25   S    
C2    C6    A    
C34   O25   A    
Cr5   O8    S    
O36   H17   S    
Cr1   O5    S    
C25   C29   S    
C23   O1    A    
C30   C34   S    
C46   O35   D    
Cr2   O21   S    
C1    C9    S    
C24   C25   A    
Cr4   O6    S    
C14   C35   S    
Cr4   O19   S    
C28   H6    S    
O27   H12   S    
C29   H7    S    
C22   C37   S    
C37   O18   A    
Cr3   O4    S    
C17   C21   A    
C34   O26   A    
Cr6   O18   S    
C11   C38   S    
C44   O32   S    
C36   O16   A    
C26   H4    S    
C19   H1    S    
C43   O30   S    
C21   C39   S    
C16   C20   S    
O32   H15   S    
C17   C18   A    
C46   O36   S    
Cr1   O1    S    
C13   C36   S    
C4    C44   S    
C33   O11   A    
C40   C41   A    
C3    C40   A    
C26   C30   A    
C45   O34   S    
C22   C27   A    
C1    O20   A    
C22   C24   A    
Cr2   O26   S    
Cr5   O9    S    
C25   C30   A    
C5    C46   S    
C35   O14   A    
Cr1   O12   S    
C8    C31   S    
Cr2   O20   S    
Cr3   O22   S    
C24   C28   S    
Cr5   O15   S    
Cr6   O11   S    
C4    C5    S    
C27   H5    S    
C32   O10   A    
C29   H8    S    
Cr2   O2    S    
C39   O4    A    
Cr3   O5    S    
C5    H9    S    
C2    C3    A    
Cr5   O16   S    
C11   C13   T    
C43   O29   D    
C47   O38   S    
C7    C23   S    
C12   O21   A    
O30   H14   S    
C12   O22   A    
C2    O27   S    
C10   C33   S    
C32   C40   S    
C44   O31   D    
C39   O24   A    
C19   C47   S    
C18   H11   S    
O28   H13   S    
C45   O33   D    
C6    C42   A    
C37   O13   A    
C14   C15   A    
Cr5   O19   S    
Cr4   O14   S    
C38   O3    A    
