data_mof_unit_6754.cif
_audit_creation_date              2012-12-10T18:44:23-0500
_audit_creation_method            fapswitch 2.2
_symmetry_space_group_name_H-M    P1
_symmetry_Int_Tables_number       1
_space_group_crystal_system       triclinic
_cell_length_a                    12.793749
_cell_length_b                    10.68109
_cell_length_c                    9.845971
_cell_angle_alpha                 90.189167
_cell_angle_beta                  97.437787
_cell_angle_gamma                 89.166605
_cell_volume                      1334.00037951

loop_
_atom_site_label
_atom_site_type_symbol
_atom_type_description
_atom_site_fract_x
_atom_site_fract_y
_atom_site_fract_z
_atom_type_partial_charge
C1    C     C_R   0.494596 0.260457 0.498800 0.920139
C2    C     C_R   0.505642 0.739714 0.500845 0.904609
C3    C     C_R   0.507579 0.872459 0.500846 -0.065575
C4    C     C_R   0.491864 0.128055 0.496867 -0.080773
C5    C     C_R   0.586040 0.539118 0.086291 -0.039126
C6    C     C_R   0.413541 0.462273 0.913589 -0.059751
C7    C     C_R   0.586154 0.538759 0.942593 -0.066030
C8    C     C_R   0.413721 0.461618 0.057337 -0.021188
C9    C     C_R   0.298184 0.501385 0.472880 0.959300
C10   C     C_R   0.701824 0.498805 0.527466 0.997191
C11   C     C_R   0.814249 0.501085 0.547082 -0.217492
C12   C     C_R   0.185805 0.499185 0.455184 -0.218356
C13   C     C_R   0.026936 0.405419 0.348520 0.525781
C14   C     C_R   0.972979 0.592874 0.657025 0.499665
C15   C     C_R   0.134897 0.417788 0.359123 -0.311908
C16   C     C_R   0.864837 0.581395 0.644573 -0.368839
C17   C     C_R   0.129911 0.576619 0.535596 0.387046
C18   C     C_R   0.870827 0.422229 0.469896 0.470392
C19   C     C_R   0.026776 0.542695 0.551157 -0.194784
C20   C     C_R   0.974138 0.455137 0.455245 -0.204634
C21   C     C_R   0.557318 0.067553 0.413916 -0.201694
C22   C     C_R   0.441272 0.933256 0.582607 -0.153669
C23   C     C_R   0.567581 0.939030 0.415342 0.080352
C24   C     C_R   0.430156 0.061678 0.579450 0.074977
H1    H     H_    0.820120 0.630804 0.714783 0.175406
H2    H     H_    0.178937 0.369024 0.287616 0.195697
H3    H     H_    0.603295 0.121543 0.350910 0.217634
H4    H     H_    0.394473 0.880047 0.645225 0.204238
H5    H     H_    0.654798 0.570859 0.151803 0.154216
H6    H     H_    0.344179 0.432768 0.847739 0.163451
H7    H     H_    0.655098 0.569942 0.900011 0.139737
H8    H     H_    0.344693 0.430616 0.099846 0.153233
N1    N     N_R   0.499970 0.499970 0.857200 -0.099509
N2    N     N_R   0.500030 0.500030 0.142800 -0.093744
O1    O     O_R   0.499990 0.316750 0.614620 -0.608069
O2    O     O_R   0.500010 0.683250 0.385380 -0.608869
O3    O     O_R   0.499990 0.316780 0.385290 -0.611059
O4    O     O_R   0.500010 0.683220 0.614710 -0.645932
O5    O     O_R   0.346360 0.499970 0.595710 -0.656497
O6    O     O_R   0.653640 0.500030 0.404290 -0.609518
O7    O     O_R   0.346360 0.499990 0.366380 -0.605912
O8    O     O_R   0.653640 0.500010 0.633620 -0.611750
Zn1   Zn    Zn3+2 0.500000 0.499980 0.653120 0.963051
Zn2   Zn    Zn3+2 0.500000 0.500020 0.346880 1.005019
S1    S     S_3+6 0.826059 0.265831 0.444124 0.056257
O9    O     O_2   0.757902 0.254389 0.308687 -0.263294
O10   O     O_2   0.918441 0.176489 0.449728 -0.261408
O11   O     O_3   0.754586 0.228121 0.569663 -0.585060
H9    H     H_    0.757298 0.135522 0.574291 0.371956
S2    S     S_3+6 0.174417 0.733400 0.565225 0.066608
O12   O     O_2   0.242850 0.769198 0.458825 -0.326971
O13   O     O_2   0.081425 0.822072 0.553056 -0.232990
O14   O     O_3   0.244008 0.749884 0.721147 -0.484767
H10   H     H_    0.306597 0.694538 0.721290 0.360849
S3    S     S_3+6 0.962786 0.354518 0.187394 0.102557
O15   O     O_2   0.029865 0.385969 0.077973 -0.234786
O16   O     O_2   0.948361 0.215202 0.186862 -0.206283
O17   O     O_3   0.845324 0.428004 0.151786 -0.556424
H11   H     H_    0.817534 0.400071 0.058183 0.391608
S4    S     S_3+6 0.034955 0.644064 0.818950 0.111536
O18   O     O_2   0.139500 0.578251 0.854302 -0.252167
O19   O     O_2   0.050436 0.783284 0.819452 -0.212282
O20   O     O_3   0.958200 0.609772 0.939960 -0.487330
H12   H     H_    0.912093 0.684321 0.946242 0.348130
C25   C     C_3   0.646582 0.879325 0.330907 -0.423330
C26   C     C_3   0.745466 0.833215 0.422629 -0.358386
C27   C     C_3   0.825280 0.774426 0.337929 -0.715043
H13   H     H_    0.792058 0.689919 0.283581 0.246082
H14   H     H_    0.847503 0.842632 0.262091 0.283845
H15   H     H_    0.897436 0.746251 0.406273 0.273165
H16   H     H_    0.782891 0.913373 0.481565 0.260595
H17   H     H_    0.723872 0.763182 0.496648 0.193593
H18   H     H_    0.610718 0.802792 0.265350 0.223932
H19   H     H_    0.671573 0.948838 0.258009 0.225576
C28   C     C_3   0.345843 0.121120 0.654960 -0.375897
C29   C     C_3   0.379659 0.122529 0.810305 -0.366212
C30   C     C_3   0.286936 0.156161 0.887433 -0.748300
H20   H     H_    0.248655 0.245254 0.848643 0.259645
H21   H     H_    0.227594 0.080705 0.874539 0.304407
H22   H     H_    0.315266 0.166813 0.998274 0.243650
H23   H     H_    0.410994 0.029017 0.845982 0.237922
H24   H     H_    0.443184 0.191847 0.835520 0.242903
H25   H     H_    0.325076 0.217676 0.618570 0.189752
H26   H     H_    0.272340 0.066350 0.631356 0.259905

loop_
_geom_bond_atom_site_label_1
_geom_bond_atom_site_label_2
_ccdc_geom_bond_type
S3    O15   D    
C11   C18   A    
C10   O8    A    
C3    C23   A    
C19   C20   A    
O14   H10   S    
S4    O20   S    
S4    O19   D    
C4    C24   A    
C28   H26   S    
S1    O11   S    
C9    O5    A    
C25   H18   S    
C10   O6    A    
C26   H17   S    
C12   C17   A    
S2    O13   D    
O1    Zn1   S    
C18   C20   A    
C1    O3    A    
S1    O10   D    
C26   C27   S    
C21   H3    S    
C22   H4    S    
C7    N1    A    
C5    H5    S    
C30   H21   S    
C21   C23   A    
C23   C25   S    
S2    O14   S    
C7    H7    S    
C27   H13   S    
C8    H8    S    
N2    Zn2   S    
C29   C30   S    
C29   H24   S    
C5    C7    A    
C15   H2    S    
O5    Zn1   S    
O17   H11   S    
C30   H20   S    
C25   H19   S    
S4    O18   D    
C27   H14   S    
N1    Zn1   S    
C29   H23   S    
C28   C29   S    
C11   C16   A    
C2    O4    A    
C26   H16   S    
C12   C15   A    
C5    N2    A    
S2    O12   D    
C8    N2    A    
O11   H9    S    
C6    H6    S    
C13   C15   A    
O7    Zn2   S    
C14   C16   A    
O2    Zn2   S    
O8    Zn1   S    
C18   S1    S    
C1    O1    A    
C30   H22   S    
C2    O2    A    
C16   H1    S    
C13   C20   A    
C14   C19   A    
C17   S2    S    
C6    C8    A    
C24   C28   S    
C14   S4    S    
C9    O7    A    
C6    N1    A    
C27   H15   S    
C1    C4    S    
O3    Zn2   S    
S3    O16   D    
C2    C3    S    
O4    Zn1   S    
C4    C21   A    
C28   H25   S    
C17   C19   A    
C22   C24   A    
C9    C12   S    
C10   C11   S    
O20   H12   S    
S1    O9    D    
O6    Zn2   S    
C25   C26   S    
S3    O17   S    
C3    C22   A    
C13   S3    S    
