data_mof_unit_46946.cif
_audit_creation_date              2012-12-11T14:50:49-0500
_audit_creation_method            fapswitch 2.2
_symmetry_space_group_name_H-M    P1
_symmetry_Int_Tables_number       1
_space_group_crystal_system       triclinic
_cell_length_a                    10.896118
_cell_length_b                    11.249483
_cell_length_c                    18.79376
_cell_angle_alpha                 89.271056
_cell_angle_beta                  89.249612
_cell_angle_gamma                 60.211682
_cell_volume                      1999.04562295

loop_
_atom_site_label
_atom_site_type_symbol
_atom_type_description
_atom_site_fract_x
_atom_site_fract_y
_atom_site_fract_z
_atom_type_partial_charge
C1    C     C_R   0.246423 0.639561 0.611015 0.537138
C2    C     C_R   0.553566 0.180964 0.787565 0.294323
C3    C     C_R   0.556086 0.163901 0.714470 0.173238
C4    C     C_R   0.652949 0.620430 0.601517 0.565014
C5    C     C_R   0.667896 0.159677 0.673318 0.022723
C6    C     C_R   0.287554 0.540762 0.733506 -0.074847
C7    C     C_R   0.270021 0.564215 0.807298 0.264877
C8    C     C_R   0.164294 0.689200 0.831286 0.080801
C9    C     C_R   0.088746 0.794726 0.782259 0.265893
C10   C     C_R   0.095896 0.770981 0.710172 0.317769
C11   C     C_R   0.202316 0.646681 0.684902 -0.034747
C12   C     C_3   0.730625 0.527845 0.800896 0.124063
C13   C     C_R   0.695509 0.529889 0.270386 -0.048816
C14   C     C_R   0.692279 0.543971 0.196983 0.258094
C15   C     C_R   0.645187 0.675019 0.167272 0.022687
C16   C     C_R   0.631234 0.221281 0.601071 0.606428
C17   C     C_R   0.585755 0.790503 0.211569 -0.045642
C18   C     C_R   0.589151 0.776709 0.285299 0.231854
C19   C     C_R   0.648144 0.644083 0.315142 0.006186
C20   C     C_R   0.537858 0.170538 0.287729 -0.122749
C21   C     C_R   0.555199 0.127841 0.218684 -0.125178
C22   C     C_R   0.687361 0.074085 0.186352 -0.002397
C23   C     C_3   0.692035 0.677685 0.814370 0.002046
C24   C     C_R   0.805142 0.054936 0.225679 -0.097199
C25   C     C_R   0.788057 0.100054 0.296249 0.236730
C26   C     C_R   0.652083 0.161459 0.326476 0.074410
C27   C     C_R   0.263404 0.698849 0.280400 -0.127109
C28   C     C_R   0.226473 0.648029 0.400769 0.575427
C29   C     C_R   0.247179 0.697187 0.208123 0.183172
C30   C     C_R   0.148241 0.662772 0.182671 -0.027568
C31   C     C_R   0.079918 0.613801 0.229992 0.198487
C32   C     C_R   0.097408 0.616716 0.302743 0.255833
C33   C     C_R   0.187214 0.661709 0.327555 -0.045937
C34   C     C_3   0.664587 0.647590 0.678213 -0.106099
C35   C     C_R   0.698908 0.105784 0.896538 0.632323
C36   C     C_R   0.720266 0.688774 0.889769 0.571839
C37   C     C_R   0.114936 0.710911 0.905231 0.624004
C38   C     C_R   0.701593 0.041732 0.111209 0.544686
C39   C     C_R   0.692754 0.690429 0.096532 0.534273
C40   C     C_R   0.641006 0.619339 0.390998 0.531238
C41   C     C_R   0.090448 0.709595 0.112648 0.537442
C42   C     C_R   0.618174 0.228207 0.395381 0.558436
C43   C     C_3   0.532771 0.775238 0.792349 0.444637
C44   C     C_3   0.514521 0.749495 0.713038 0.124580
C45   C     C_3   0.763786 0.707034 0.687013 -0.191916
C46   C     C_3   0.794470 0.709402 0.766772 0.341532
C47   C     C_3   0.724875 0.508033 0.720219 0.421654
C48   C     C_R   0.787898 0.148059 0.708196 0.335803
C49   C     C_R   0.784451 0.162926 0.783333 0.272512
C50   C     C_R   0.676017 0.162066 0.823048 0.082362
Cl1   Cl    Cl    0.474706 0.950194 0.805803 -0.344627
Cl2   Cl    Cl    0.902718 0.384750 0.691363 -0.402056
Cl3   Cl    Cl    0.976391 0.580446 0.779908 -0.604866
Cl4   Cl    Cl    0.903077 0.200918 0.827910 -0.506529
Cl5   Cl    Cl    0.411321 0.154244 0.676944 -0.457683
Cl6   Cl    Cl    0.393172 0.457547 0.870816 -0.482431
Cl7   Cl    Cl    0.411922 0.753287 0.848655 -0.509635
Cl8   Cl    Cl    0.004186 0.565981 0.361828 -0.521056
Cl9   Cl    Cl    0.608447 0.444522 0.703731 -0.620273
Cr1   Cr    Cr6+3 0.392930 0.397900 0.502230 1.134518
Cr2   Cr    Cr6+3 0.398240 0.708600 0.501260 1.107614
Cr3   Cr    Cr6+3 0.708800 0.393470 0.496460 1.182310
Cr4   Cr    Cr6+3 0.937620 0.938540 0.007640 1.117346
Cr5   Cr    Cr6+3 0.625150 0.937450 0.994520 1.142611
Cr6   Cr    Cr6+3 0.937990 0.625080 0.001190 1.108361
H1    H     H_    0.862855 0.646178 0.655748 0.193761
H2    H     H_    0.717113 0.811645 0.663841 0.153237
H3    H     H_    0.840438 0.458561 0.818751 0.256408
H4    H     H_    0.982507 0.107674 0.697898 0.423527
H5    H     H_    0.347367 0.263122 0.797121 0.401921
H6    H     H_    0.085276 0.944004 0.824702 0.399507
H7    H     H_    0.994126 0.830457 0.620680 0.326583
H8    H     H_    0.703070 0.454983 0.107418 0.342784
H9    H     H_    0.578254 0.869134 0.373980 0.348822
H10   H     H_    0.988047 0.039378 0.306372 0.337772
H11   H     H_    0.331130 0.696525 0.116122 0.346469
H12   H     H_    0.369561 0.443659 0.713997 0.196654
H13   H     H_    0.043555 0.495368 0.173267 0.356932
H14   H     H_    0.496452 0.892470 0.645005 0.365700
H15   H     H_    0.823834 0.831255 0.828602 0.350361
H16   H     H_    0.679875 0.470624 0.890103 0.366772
H17   H     H_    0.732518 0.428279 0.292486 0.178347
H18   H     H_    0.547492 0.891672 0.189152 0.152232
H19   H     H_    0.431464 0.216965 0.309395 0.181936
H20   H     H_    0.463240 0.141537 0.190162 0.160015
H21   H     H_    0.908912 0.008829 0.200941 0.144398
H22   H     H_    0.339762 0.725664 0.299739 0.178204
H23   H     H_    0.448021 0.700622 0.712249 0.217291
O1    O     O_R   0.507430 0.255570 0.581420 -0.466416
O2    O     O_R   0.837200 0.593290 0.915250 -0.497470
O3    O     O_R   0.065330 0.635370 0.931590 -0.449657
O4    O     O_R   0.280190 0.527390 0.578910 -0.474421
O5    O     O_R   0.068300 0.828790 0.091860 -0.505151
O6    O     O_R   0.798730 0.057480 0.079370 -0.482586
O7    O     O_R   0.584680 0.080480 0.076790 -0.508255
O8    O     O_R   0.626790 0.809640 0.067050 -0.524530
O9    O     O_R   0.816010 0.596460 0.076500 -0.477744
O10   O     O_R   0.045680 0.638310 0.081070 -0.497312
O11   O     O_3   0.833590 0.833690 0.001120 -0.344435
O12   O     O_R   0.524460 0.695920 0.424060 -0.514962
O13   O     O_R   0.260310 0.739740 0.584580 -0.453194
O14   O     O_R   0.532250 0.695150 0.573830 -0.485151
O15   O     O_R   0.744930 0.503430 0.576380 -0.411073
O16   O     O_R   0.699250 0.276390 0.571950 -0.408013
O17   O     O_R   0.499020 0.256400 0.419850 -0.530588
O18   O     O_R   0.272400 0.528160 0.429140 -0.468089
O19   O     O_R   0.251910 0.740570 0.423020 -0.503864
O20   O     O_3   0.899229 0.136268 0.667119 -0.549072
O21   O     O_3   0.432750 0.211201 0.826612 -0.533749
O22   O     O_3   0.013117 0.924725 0.804690 -0.655407
O23   O     O_R   0.736530 0.504260 0.414810 -0.471119
O24   O     O_3   0.999668 0.871861 0.665894 -0.623480
O25   O     O_3   0.738858 0.427535 0.156526 -0.663967
O26   O     O_3   0.539184 0.893979 0.325386 -0.684727
O27   O     O_3   0.900491 0.086563 0.335594 -0.657696
O28   O     O_3   0.326825 0.732796 0.164411 -0.685157
O29   O     O_3   0.988841 0.571213 0.206927 -0.635509
O30   O     O_3   0.433468 0.872985 0.675040 -0.567693
O31   O     O_3   0.778104 0.838578 0.782277 -0.648785
O32   O     O_3   0.644210 0.490689 0.840553 -0.582648
O33   O     O_R   0.691460 0.277160 0.422180 -0.468154
O34   O     O_3   0.499990 0.499990 0.499980 -0.319625
O35   O     O_R   0.089490 0.825610 0.930610 -0.474477
O36   O     O_R   0.818370 0.054540 0.929880 -0.456025
O37   O     O_R   0.605870 0.077310 0.915530 -0.410723
O38   O     O_R   0.646440 0.806700 0.917570 -0.436625

loop_
_geom_bond_atom_site_label_1
_geom_bond_atom_site_label_2
_ccdc_geom_bond_type
H7    O24   S    
C2    O21   S    
C27   C29   A    
C1    C11   S    
C32   Cl8   S    
C18   O26   S    
Cr4   O36   S    
C23   C43   S    
C7    C8    A    
C45   C46   S    
C27   C33   A    
C12   H3    S    
H16   O32   S    
Cr1   O34   S    
C21   C22   A    
C35   O36   A    
Cr6   O10   S    
C25   O27   S    
C30   C31   A    
C4    O15   A    
C39   O9    A    
C28   O19   A    
C49   Cl4   S    
C22   C38   S    
H6    O22   S    
H8    O25   S    
C15   C17   A    
C18   C19   A    
C35   O37   A    
C31   O29   S    
C5    C16   S    
Cr4   O11   S    
C2    C50   A    
C37   O35   A    
C3    Cl5   S    
C16   O16   A    
Cr5   O11   S    
C41   O5    A    
Cr3   O23   S    
C28   O18   A    
C8    C9    A    
C4    O14   A    
C38   O7    A    
C45   H2    S    
C30   C41   S    
C10   O24   S    
C9    C10   A    
Cr5   O37   S    
H15   O31   S    
C16   O1    A    
C23   C46   S    
C12   O32   S    
C13   C14   A    
C7    Cl6   S    
C12   C47   S    
H4    O20   S    
C40   O23   A    
Cr3   O16   S    
C46   O31   S    
Cr1   O4    S    
Cr6   O2    S    
C5    C48   A    
C21   H20   S    
C37   O3    A    
H13   O29   S    
C34   C44   S    
C24   C25   A    
Cr6   O11   S    
C10   C11   A    
C6    C11   A    
C13   C19   A    
C6    H12   S    
H14   O30   S    
C25   C26   A    
Cr1   O1    S    
C13   H17   S    
Cr2   O34   S    
C17   H18   S    
Cr2   O13   S    
C43   C44   S    
C29   C30   A    
H5    O21   S    
C31   C32   A    
C12   C23   S    
C44   O30   S    
C15   C39   S    
C38   O6    A    
C35   C50   S    
C17   C18   A    
C34   C45   S    
C27   H22   S    
Cr5   O8    S    
C47   Cl2   S    
C48   C49   A    
C29   O28   S    
C28   C33   S    
C23   C36   S    
C1    O4    A    
Cr5   O38   S    
C20   H19   S    
C22   C24   A    
Cr2   O12   S    
H10   O27   S    
C8    C37   S    
C1    O13   A    
Cr3   O34   S    
Cr1   O18   S    
C26   C42   S    
Cr3   O15   S    
C36   O2    A    
C9    O22   S    
Cr6   O3    S    
C14   C15   A    
C36   O38   A    
Cr5   O7    S    
C3    C5    A    
C40   O12   A    
Cr4   O35   S    
C6    C7    A    
C14   O25   S    
Cr4   O5    S    
C32   C33   A    
C2    C3    A    
Cr6   O9    S    
C43   Cl1   S    
C48   O20   S    
C20   C26   A    
C46   Cl3   S    
H11   O28   S    
Cr4   O6    S    
Cr2   O14   S    
C4    C34   S    
Cr2   O19   S    
C42   O17   A    
C39   O8    A    
C19   C40   S    
C43   Cl7   S    
C47   Cl9   S    
C20   C21   A    
C49   C50   A    
C45   H1    S    
C41   O10   A    
C34   C47   S    
C44   H23   S    
C24   H21   S    
Cr3   O33   S    
Cr1   O17   S    
C42   O33   A    
H9    O26   S    
