data_mof_unit_32556.cif
_audit_creation_date              2012-12-11T16:05:00-0500
_audit_creation_method            fapswitch 2.2
_symmetry_space_group_name_H-M    P1
_symmetry_Int_Tables_number       1
_space_group_crystal_system       triclinic
_cell_length_a                    10.685029
_cell_length_b                    10.638901
_cell_length_c                    16.934606
_cell_angle_alpha                 98.58625
_cell_angle_beta                  98.686987
_cell_angle_gamma                 61.526958
_cell_volume                      1666.17714821

loop_
_atom_site_label
_atom_site_type_symbol
_atom_type_description
_atom_site_fract_x
_atom_site_fract_y
_atom_site_fract_z
_atom_type_partial_charge
C1    C     C_R   0.355013 0.774602 0.398307 0.531238
C2    C     C_3   0.420864 0.685722 0.253597 -0.125329
C3    C     C_3   0.348525 0.809267 0.317928 0.032170
C4    C     C_R   0.371930 0.347723 0.358382 0.532324
C5    C     C_3   0.404298 0.899719 0.287385 -0.137300
C6    C     C_3   0.264552 0.963356 0.232033 -0.086484
C7    C     C_3   0.209688 0.871746 0.263660 -0.067443
C8    C     C_3   0.280479 0.749440 0.198461 -0.093883
C9    C     C_3   0.334497 0.840687 0.167065 0.056496
C10   C     C_3   0.459458 0.258081 0.774950 -0.084643
C11   C     C_3   0.398312 0.397979 0.734930 0.392727
C12   C     C_3   0.751329 0.306977 0.247465 -0.088503
C13   C     C_3   0.336267 0.333153 0.662721 0.049120
C14   C     C_3   0.396011 0.193174 0.702376 -0.164899
C15   C     C_3   0.253568 0.256181 0.740901 -0.138803
C16   C     C_R   0.775495 0.377719 0.401458 0.542786
C17   C     C_3   0.194171 0.397338 0.700237 -0.171945
C18   C     C_3   0.257028 0.462422 0.773762 -0.097367
C19   C     C_3   0.317709 0.321450 0.812652 0.008335
C20   C     C_1   0.817967 0.341377 0.709481 0.005954
C21   C     C_1   0.844321 0.314742 0.778022 -0.006221
C22   C     C_1   0.337933 0.812770 0.709648 0.008762
C23   C     C_3   0.829651 0.343672 0.323945 0.011675
C24   C     C_1   0.312867 0.839960 0.778380 -0.002341
C25   C     C_R   0.956958 0.284990 0.102489 0.559068
C26   C     C_R   0.319824 0.300372 0.119845 0.534841
C27   C     C_R   0.298028 0.885329 0.086441 0.535792
C28   C     C_R   0.356549 0.771646 0.627132 0.571929
C29   C     C_R   0.884991 0.299477 0.860857 0.558928
C30   C     C_R   0.307948 0.294237 0.891830 0.547708
C31   C     C_R   0.279793 0.885118 0.858931 0.544975
C32   C     C_R   0.366877 0.345248 0.584923 0.569212
C33   C     C_R   0.774433 0.379259 0.629520 0.571089
C34   C     C_3   0.974952 0.226459 0.300201 -0.143774
C35   C     C_1   0.346732 0.338382 0.274539 -0.059612
C36   C     C_1   0.334298 0.328434 0.203327 -0.057890
C37   C     C_3   0.897609 0.191103 0.222293 0.390891
C38   C     C_3   0.988323 0.338847 0.257929 -0.190172
C39   C     C_3   0.841822 0.456489 0.282884 -0.119720
C40   C     C_3   0.765486 0.418336 0.205564 -0.158994
C41   C     C_3   0.911513 0.301565 0.181316 0.060329
C42   C     C_3   0.474941 0.778166 0.220981 -0.128503
Cr1   Cr    Cr6+3 0.608340 0.611040 0.520430 1.037855
Cr2   Cr    Cr6+3 0.287650 0.601120 0.489350 1.043675
Cr3   Cr    Cr6+3 0.604040 0.287870 0.490280 1.045110
Cr4   Cr    Cr6+3 0.054020 0.052700 0.970850 1.069131
Cr5   Cr    Cr6+3 0.059230 0.375120 0.993390 1.033702
Cr6   Cr    Cr6+3 0.374950 0.061200 0.992340 1.045789
F1    F     F_    0.473986 0.471310 0.729812 -0.642765
F2    F     F_    0.921630 0.056955 0.186539 -0.631003
H1    H     H_    0.654378 0.292755 0.245088 0.132258
H2    H     H_    0.057230 0.151652 0.342414 0.099655
H3    H     H_    0.084639 0.353340 0.260437 0.118357
H4    H     H_    0.818217 0.566901 0.308812 0.149804
H5    H     H_    0.681935 0.492851 0.163750 0.129672
H6    H     H_    0.484029 0.571175 0.265599 0.112605
H7    H     H_    0.582441 0.741711 0.201527 0.126498
H8    H     H_    0.452492 0.962616 0.325719 0.133426
H9    H     H_    0.206441 0.077065 0.218848 0.109946
H10   H     H_    0.103811 0.907129 0.284971 0.185237
H11   H     H_    0.231732 0.686517 0.160672 0.139331
H12   H     H_    0.567866 0.204624 0.806941 0.137491
H13   H     H_    0.450474 0.083559 0.671636 0.130652
H14   H     H_    0.193013 0.197353 0.745726 0.116003
H15   H     H_    0.086492 0.451627 0.667609 0.134585
H16   H     H_    0.203590 0.571849 0.804836 0.136009
O1    O     O_R   0.751220 0.499230 0.435170 -0.525059
O2    O     O_R   0.412990 0.180750 0.091610 -0.490494
O3    O     O_R   0.366620 0.943130 0.065760 -0.504292
O4    O     O_R   0.477220 0.727600 0.436870 -0.505345
O5    O     O_R   0.160510 0.906330 0.879210 -0.517436
O6    O     O_R   0.930190 0.179050 0.889450 -0.500456
O7    O     O_R   0.909140 0.398170 0.896710 -0.500049
O8    O     O_R   0.186190 0.363460 0.918830 -0.500775
O9    O     O_R   0.401670 0.173200 0.913310 -0.508872
O10   O     O_R   0.356120 0.936130 0.900470 -0.495753
O11   O     O_3   0.162740 0.163010 0.985530 -0.294643
O12   O     O_R   0.297880 0.469080 0.560050 -0.484358
O13   O     O_R   0.258650 0.745120 0.411470 -0.523008
O14   O     O_R   0.297070 0.467240 0.395960 -0.502497
O15   O     O_R   0.488830 0.252610 0.387790 -0.518552
O16   O     O_R   0.724400 0.302390 0.420980 -0.505645
O17   O     O_R   0.752100 0.501210 0.612190 -0.507916
O18   O     O_R   0.478040 0.729440 0.600970 -0.488933
O19   O     O_R   0.259530 0.747110 0.588490 -0.506016
O20   O     O_R   0.489720 0.254590 0.564810 -0.508675
O21   O     O_R   0.725220 0.304230 0.585080 -0.483632
O22   O     O_3   0.500010 0.500010 0.500020 -0.250282
O23   O     O_R   0.171830 0.913880 0.057510 -0.483376
O24   O     O_R   0.940690 0.186050 0.054730 -0.445434
O25   O     O_R   0.920470 0.405720 0.075010 -0.516133
O26   O     O_R   0.196690 0.370460 0.084120 -0.517914

loop_
_geom_bond_atom_site_label_1
_geom_bond_atom_site_label_2
_ccdc_geom_bond_type
C5    C42   S    
C11   C18   S    
C37   F2    S    
C28   O18   A    
C34   C37   S    
Cr1   O17   S    
Cr5   O26   S    
Cr6   O10   S    
C13   C32   S    
Cr3   O16   S    
Cr6   O3    S    
C6    C9    S    
Cr3   O20   S    
C7    C8    S    
Cr4   O23   S    
C15   C19   S    
C12   C23   S    
C25   O24   A    
C5    H8    S    
Cr1   O22   S    
Cr3   O21   S    
C4    O14   A    
C3    C7    S    
C38   C39   S    
C30   O8    A    
C39   H4    S    
C29   O7    A    
C26   O26   A    
C18   C19   S    
C12   C37   S    
C34   H2    S    
C4    O15   A    
C35   C36   T    
C8    C9    S    
C15   H14   S    
Cr4   O6    S    
C27   O3    A    
C8    H11   S    
C29   O6    A    
C16   C23   S    
C40   H5    S    
C31   O5    A    
C4    C35   S    
C22   C28   S    
C13   C14   S    
Cr1   O18   S    
Cr6   O9    S    
C10   H12   S    
C42   H7    S    
C2    C8    S    
C25   O25   A    
Cr2   O14   S    
Cr3   O22   S    
Cr5   O7    S    
C38   C41   S    
C10   C14   S    
C25   C41   S    
C39   C40   S    
C21   C29   S    
C1    C3    S    
Cr6   O11   S    
C12   C40   S    
C11   F1    S    
C10   C19   S    
C23   C34   S    
C32   O20   A    
C16   O16   A    
C17   C18   S    
C9    C42   S    
C16   O1    A    
Cr6   O2    S    
C33   O17   A    
Cr4   O5    S    
C20   C33   S    
C26   C36   S    
C40   C41   S    
Cr1   O4    S    
C1    O13   A    
C22   C24   T    
Cr5   O11   S    
Cr2   O19   S    
C7    H10   S    
C12   H1    S    
C9    C27   S    
C15   C17   S    
C34   C38   S    
Cr5   O25   S    
C6    H9    S    
Cr2   O13   S    
Cr3   O15   S    
Cr5   O8    S    
C3    C5    S    
Cr4   O11   S    
C6    C7    S    
Cr4   O24   S    
C18   H16   S    
C17   H15   S    
C1    O4    A    
C13   C17   S    
C26   O2    A    
Cr2   O12   S    
C2    C3    S    
C33   O21   A    
C24   C31   S    
C2    H6    S    
C30   O9    A    
C11   C13   S    
C31   O10   A    
C5    C6    S    
C38   H3    S    
C2    C42   S    
C23   C39   S    
C14   H13   S    
C27   O23   A    
C37   C41   S    
C10   C11   S    
C32   O12   A    
C20   C21   T    
Cr1   O1    S    
C28   O19   A    
C14   C15   S    
Cr2   O22   S    
C19   C30   S    
