data_mof_unit_45347.cif
_audit_creation_date              2012-12-10T18:08:26-0500
_audit_creation_method            fapswitch 2.2
_symmetry_space_group_name_H-M    P1
_symmetry_Int_Tables_number       1
_space_group_crystal_system       triclinic
_cell_length_a                    12.572494
_cell_length_b                    13.018216
_cell_length_c                    14.137625
_cell_angle_alpha                 88.889382
_cell_angle_beta                  100.80528
_cell_angle_gamma                 83.601591
_cell_volume                      2256.81833672

loop_
_atom_site_label
_atom_site_type_symbol
_atom_type_description
_atom_site_fract_x
_atom_site_fract_y
_atom_site_fract_z
_atom_type_partial_charge
C1    C     C_R   0.439230 0.691501 0.489704 0.940448
C2    C     C_R   0.514728 0.040201 0.466480 0.060063
C3    C     C_R   0.590733 0.010139 0.406647 -0.007888
C4    C     C_R   0.500032 0.499521 0.670470 0.877031
C5    C     C_R   0.578256 0.921533 0.353031 -0.267466
C6    C     C_R   0.500612 0.856919 0.367249 0.425380
C7    C     C_R   0.526565 0.129369 0.518158 -0.138286
C8    C     C_R   0.670494 0.170530 0.437762 -0.274593
C9    C     C_R   0.397654 0.800390 0.488561 -0.063770
C10   C     C_R   0.083431 0.377403 0.342802 -0.177810
C11   C     C_R   0.810280 0.603412 0.629012 0.519650
C12   C     C_1   0.499131 0.496168 0.227943 -0.048314
C13   C     C_R   0.913994 0.574098 0.683255 -0.352687
C14   C     C_R   0.988938 0.507822 0.646114 0.392460
C15   C     C_R   0.964152 0.485208 0.547082 -0.167583
C16   C     C_R   0.560250 0.308204 0.508498 0.860043
C17   C     C_R   0.853493 0.506979 0.498347 -0.030632
C18   C     C_R   0.043253 0.450697 0.491447 0.071517
C19   C     C_R   0.007802 0.411015 0.399602 0.109368
C20   C     C_R   0.897165 0.423768 0.358117 -0.294623
C21   C     C_R   0.827909 0.493017 0.398825 0.423973
C22   C     C_R   0.152773 0.470571 0.515098 0.090719
C23   C     C_R   0.672888 0.073261 0.397020 0.498075
C24   C     C_R   0.190828 0.396247 0.371450 0.159316
C25   C     C_R   0.500156 0.498623 0.329619 0.924824
C26   C     C_1   0.499804 0.498590 0.772033 -0.101087
C27   C     C_1   0.499109 0.497517 0.857267 0.054353
C28   C     C_1   0.498221 0.496189 0.957126 0.064228
C29   C     C_1   0.497780 0.495342 0.042404 0.071182
C30   C     C_1   0.497977 0.495119 0.142421 0.091755
C31   C     C_3   0.838838 0.984793 0.399296 0.056785
C32   C     C_3   0.917718 0.940573 0.336226 -0.282725
C33   C     C_3   0.014988 0.872659 0.395817 -0.822693
C34   C     C_R   0.593740 0.199679 0.495270 -0.131372
C35   C     C_R   0.318755 0.829338 0.544234 -0.261896
C36   C     C_R   0.285519 0.933257 0.553830 -0.214285
C37   C     C_R   0.339223 0.008923 0.517439 0.373306
C38   C     C_R   0.432331 0.977519 0.476317 -0.028454
C39   C     C_R   0.443877 0.876497 0.443571 -0.038168
H1    H     H_    0.724056 0.224683 0.420150 0.177061
H2    H     H_    0.248774 0.375670 0.325369 0.149152
H3    H     H_    0.585450 0.758491 0.710328 0.371128
H4    H     H_    0.218726 0.311740 0.740114 0.387589
H5    H     H_    0.751112 0.738270 0.408398 0.356645
H6    H     H_    0.812223 0.918856 0.436991 0.159320
H7    H     H_    0.882297 0.033919 0.453911 0.177627
H8    H     H_    0.874300 0.893507 0.279990 0.261447
H9    H     H_    0.947607 0.005104 0.299949 0.250635
H10   H     H_    0.059615 0.918267 0.452401 0.269516
H11   H     H_    0.071570 0.842941 0.348386 0.293204
H12   H     H_    0.872829 0.406415 0.282938 0.185903
H13   H     H_    0.987205 0.805758 0.430391 0.263501
H14   H     H_    0.292138 0.158297 0.649127 0.340924
H15   H     H_    0.428468 0.917261 0.161188 0.358168
H16   H     H_    0.058215 0.345335 0.273083 0.159146
H17   H     H_    0.181590 0.514234 0.576505 0.168242
H18   H     H_    0.936669 0.602992 0.754681 0.240681
H19   H     H_    0.624081 0.905847 0.296145 0.218125
H20   H     H_    0.478027 0.149276 0.571677 0.193257
H21   H     H_    0.280939 0.771507 0.578184 0.181489
H22   H     H_    0.216735 0.954781 0.588273 0.182904
N1    N     N_R   0.222200 0.444680 0.454480 -0.116792
N2    N     N_R   0.776970 0.554780 0.545050 -0.152158
O1    O     O_R   0.366740 0.627160 0.478260 -0.607236
O2    O     O_2   0.693366 0.786739 0.572889 -0.346646
O3    O     O_3   0.633722 0.692319 0.714771 -0.538753
O4    O     O_2   0.187472 0.522786 0.751010 -0.324243
O5    O     O_2   0.067082 0.422721 0.822205 -0.260143
O6    O     O_3   0.157570 0.339297 0.687848 -0.509763
O7    O     O_2   0.870191 0.654478 0.300601 -0.323253
O8    O     O_2   0.709537 0.574202 0.231179 -0.256856
O9    O     O_3   0.700364 0.689592 0.379265 -0.490771
O10   O     O_3   0.749158 0.044807 0.340706 -0.642878
O11   O     O_2   0.299727 0.186155 0.411894 -0.293019
O12   O     O_R   0.544830 0.662520 0.507340 -0.518646
O13   O     O_2   0.146575 0.127889 0.473567 -0.288548
O14   O     O_3   0.294988 0.205412 0.594034 -0.526536
O15   O     O_2   0.530896 0.731316 0.222718 -0.231154
O16   O     O_2   0.365665 0.717779 0.288397 -0.299520
O17   O     O_3   0.372678 0.878996 0.182422 -0.495965
O18   O     O_R   0.410930 0.482320 0.611740 -0.591184
O19   O     O_R   0.589030 0.517680 0.640820 -0.558244
O20   O     O_R   0.455170 0.337480 0.492660 -0.543297
O21   O     O_R   0.633260 0.372840 0.521740 -0.633216
O22   O     O_R   0.410970 0.482320 0.359180 -0.620082
O23   O     O_R   0.589070 0.517680 0.388260 -0.547550
O24   O     O_2   0.812532 0.775199 0.730623 -0.278187
S1    S     S_3+6 0.736894 0.717830 0.661266 0.049334
S2    S     S_3+6 0.103268 0.448692 0.729989 0.025789
S3    S     S_3+6 0.775640 0.604224 0.323994 0.052393
S4    S     S_3+6 0.267246 0.134611 0.496297 0.016979
S5    S     S_3+6 0.443076 0.790182 0.265447 0.054782
Zn1   Zn    Zn3+2 0.381090 0.476390 0.480580 1.029734
Zn2   Zn    Zn3+2 0.618910 0.523610 0.519420 1.059817

loop_
_geom_bond_atom_site_label_1
_geom_bond_atom_site_label_2
_ccdc_geom_bond_type
C15   C18   A    
O24   S1    D    
O19   Zn2   S    
C3    C23   A    
C35   C36   A    
O4    S2    D    
C33   H13   S    
N2    Zn2   S    
C26   C27   T    
C29   C30   S    
C5    H19   S    
C28   C29   T    
O1    Zn1   S    
O21   Zn2   S    
C20   H12   S    
C11   N2    A    
O3    S1    S    
C5    C6    A    
C31   O10   S    
C13   H18   S    
C33   H10   S    
O20   Zn1   S    
C16   O21   A    
C8    C23   A    
O18   Zn1   S    
C18   C19   A    
O23   Zn2   S    
C2    C7    A    
C16   C34   S    
O22   Zn1   S    
C9    C39   A    
O14   S4    S    
C4    O18   A    
C19   C20   A    
C31   H7    S    
C10   C19   A    
H4    O6    S    
C13   C14   A    
C24   H2    S    
C32   H9    S    
O7    S3    D    
C23   O10   S    
O6    S2    S    
C7    H20   S    
H15   O17   S    
C21   S3    S    
C37   S4    S    
C1    O12   A    
C1    C9    S    
C22   H17   S    
O15   S5    D    
C33   H11   S    
C16   O20   A    
C17   C21   A    
C35   H21   S    
O11   S4    D    
O17   S5    S    
H14   O14   S    
C14   S2    S    
C37   C38   A    
C22   N1    A    
O9    S3    S    
C2    C38   A    
C31   C32   S    
C11   S1    S    
C6    C39   A    
C25   O22   A    
O5    S2    D    
C8    C34   A    
C10   H16   S    
O16   S5    D    
C7    C34   A    
C36   H22   S    
C1    O1    A    
O2    S1    D    
C9    C35   A    
C15   C17   A    
C36   C37   A    
C24   N1    A    
C12   C30   T    
C18   C22   A    
C3    C5    A    
C4    C26   S    
C12   C25   S    
C10   C24   A    
C32   C33   S    
C2    C3    A    
C17   N2    A    
C11   C13   A    
C38   C39   A    
O8    S3    D    
C6    S5    S    
C25   O23   A    
C32   H8    S    
H5    O9    S    
O13   S4    D    
C4    O19   A    
C20   C21   A    
C31   H6    S    
N1    Zn1   S    
C27   C28   S    
H3    O3    S    
C14   C15   A    
C8    H1    S    
O12   Zn2   S    
