data_mof_unit_65399.cif
_audit_creation_date              2012-12-10T17:50:35-0500
_audit_creation_method            fapswitch 2.2
_symmetry_space_group_name_H-M    P1
_symmetry_Int_Tables_number       1
_space_group_crystal_system       triclinic
_cell_length_a                    44.477517
_cell_length_b                    39.003823
_cell_length_c                    21.395192
_cell_angle_alpha                 90.009728
_cell_angle_beta                  61.222255
_cell_angle_gamma                 90.024926
_cell_volume                      32532.1432277

loop_
_atom_site_label
_atom_site_type_symbol
_atom_type_description
_atom_site_fract_x
_atom_site_fract_y
_atom_site_fract_z
_atom_type_partial_charge
C1    C     C_R   0.066207 0.500006 0.433909 0.785544
C2    C     C_R   0.933792 0.499994 0.566089 0.785603
C3    C     C_R   0.566207 0.000006 0.433906 0.785542
C4    C     C_R   0.433792 0.999994 0.566088 0.785607
C5    C     C_3   0.000032 0.500124 0.688974 0.021378
C6    C     C_3   0.999934 0.500102 0.311060 0.021417
C7    C     C_3   0.500030 0.000124 0.688977 0.021377
C8    C     C_3   0.499894 0.000084 0.311104 0.021434
C9    C     C_R   0.378199 0.478319 0.083022 -0.261860
C10   C     C_R   0.621767 0.478169 0.916774 -0.261719
C11   C     C_R   0.878205 0.978220 0.083184 -0.261729
C12   C     C_R   0.121768 0.978195 0.916813 -0.261707
C13   C     C_R   0.342420 0.478280 0.118838 -0.170316
C14   C     C_R   0.657545 0.478113 0.880966 -0.170267
C15   C     C_R   0.842427 0.978180 0.118991 -0.170276
C16   C     C_R   0.157546 0.978140 0.881007 -0.170297
C17   C     C_R   0.324306 0.501491 0.174529 0.060000
C18   C     C_R   0.675691 0.501434 0.825505 0.059768
C19   C     C_R   0.824309 0.001480 0.174495 0.059833
C20   C     C_R   0.175692 0.001439 0.825501 0.059784
C21   C     C_R   0.342338 0.524703 0.194274 -0.245613
C22   C     C_R   0.657689 0.524772 0.805984 -0.245043
C23   C     C_R   0.842339 0.024784 0.194059 -0.245155
C24   C     C_R   0.157690 0.024756 0.805939 -0.245059
C25   C     C_R   0.378279 0.524732 0.158883 0.438412
C26   C     C_R   0.621749 0.524823 0.841376 0.438263
C27   C     C_R   0.878279 0.024819 0.158671 0.438293
C28   C     C_R   0.121749 0.024807 0.841332 0.438269
C29   C     C_R   0.396328 0.501038 0.103461 -0.121479
C30   C     C_R   0.603669 0.501017 0.896556 -0.121521
C31   C     C_R   0.896331 0.001032 0.103447 -0.121523
C32   C     C_R   0.103670 0.001021 0.896555 -0.121555
C33   C     C_R   0.268568 0.531533 0.215317 -0.258130
C34   C     C_R   0.731458 0.531424 0.784992 -0.258084
C35   C     C_R   0.768569 0.031507 0.215167 -0.258132
C36   C     C_R   0.231459 0.031443 0.784896 -0.258117
C37   C     C_R   0.232658 0.531543 0.249245 0.442341
C38   C     C_R   0.767367 0.531425 0.751065 0.442332
C39   C     C_R   0.732659 0.031516 0.249100 0.442375
C40   C     C_R   0.267369 0.031446 0.750967 0.442331
C41   C     C_R   0.214288 0.501536 0.283936 -0.013270
C42   C     C_R   0.785710 0.501460 0.716124 -0.013329
C43   C     C_R   0.714289 0.001528 0.283892 -0.013265
C44   C     C_R   0.285711 0.001466 0.716114 -0.013304
C45   C     C_R   0.000001 0.500012 0.620527 0.786829
C46   C     C_R   0.999980 0.500006 0.379492 0.786823
C47   C     C_R   0.500000 0.000012 0.620528 0.786832
C48   C     C_R   0.499959 0.000003 0.379514 0.786814
C49   C     C_R   0.232636 0.471578 0.280323 -0.250523
C50   C     C_R   0.767335 0.471541 0.719496 -0.250536
C51   C     C_R   0.732636 0.971584 0.280382 -0.250517
C52   C     C_R   0.267336 0.971534 0.719575 -0.250559
C53   C     C_R   0.268410 0.471478 0.244008 -0.174943
C54   C     C_R   0.731560 0.471443 0.755806 -0.174930
C55   C     C_R   0.768410 0.971483 0.244070 -0.174933
C56   C     C_R   0.231562 0.971437 0.755887 -0.174951
C57   C     C_R   0.286552 0.501516 0.211965 0.056616
C58   C     C_R   0.713446 0.501448 0.788089 0.056595
C59   C     C_R   0.786553 0.001504 0.211922 0.056654
C60   C     C_R   0.213447 0.001453 0.788084 0.056620
C61   C     C_R   0.158143 0.473081 0.315916 -0.192890
C62   C     C_R   0.841843 0.472965 0.683898 -0.192964
C63   C     C_R   0.658141 0.973057 0.315961 -0.192925
C64   C     C_R   0.341844 0.972987 0.683961 -0.192954
C65   C     C_R   0.122332 0.472513 0.352695 -0.188916
C66   C     C_R   0.877654 0.472415 0.647107 -0.188880
C67   C     C_R   0.622331 0.972492 0.352749 -0.188986
C68   C     C_R   0.377655 0.972434 0.647171 -0.188909
C69   C     C_R   0.103949 0.500144 0.396368 -0.026698
C70   C     C_R   0.896047 0.500106 0.603627 -0.026620
C71   C     C_R   0.603951 0.000143 0.396354 -0.026891
C72   C     C_R   0.396048 0.000107 0.603624 -0.026424
C73   C     C_R   0.121905 0.528036 0.403801 -0.216437
C74   C     C_R   0.878098 0.528041 0.596396 -0.216366
C75   C     C_R   0.621910 0.028055 0.403706 -0.216388
C76   C     C_R   0.378101 0.028025 0.596323 -0.216356
C77   C     C_R   0.157693 0.528247 0.368356 -0.099607
C78   C     C_R   0.842310 0.528239 0.631861 -0.099605
C79   C     C_R   0.657698 0.028265 0.368247 -0.099572
C80   C     C_R   0.342314 0.028224 0.631785 -0.099613
C81   C     C_R   0.176218 0.501014 0.323165 0.121238
C82   C     C_R   0.823778 0.500946 0.676863 0.121251
C83   C     C_R   0.676219 0.001009 0.323129 0.121259
C84   C     C_R   0.323780 0.000950 0.676856 0.121268
C85   C     C_R   0.999994 0.433812 0.000009 0.781877
C86   C     C_R   0.499994 0.933812 0.000008 0.781895
C87   C     C_3   0.026843 0.481744 0.702446 -0.151447
C88   C     C_3   0.974456 0.479896 0.296236 -0.152657
C89   C     C_3   0.526916 0.981852 0.702373 -0.151383
C90   C     C_3   0.476198 0.977820 0.294484 -0.154139
C91   C     C_R   0.000009 0.500143 0.879447 0.787075
C92   C     C_R   0.999987 0.500131 0.120558 0.787076
C93   C     C_R   0.500009 0.000144 0.879447 0.787092
C94   C     C_R   0.499983 0.000113 0.120564 0.787116
C95   C     C_R   0.000006 0.566227 0.999996 0.782744
C96   C     C_R   0.500006 0.066228 0.999996 0.782767
C97   C     C_R   0.500001 0.433769 0.999995 0.772627
C98   C     C_R   0.000001 0.933769 0.999995 0.772656
C99   C     C_R   0.433932 0.500190 0.066037 0.814583
C100  C     C_R   0.566067 0.500181 0.933966 0.814290
C101  C     C_R   0.933933 0.000183 0.066035 0.814321
C102  C     C_R   0.066067 0.000183 0.933966 0.814261
C103  C     C_R   0.499992 0.566019 0.000013 0.772250
C104  C     C_R   0.000001 0.066020 0.000003 0.772251
C105  C     C_R   0.516112 0.621809 0.032203 -0.201381
C106  C     C_R   0.483812 0.621781 0.967931 -0.200790
C107  C     C_R   0.016059 0.121810 0.032332 -0.201270
C108  C     C_R   0.983922 0.121786 0.967717 -0.201147
C109  C     C_R   0.516472 0.657586 0.031487 -0.171344
C110  C     C_R   0.483422 0.657558 0.968698 -0.171243
C111  C     C_R   0.016425 0.157588 0.031609 -0.171365
C112  C     C_R   0.983538 0.157563 0.968472 -0.171406
C113  C     C_R   0.499941 0.675979 0.000100 0.105485
C114  C     C_R   0.999977 0.175983 0.000048 0.105493
C115  C     C_R   0.499973 0.603680 0.000047 -0.026079
C116  C     C_R   0.999995 0.103683 0.000017 -0.025945
C117  C     C_R   0.500468 0.732540 0.942945 -0.177737
C118  C     C_R   0.499404 0.732552 0.057260 -0.177791
C119  C     C_R   0.000593 0.232546 0.942814 -0.177762
C120  C     C_R   0.999337 0.232553 0.057315 -0.177787
C121  C     C_3   0.997467 0.467771 0.773306 -0.147823
C122  C     C_3   0.004740 0.468004 0.224470 -0.148285
C123  C     C_3   0.497596 0.967761 0.773176 -0.147805
C124  C     C_3   0.507380 0.968495 0.221841 -0.149134
C125  C     C_R   0.000179 0.268334 0.943283 -0.176099
C126  C     C_R   0.999742 0.268342 0.056860 -0.176102
C127  C     C_R   0.500061 0.768328 0.943404 -0.176124
C128  C     C_R   0.499816 0.768341 0.056791 -0.176124
C129  C     C_R   0.999959 0.286390 0.000075 0.092166
C130  C     C_R   0.499941 0.786387 0.000093 0.092216
C131  C     C_R   0.499936 0.714133 0.000104 0.098639
C132  C     C_R   0.999969 0.214136 0.000060 0.098660
C133  C     C_R   0.026953 0.342157 0.001190 -0.168436
C134  C     C_R   0.972981 0.342139 0.998940 -0.168469
C135  C     C_R   0.526950 0.842153 0.001169 -0.168426
C136  C     C_R   0.472967 0.842142 0.998967 -0.168512
C137  C     C_R   0.027186 0.377954 0.000261 -0.189385
C138  C     C_R   0.972764 0.377936 0.999834 -0.189337
C139  C     C_R   0.527188 0.877951 0.000235 -0.189369
C140  C     C_R   0.472756 0.877939 0.999855 -0.189318
C141  C     C_R   0.999981 0.396102 0.000036 -0.025763
C142  C     C_R   0.499979 0.896102 0.000032 -0.025634
C143  C     C_R   0.999963 0.324087 0.000072 0.099897
C144  C     C_R   0.499952 0.824086 0.000079 0.099952
C145  C     C_R   0.514806 0.377944 0.935297 -0.186469
C146  C     C_R   0.485216 0.377929 0.064646 -0.186445
C147  C     C_R   0.014773 0.877942 0.935302 -0.186448
C148  C     C_R   0.985246 0.877928 0.064643 -0.186450
C149  C     C_R   0.515183 0.342160 0.935312 -0.168399
C150  C     C_R   0.484853 0.342145 0.064602 -0.168390
C151  C     C_R   0.015150 0.842159 0.935317 -0.168421
C152  C     C_R   0.984884 0.842145 0.064600 -0.168415
C153  C     C_R   0.500022 0.324138 0.999950 0.097626
C154  C     C_R   0.000021 0.824136 0.999951 0.097657
C155  C     C_3   0.000045 0.500210 0.810940 0.021403
C156  C     C_3   0.999930 0.500186 0.189088 0.021406
C157  C     C_3   0.500044 0.000210 0.810942 0.021401
C158  C     C_3   0.499903 0.000159 0.189117 0.021372
C159  C     C_R   0.500007 0.396082 0.999979 -0.023705
C160  C     C_R   0.000006 0.896082 0.999979 -0.023755
C161  C     C_R   0.469033 0.268488 0.027379 -0.175249
C162  C     C_R   0.531022 0.268518 0.972493 -0.175238
C163  C     C_R   0.969028 0.768484 0.027570 -0.175262
C164  C     C_R   0.031023 0.768513 0.972305 -0.175259
C165  C     C_R   0.969020 0.732709 0.026846 -0.177221
C166  C     C_R   0.031035 0.732738 0.973034 -0.177223
C167  C     C_R   0.469026 0.232713 0.026653 -0.177238
C168  C     C_R   0.531032 0.232742 0.973224 -0.177236
C169  C     C_R   0.000028 0.714329 0.999945 0.099676
C170  C     C_R   0.500030 0.214334 0.999944 0.099706
C171  C     C_R   0.500026 0.286509 0.999938 0.091470
C172  C     C_R   0.000025 0.786506 0.999939 0.091477
C173  C     C_R   0.027148 0.657818 0.945214 -0.167850
C174  C     C_R   0.972906 0.657811 0.054728 -0.167890
C175  C     C_R   0.527200 0.157822 0.945318 -0.167876
C176  C     C_R   0.472856 0.157816 0.054623 -0.167941
C177  C     C_R   0.027323 0.622043 0.945727 -0.187091
C178  C     C_R   0.972721 0.622037 0.054240 -0.186994
C179  C     C_R   0.527372 0.122046 0.945832 -0.187108
C180  C     C_R   0.472673 0.122041 0.054134 -0.186978
C181  C     C_R   0.000018 0.603909 0.999988 -0.025925
C182  C     C_R   0.500019 0.103912 0.999988 -0.026126
C183  C     C_R   0.000028 0.676206 0.999962 0.107026
C184  C     C_R   0.500029 0.176210 0.999962 0.107067
C185  C     C_3   0.029418 0.514179 0.741189 -0.163518
C186  C     C_3   0.969653 0.512068 0.259756 -0.164166
C187  C     C_3   0.529359 0.014298 0.741247 -0.163452
C188  C     C_3   0.468730 0.009472 0.260675 -0.164766
C189  C     C_3   0.002603 0.532578 0.726708 -0.165097
C190  C     C_3   0.995135 0.532301 0.275577 -0.165052
C191  C     C_3   0.502471 0.032589 0.726841 -0.165068
C192  C     C_3   0.492430 0.031766 0.278287 -0.164866
C193  C     C_3   0.973243 0.518612 0.797434 -0.158456
C194  C     C_3   0.025390 0.520418 0.203945 -0.157268
C195  C     C_3   0.473166 0.018504 0.797511 -0.158531
C196  C     C_3   0.523575 0.022450 0.205767 -0.155767
C197  C     C_3   0.970668 0.486160 0.758670 -0.152767
C198  C     C_3   0.030197 0.488216 0.240462 -0.151569
C199  C     C_3   0.470722 0.986042 0.758618 -0.152845
C200  C     C_3   0.531050 0.990761 0.239631 -0.150325
Cu1   Cu    Cu3+1 0.000000 0.534200 0.500000 0.935299
Cu2   Cu    Cu3+1 0.500000 0.034200 0.500000 0.935444
Cu3   Cu    Cu3+1 0.000000 0.465780 0.500000 0.934876
Cu4   Cu    Cu3+1 0.500000 0.965780 0.500000 0.934734
Cu5   Cu    Cu3+1 0.965780 0.500020 0.034200 0.934974
Cu6   Cu    Cu3+1 0.034220 0.500020 0.965800 0.935340
Cu7   Cu    Cu3+1 0.465780 0.000020 0.034200 0.934734
Cu8   Cu    Cu3+1 0.534220 0.000020 0.965800 0.935543
Cu9   Cu    Cu3+1 0.499990 0.499910 0.062770 0.962444
Cu10  Cu    Cu3+1 0.500010 0.499910 0.937230 0.962461
Cu11  Cu    Cu3+1 0.999990 0.999910 0.062770 0.962391
Cu12  Cu    Cu3+1 0.000010 0.999910 0.937230 0.962389
H1    H     H_    0.995368 0.441242 0.793804 0.122185
H2    H     H_    0.008664 0.441678 0.202136 0.122156
H3    H     H_    0.495604 0.941223 0.793567 0.122186
H4    H     H_    0.513489 0.942588 0.197330 0.122414
H5    H     H_    0.282412 0.554794 0.189990 0.146614
H6    H     H_    0.717635 0.554656 0.810512 0.146662
H7    H     H_    0.782413 0.054755 0.189756 0.146616
H8    H     H_    0.217637 0.054685 0.810348 0.146647
H9    H     H_    0.219278 0.448252 0.306413 0.152920
H10   H     H_    0.780674 0.448248 0.693214 0.152917
H11   H     H_    0.719277 0.948273 0.306555 0.152932
H12   H     H_    0.280674 0.948229 0.693360 0.152900
H13   H     H_    0.281989 0.448109 0.242063 0.145122
H14   H     H_    0.717961 0.448107 0.757553 0.145106
H15   H     H_    0.781986 0.948125 0.242216 0.145097
H16   H     H_    0.217963 0.948089 0.757702 0.145090
H17   H     H_    0.171705 0.451849 0.281080 0.129928
H18   H     H_    0.828272 0.451683 0.718582 0.129913
H19   H     H_    0.671701 0.951807 0.281183 0.129967
H20   H     H_    0.328273 0.951722 0.718698 0.129897
H21   H     H_    0.109008 0.450789 0.345880 0.145185
H22   H     H_    0.890971 0.450655 0.653765 0.145144
H23   H     H_    0.609004 0.950753 0.345996 0.145386
H24   H     H_    0.390972 0.950689 0.653881 0.145074
H25   H     H_    0.108259 0.549440 0.437991 0.148403
H26   H     H_    0.891748 0.549495 0.562357 0.148397
H27   H     H_    0.608267 0.049476 0.437842 0.148466
H28   H     H_    0.391753 0.049463 0.562231 0.148227
H29   H     H_    0.170850 0.549614 0.376832 0.166271
H30   H     H_    0.829159 0.549649 0.623554 0.166185
H31   H     H_    0.670858 0.049649 0.376658 0.166262
H32   H     H_    0.329164 0.049617 0.623421 0.166184
H33   H     H_    0.529070 0.608286 0.056612 0.142362
H34   H     H_    0.470866 0.608236 0.943501 0.142332
H35   H     H_    0.028951 0.108288 0.056883 0.142447
H36   H     H_    0.971036 0.108244 0.943157 0.142453
H37   H     H_    0.048795 0.466651 0.662188 0.130967
H38   H     H_    0.953593 0.463303 0.335371 0.132234
H39   H     H_    0.548928 0.966848 0.662053 0.130896
H40   H     H_    0.456787 0.959544 0.332138 0.133826
H41   H     H_    0.530143 0.670747 0.054711 0.124347
H42   H     H_    0.469741 0.670696 0.945490 0.124283
H43   H     H_    0.030034 0.170748 0.054972 0.124355
H44   H     H_    0.969921 0.170702 0.945122 0.124351
H45   H     H_    0.501665 0.719384 0.897271 0.125549
H46   H     H_    0.498206 0.719405 0.102936 0.125523
H47   H     H_    0.001869 0.219392 0.897066 0.125552
H48   H     H_    0.998067 0.219404 0.103055 0.125544
H49   H     H_    0.000629 0.281987 0.898749 0.131426
H50   H     H_    0.999290 0.282001 0.101398 0.131423
H51   H     H_    0.500441 0.781979 0.898935 0.131392
H52   H     H_    0.499440 0.782001 0.101253 0.131386
H53   H     H_    0.047994 0.328518 0.001916 0.130663
H54   H     H_    0.951934 0.328486 0.998223 0.130671
H55   H     H_    0.547995 0.828513 0.001876 0.130611
H56   H     H_    0.451913 0.828492 0.998275 0.130632
H57   H     H_    0.048354 0.391455 0.000769 0.143822
H58   H     H_    0.951605 0.391424 0.999311 0.143913
H59   H     H_    0.548361 0.891449 0.000723 0.143661
H60   H     H_    0.451593 0.891429 0.999350 0.143904
H61   H     H_    0.526503 0.391437 0.884813 0.148011
H62   H     H_    0.473514 0.391411 0.115140 0.148018
H63   H     H_    0.026446 0.891435 0.884818 0.148036
H64   H     H_    0.973569 0.891409 0.115136 0.148033
H65   H     H_    0.526938 0.328495 0.885022 0.132931
H66   H     H_    0.473104 0.328469 0.114882 0.132939
H67   H     H_    0.026879 0.828495 0.885026 0.132908
H68   H     H_    0.973160 0.828469 0.114881 0.132914
H69   H     H_    0.444909 0.282156 0.048273 0.132613
H70   H     H_    0.555143 0.282208 0.951600 0.132605
H71   H     H_    0.944902 0.782152 0.048610 0.132600
H72   H     H_    0.055148 0.782205 0.951266 0.132588
H73   H     H_    0.944718 0.719540 0.046534 0.125460
H74   H     H_    0.055339 0.719592 0.953349 0.125449
H75   H     H_    0.444729 0.219545 0.046191 0.125455
H76   H     H_    0.555330 0.219597 0.953689 0.125452
H77   H     H_    0.048082 0.670983 0.901295 0.123518
H78   H     H_    0.951975 0.670972 0.098639 0.123533
H79   H     H_    0.548176 0.170987 0.901482 0.123528
H80   H     H_    0.451883 0.170976 0.098451 0.123553
H81   H     H_    0.053495 0.525700 0.735178 0.139067
H82   H     H_    0.944827 0.521886 0.266560 0.140328
H83   H     H_    0.553391 0.025916 0.735281 0.139002
H84   H     H_    0.443163 0.017181 0.268250 0.141683
H85   H     H_    0.048498 0.608536 0.902906 0.143298
H86   H     H_    0.951541 0.608527 0.097070 0.143408
H87   H     H_    0.548588 0.108543 0.903094 0.143402
H88   H     H_    0.451452 0.108534 0.096881 0.143632
H89   H     H_    0.004723 0.559188 0.706590 0.143918
H90   H     H_    0.991172 0.558701 0.297565 0.143414
H91   H     H_    0.504482 0.059209 0.706833 0.143944
H92   H     H_    0.486266 0.057734 0.302501 0.142561
H93   H     H_    0.951287 0.533743 0.837577 0.137382
H94   H     H_    0.046251 0.537040 0.164887 0.136126
H95   H     H_    0.451150 0.033547 0.837714 0.137445
H96   H     H_    0.542975 0.040744 0.168146 0.134588
H97   H     H_    0.946611 0.474697 0.764445 0.124382
H98   H     H_    0.054991 0.478462 0.233953 0.123483
H99   H     H_    0.446710 0.974483 0.764349 0.124422
H100  H     H_    0.556570 0.983113 0.232416 0.122690
H101  H     H_    0.391776 0.460192 0.040111 0.160393
H102  H     H_    0.608164 0.459957 0.959506 0.160238
H103  H     H_    0.891786 0.960021 0.040421 0.160260
H104  H     H_    0.108165 0.960000 0.959581 0.160269
H105  H     H_    0.328824 0.460345 0.102749 0.141786
H106  H     H_    0.671117 0.460082 0.896887 0.141779
H107  H     H_    0.828834 0.960175 0.103037 0.141772
H108  H     H_    0.171118 0.960127 0.896964 0.141771
H109  H     H_    0.328541 0.542634 0.237477 0.152851
H110  H     H_    0.671509 0.542790 0.762961 0.153028
H111  H     H_    0.828541 0.042786 0.237116 0.152999
H112  H     H_    0.171509 0.042757 0.762881 0.153020
O1    O     O_R   0.049900 0.528880 0.450120 -0.585885
O2    O     O_R   0.950100 0.528880 0.549880 -0.586098
O3    O     O_R   0.549900 0.028880 0.450120 -0.585822
O4    O     O_R   0.450100 0.028880 0.549880 -0.586229
O5    O     O_R   0.450080 0.499920 0.102890 -0.541564
O6    O     O_R   0.549920 0.499920 0.897110 -0.541796
O7    O     O_R   0.950080 0.999920 0.102890 -0.541733
O8    O     O_R   0.049920 0.999920 0.897110 -0.541762
O9    O     O_R   0.450090 0.499990 0.996890 -0.598079
O10   O     O_R   0.549910 0.499990 0.003110 -0.598054
O11   O     O_R   0.950090 0.999990 0.996890 -0.598056
O12   O     O_R   0.049910 0.999990 0.003110 -0.598067
O13   O     O_R   0.500000 0.549830 0.053110 -0.585570
O14   O     O_R   0.500000 0.549830 0.946890 -0.585189
O15   O     O_R   0.000000 0.049830 0.053110 -0.585360
O16   O     O_R   0.000000 0.049830 0.946890 -0.585355
O17   O     O_R   0.049890 0.471100 0.450130 -0.588512
O18   O     O_R   0.950110 0.471100 0.549870 -0.588739
O19   O     O_R   0.549890 0.971100 0.450130 -0.588394
O20   O     O_R   0.450110 0.971100 0.549870 -0.588799
O21   O     O_R   0.999990 0.528880 0.591580 -0.590332
O22   O     O_R   0.000010 0.528880 0.408420 -0.590150
O23   O     O_R   0.499990 0.028880 0.591580 -0.590328
O24   O     O_R   0.500010 0.028880 0.408420 -0.589843
O25   O     O_R   0.999970 0.471100 0.591590 -0.587238
O26   O     O_R   0.000030 0.471100 0.408410 -0.587428
O27   O     O_R   0.499970 0.971100 0.591590 -0.587239
O28   O     O_R   0.500030 0.971100 0.408410 -0.587720
O29   O     O_R   0.971100 0.450110 0.028870 -0.586037
O30   O     O_R   0.028900 0.450110 0.971130 -0.586130
O31   O     O_R   0.471100 0.950110 0.028870 -0.586048
O32   O     O_R   0.528900 0.950110 0.971130 -0.586247
O33   O     O_R   0.971110 0.500030 0.937300 -0.588965
O34   O     O_R   0.028890 0.500030 0.062700 -0.588583
O35   O     O_R   0.471110 0.000030 0.937300 -0.589002
O36   O     O_R   0.528890 0.000030 0.062700 -0.588168
O37   O     O_R   0.028880 0.500040 0.879560 -0.588710
O38   O     O_R   0.971120 0.500040 0.120440 -0.589117
O39   O     O_R   0.528880 0.000040 0.879560 -0.588669
O40   O     O_R   0.471120 0.000040 0.120440 -0.589553
O41   O     O_R   0.971110 0.549940 0.028880 -0.588168
O42   O     O_R   0.028890 0.549940 0.971120 -0.588277
O43   O     O_R   0.471110 0.049940 0.028880 -0.588077
O44   O     O_R   0.528890 0.049940 0.971120 -0.588300
O45   O     O_R   0.499970 0.450010 0.052910 -0.589338
O46   O     O_R   0.500030 0.450010 0.947090 -0.589363
O47   O     O_R   0.999970 0.950010 0.052910 -0.589350
O48   O     O_R   0.000030 0.950010 0.947090 -0.589355
O49   O     O_3   0.395565 0.547285 0.180218 -0.568661
C201  C     C_3   0.401300 0.578056 0.141323 0.051935
H113  H     H_    0.376564 0.589985 0.151613 0.135006
H114  H     H_    0.417445 0.573408 0.083000 0.123385
C202  C     C_3   0.420125 0.603258 0.164557 -0.745159
H115  H     H_    0.444816 0.592023 0.155599 0.260276
H116  H     H_    0.425475 0.627305 0.133168 0.203674
H117  H     H_    0.404170 0.609357 0.222072 0.241454
O50   O     O_3   0.604504 0.547504 0.820228 -0.568749
C203  C     C_3   0.598573 0.578077 0.859817 0.052088
H118  H     H_    0.623203 0.589919 0.850501 0.134649
H119  H     H_    0.582135 0.573167 0.917934 0.123631
C204  C     C_3   0.580068 0.603539 0.836377 -0.745349
H120  H     H_    0.555515 0.592382 0.844257 0.260257
H121  H     H_    0.574517 0.627406 0.868377 0.203889
H122  H     H_    0.596341 0.609940 0.779118 0.241310
O51   O     O_3   0.895552 0.047467 0.179854 -0.568731
C205  C     C_3   0.901475 0.078079 0.140393 0.052151
H123  H     H_    0.876838 0.089936 0.149846 0.134667
H124  H     H_    0.917871 0.073220 0.082245 0.123640
C206  C     C_3   0.920035 0.103495 0.163839 -0.745336
H125  H     H_    0.944592 0.092317 0.155841 0.260287
H126  H     H_    0.925585 0.127392 0.131927 0.203933
H127  H     H_    0.903800 0.109851 0.221131 0.241276
O52   O     O_3   0.104504 0.047469 0.820150 -0.568748
C207  C     C_3   0.098569 0.078056 0.859699 0.052167
H128  H     H_    0.123199 0.089911 0.850354 0.134647
H129  H     H_    0.082139 0.073162 0.917824 0.123621
C208  C     C_3   0.080051 0.103494 0.836243 -0.745391
H130  H     H_    0.055504 0.092318 0.844126 0.260271
H131  H     H_    0.074486 0.127366 0.868231 0.203906
H132  H     H_    0.096322 0.109890 0.778982 0.241277
O53   O     O_3   0.215764 0.561281 0.249432 -0.595982
C209  C     C_3   0.210810 0.561062 0.189051 0.059960
H133  H     H_    0.196572 0.537722 0.187989 0.143317
H134  H     H_    0.235905 0.562282 0.139117 0.139701
C210  C     C_3   0.189754 0.592262 0.191663 -0.777433
H135  H     H_    0.203410 0.616095 0.191747 0.248508
H136  H     H_    0.185722 0.592433 0.144319 0.194569
H137  H     H_    0.164391 0.591485 0.240675 0.250759
O54   O     O_3   0.784288 0.561118 0.751124 -0.595937
C211  C     C_3   0.789267 0.560716 0.811470 0.060008
H138  H     H_    0.803507 0.537342 0.812275 0.143322
H139  H     H_    0.764181 0.561848 0.861438 0.139679
C212  C     C_3   0.810334 0.591877 0.809136 -0.777492
H140  H     H_    0.796674 0.615739 0.809323 0.248517
H141  H     H_    0.814390 0.591901 0.856450 0.194529
H142  H     H_    0.835686 0.591188 0.760088 0.250747
O55   O     O_3   0.715765 0.061239 0.249199 -0.595965
C213  C     C_3   0.710816 0.060963 0.188813 0.059916
H143  H     H_    0.696579 0.037610 0.187814 0.143307
H144  H     H_    0.735913 0.062162 0.138881 0.139721
C214  C     C_3   0.689762 0.092147 0.191331 -0.777322
H145  H     H_    0.703416 0.115991 0.191356 0.248520
H146  H     H_    0.685734 0.092276 0.143982 0.194604
H147  H     H_    0.664397 0.091390 0.240340 0.250764
O56   O     O_3   0.284290 0.061154 0.750937 -0.595954
C215  C     C_3   0.289257 0.060816 0.811299 0.060009
H148  H     H_    0.303486 0.037452 0.812204 0.143306
H149  H     H_    0.264167 0.061983 0.861251 0.139686
C216  C     C_3   0.310332 0.091989 0.808864 -0.777522
H150  H     H_    0.296684 0.115842 0.808941 0.248525
H151  H     H_    0.314376 0.092066 0.856193 0.194527
H152  H     H_    0.335689 0.091264 0.759834 0.250738

loop_
_geom_bond_atom_site_label_1
_geom_bond_atom_site_label_2
_ccdc_geom_bond_type
C3    O3    A    
C133  C137  A    
C55   C59   A    
C214  H145  S    
Cu9   O13   S    
C46   O26   A    
C136  C140  A    
C99   O5    A    
C135  C139  A    
O54   C211  S    
Cu5   O33   S    
C66   H22   S    
C31   C101  S    
C163  C165  A    
Cu2   O4    S    
Cu7   O40   S    
C139  C142  A    
C213  H143  S    
C122  H2    S    
C148  C160  A    
C149  C153  A    
C64   C84   A    
C202  H117  S    
C173  H77   S    
C118  C131  A    
C211  C212  S    
C53   H13   S    
C134  C143  A    
C104  C116  S    
C11   C15   A    
C18   C58   S    
C162  C171  A    
C12   C16   A    
C51   H11   S    
C95   O42   A    
C124  C158  S    
C70   C74   A    
C4    O20   A    
C79   H31   S    
C121  C155  S    
C9    H101  S    
C211  H139  S    
C98   O47   A    
C90   C124  S    
C41   C49   A    
Cu5   O38   S    
C180  C182  A    
C25   C29   A    
C93   C157  S    
C29   C99   S    
C27   C31   A    
C199  H99   S    
C28   C32   A    
C200  H100  S    
C53   C57   A    
C88   C122  S    
C48   O24   A    
Cu2   O24   S    
C137  H57   S    
C205  H124  S    
C126  C129  A    
C97   O46   A    
C2    O2    A    
C100  O6    A    
C196  H96   S    
C17   C21   A    
Cu1   O1    S    
C121  H1    S    
C186  C190  S    
C19   C23   A    
Cu5   O29   S    
C10   C30   A    
C16   C20   A    
C216  H152  S    
C163  C172  A    
Cu7   O35   S    
C52   H12   S    
C155  C185  S    
O51   C205  S    
C214  H147  S    
C209  H134  S    
C97   C159  S    
C24   C28   A    
C98   O48   A    
C138  H58   S    
C92   O38   A    
C176  C184  A    
C50   H10   S    
C85   O30   A    
C170  C184  S    
C157  C195  S    
C198  H98   S    
C146  H62   S    
C138  C141  A    
C35   H7    S    
C175  C179  A    
C133  H53   S    
C118  H46   S    
C33   H5    S    
C192  H92   S    
C16   H108  S    
C206  H125  S    
C108  H36   S    
Cu3   O18   S    
C106  C115  A    
C179  H87   S    
C5    C189  S    
O53   C209  S    
Cu5   O41   S    
Cu12  O11   S    
C108  C116  A    
C66   C70   A    
C139  H59   S    
C110  H42   S    
C49   C53   A    
C51   C55   A    
C1    O17   A    
C215  H149  S    
C104  O16   A    
C3    O19   A    
C61   C65   A    
Cu3   O25   S    
C136  C144  A    
C34   C58   A    
C73   C77   A    
C210  H135  S    
C75   C79   A    
C147  H63   S    
C204  H121  S    
O55   C213  S    
C43   C83   S    
C147  C151  A    
Cu1   O2    S    
C112  C114  A    
C208  H130  S    
C6    C190  S    
O56   C215  S    
Cu4   O28   S    
C73   H25   S    
C77   H29   S    
C64   C68   A    
C103  O14   A    
C123  C199  S    
C8    C192  S    
C117  H45   S    
C145  C159  A    
C28   O52   S    
C30   C100  S    
C4    O4    A    
C6    C88   S    
C164  H72   S    
C165  H73   S    
Cu4   O20   S    
C201  H113  S    
C9    C13   A    
C21   H109  S    
C47   O23   A    
C37   O53   S    
C62   H18   S    
C25   O49   S    
C148  H64   S    
C46   O22   A    
C149  H65   S    
Cu6   O34   S    
C130  C144  S    
C44   C52   A    
C146  C150  A    
C93   O39   A    
Cu1   Cu3   S    
C180  H88   S    
C193  H93   S    
Cu8   O36   S    
C147  C160  A    
C212  H141  S    
Cu1   O22   S    
C2    O18   A    
C195  C199  S    
C206  H127  S    
C62   C66   A    
C92   C156  S    
C10   C14   A    
C85   C141  S    
C95   C181  S    
C5    C197  S    
C123  C157  S    
C19   C59   S    
C158  C196  S    
Cu10  O14   S    
C201  C202  S    
C74   H26   S    
C156  C194  S    
C135  H55   S    
C125  C129  A    
C54   C58   A    
Cu9   Cu10  S    
Cu12  O48   S    
C161  C167  A    
C122  C198  S    
C210  H137  S    
C96   O44   A    
C105  H33   S    
C188  H84   S    
C42   C50   A    
C162  C168  A    
C98   C160  S    
C26   C30   A    
C74   C78   A    
C40   O56   S    
C207  H129  S    
C164  C172  A    
C185  H81   S    
Cu11  O47   S    
C208  H132  S    
C187  H83   S    
C63   H19   S    
C87   H37   S    
C21   C25   A    
C22   H110  S    
C49   H9    S    
C18   C22   A    
C102  O12   A    
C105  C115  A    
C148  C152  A    
C163  H71   S    
C158  C188  S    
C185  C189  S    
C156  C186  S    
C92   O34   A    
C188  C192  S    
C175  H79   S    
C94   O36   A    
C61   C81   A    
O52   C207  S    
Cu4   O19   S    
C194  C198  S    
C207  H128  S    
C177  C181  A    
C37   C41   A    
C117  C131  A    
C191  C195  S    
C107  C116  A    
C202  H116  S    
C8    C200  S    
C5    C87   S    
C189  C193  S    
C176  H80   S    
C40   C44   A    
C189  H89   S    
C213  C214  S    
Cu11  O7    S    
C95   O41   A    
C125  H49   S    
Cu9   O10   S    
C119  H47   S    
C39   O55   S    
C203  H118  S    
C123  H3    S    
C214  H146  S    
C75   H27   S    
C80   C84   A    
C87   C185  S    
C15   C19   A    
C86   O31   A    
C50   C54   A    
Cu2   Cu4   S    
C192  C196  S    
C65   H21   S    
C140  C142  A    
C124  H4    S    
C120  C126  A    
C112  H44   S    
C97   O45   A    
C35   C59   A    
Cu9   O45   S    
C100  O10   A    
C167  H75   S    
C168  H76   S    
C216  H151  S    
C150  C153  A    
C61   H17   S    
C69   C73   A    
C20   C60   S    
C113  C131  S    
C174  C178  A    
C72   C76   A    
C179  C182  A    
C168  C170  A    
C62   C82   A    
C94   C158  S    
C120  C132  A    
C165  C169  A    
C89   C187  S    
C7    C191  S    
C107  C111  A    
Cu6   O37   S    
C56   H16   S    
C203  H119  S    
C85   O29   A    
Cu7   Cu8   S    
C12   H104  S    
C76   C80   A    
C13   H105  S    
Cu2   O3    S    
C166  H74   S    
C87   C121  S    
C15   H107  S    
Cu9   O5    S    
C101  O11   A    
C203  C204  S    
C5    C45   S    
Cu3   O17   S    
C1    C69   S    
C108  C112  A    
C63   C83   A    
C68   C72   A    
C7    C47   S    
Cu6   O30   S    
C35   C39   A    
C8    C48   S    
C103  C115  S    
Cu11  Cu12  S    
C77   C81   A    
C45   O25   A    
C93   O35   A    
Cu8   O32   S    
C194  H94   S    
C215  C216  S    
C119  C125  A    
C10   H102  S    
C211  H138  S    
C4    C72   S    
C45   O21   A    
C86   C142  S    
C64   H20   S    
C204  H120  S    
C137  C141  A    
C47   O27   A    
C89   H39   S    
C122  C156  S    
C96   C182  S    
C44   C84   S    
C128  C130  A    
Cu2   O23   S    
C34   H6    S    
C205  H123  S    
C129  C143  S    
C13   C17   A    
C152  H68   S    
C124  C200  S    
C136  H56   S    
C76   H28   S    
C103  O13   A    
Cu6   O42   S    
C120  H48   S    
C79   C83   A    
C43   C51   A    
C105  C109  A    
C99   O9    A    
C65   C69   A    
C109  H41   S    
C127  H51   S    
C111  C114  A    
C67   C71   A    
C128  H52   S    
C186  H82   S    
C33   C37   A    
C178  C181  A    
C56   C60   A    
C173  C183  A    
C22   C26   A    
C102  O8    A    
C209  H133  S    
C2    C70   S    
C174  C183  A    
C145  C149  A    
C17   C57   S    
C175  C184  A    
C190  H90   S    
C134  H54   S    
Cu11  O12   S    
C24   H112  S    
C14   C18   A    
C3    C71   S    
C42   C82   S    
Cu7   O43   S    
C196  C200  S    
C36   H8    S    
C205  C206  S    
Cu8   O39   S    
C212  H140  S    
Cu1   O21   S    
Cu5   Cu6   S    
C206  H126  S    
C67   H23   S    
C78   H30   S    
C107  H35   S    
C38   C42   A    
C11   H103  S    
C55   H15   S    
C7    C89   S    
C126  H50   S    
C151  C154  A    
C78   C82   A    
C215  H148  S    
C54   H14   S    
C151  H67   S    
C68   H24   S    
C104  O15   A    
C161  H69   S    
C169  C183  S    
C20   C24   A    
Cu3   O26   S    
C209  C210  S    
C23   C27   A    
C210  H136  S    
C48   O28   A    
C187  C191  S    
C9    C29   A    
C204  H122  S    
C88   C186  S    
C41   C81   S    
C12   C32   A    
C213  H144  S    
C207  C208  S    
C118  C128  A    
Cu7   O31   S    
C208  H131  S    
C167  C170  A    
C162  H70   S    
Cu4   O27   S    
C63   C67   A    
C133  C143  A    
C36   C40   A    
C38   O54   S    
C6    C198  S    
C39   C43   A    
C146  C159  A    
C89   C123  S    
C90   H40   S    
Cu10  O9    S    
Cu11  O15   S    
C80   H32   S    
C197  H97   S    
C161  C171  A    
C145  H61   S    
C150  H66   S    
C91   C155  S    
C155  C193  S    
C111  H43   S    
C117  C127  A    
C91   O37   A    
C176  C180  A    
C173  C177  A    
C94   O40   A    
C153  C171  S    
C119  C132  A    
C154  C172  S    
C178  H86   S    
C106  H34   S    
C140  H60   S    
C110  C113  A    
C121  C197  S    
C202  H115  S    
C135  C144  A    
C152  C154  A    
C32   C102  S    
C8    C90   S    
C14   H106  S    
C212  H142  S    
Cu10  O46   S    
C88   H38   S    
C101  O7    A    
C23   H111  S    
C33   C57   A    
C6    C46   S    
C34   C38   A    
C114  C132  S    
C36   C60   A    
C134  C138  A    
Cu12  O16   S    
C191  H91   S    
C109  C113  A    
C177  H85   S    
C86   O32   A    
Cu8   O44   S    
C164  C166  A    
C127  C130  A    
C195  H95   S    
O49   C201  S    
C71   C75   A    
Cu12  O8    S    
O50   C203  S    
C90   C188  S    
C91   O33   A    
C193  C197  S    
C201  H114  S    
C7    C199  S    
C96   O43   A    
C190  C194  S    
C11   C31   A    
C27   O51   S    
C166  C169  A    
C106  C110  A    
C216  H150  S    
C174  H78   S    
Cu10  O6    S    
C157  C187  S    
C1    O1    A    
C52   C56   A    
C26   O50   S    
