data_mof_unit_23102.cif
_audit_creation_date              2013-03-05T16:04:39-0500
_audit_creation_method            fapswitch 2.2
_symmetry_space_group_name_H-M    P1
_symmetry_Int_Tables_number       1
_space_group_crystal_system       triclinic
_cell_length_a                    9.551467
_cell_length_b                    10.827444
_cell_length_c                    15.557269
_cell_angle_alpha                 89.046089
_cell_angle_beta                  74.180433
_cell_angle_gamma                 90.053263
_cell_volume                      1547.72449437

loop_
_atom_site_label
_atom_site_type_symbol
_atom_site_description
_atom_site_fract_x
_atom_site_fract_y
_atom_site_fract_z
_atom_type_partial_charge
O1    O     O_R   0.118740 0.319660 0.500000 -0.550674
O2    O     O_R   0.881260 0.680340 0.500000 -0.550701
O3    O     O_R   0.881170 0.319630 0.500010 -0.565777
O4    O     O_R   0.118830 0.680370 0.499990 -0.565727
C1    C     C_R   0.000669 0.262316 0.498754 0.858251
C2    C     C_R   0.999334 0.737684 0.501242 0.858285
O5    O     O_R   0.055570 0.500030 0.629830 -0.594306
O6    O     O_R   0.944430 0.499970 0.370170 -0.594126
O7    O     O_R   0.818000 0.500000 0.629840 -0.527050
O8    O     O_R   0.182000 0.500000 0.370160 -0.527069
C3    C     C_R   0.918063 0.501437 0.671895 0.807731
C4    C     C_R   0.081939 0.498566 0.328106 0.807598
Cu1   Cu    Cu3+1 0.140660 0.500020 0.500000 1.013594
Cu2   Cu    Cu3+1 0.859340 0.499980 0.500000 1.013623
C5    C     C_R   0.872642 0.510908 0.769488 -0.060005
C6    C     C_R   0.127409 0.488967 0.230522 -0.059659
C7    C     C_R   0.919988 0.571885 0.907400 -0.106999
C8    C     C_R   0.080429 0.427205 0.092682 -0.107386
C9    C     C_R   0.969900 0.548895 0.816510 -0.111529
C10   C     C_R   0.030357 0.450392 0.183532 -0.111167
C11   C     C_R   0.727084 0.489164 0.815028 -0.193480
C12   C     C_R   0.272906 0.511035 0.184995 -0.193342
C13   C     C_R   0.673948 0.508307 0.907412 0.071534
C14   C     C_R   0.326305 0.491389 0.092678 0.071642
C15   C     C_R   0.771193 0.558382 0.952784 0.020790
C16   C     C_R   0.229213 0.440941 0.047327 0.020710
C17   C     C_R   0.525999 0.483250 0.954575 0.014693
C18   C     C_R   0.474328 0.516341 0.045554 0.014860
C19   C     C_R   0.571272 0.575870 0.086216 -0.252256
C20   C     C_R   0.429216 0.423465 0.913943 -0.252250
C21   C     C_R   0.717515 0.595633 0.041788 0.307271
C22   C     C_R   0.283017 0.403540 0.958369 0.307426
H1    H     H_    0.343662 0.538441 0.224449 0.186788
H2    H     H_    0.656003 0.462510 0.775588 0.186896
H3    H     H_    0.916839 0.433498 0.217594 0.178884
H4    H     H_    0.083471 0.565515 0.782449 0.179033
H5    H     H_    0.998833 0.601699 0.941219 0.183155
H6    H     H_    0.001723 0.397003 0.058878 0.183147
H7    H     H_    0.535821 0.613634 0.152081 0.183533
H8    H     H_    0.464889 0.385510 0.848137 0.183520
C23   C     C_R   0.872366 0.064570 0.537814 -0.336285
C24   C     C_R   0.127648 0.935427 0.462177 -0.336265
H9    H     H_    0.774665 0.114543 0.569419 0.187317
H10   H     H_    0.225350 0.885451 0.430569 0.187365
C25   C     C_R   0.868963 0.936017 0.539470 0.508366
C26   C     C_R   0.131052 0.063983 0.460524 0.508369
C27   C     C_R   0.998390 0.871578 0.502006 -0.184113
C28   C     C_R   0.001622 0.128421 0.497986 -0.184115
C29   C     C_R   0.547651 0.429149 0.561383 0.615838
C30   C     C_R   0.452343 0.570859 0.438620 0.615954
C31   C     C_R   0.397511 0.431495 0.561403 -0.239930
C32   C     C_R   0.602487 0.568511 0.438599 -0.239864
H11   H     H_    0.316142 0.379830 0.610684 0.181503
H12   H     H_    0.683856 0.620187 0.389326 0.181619
N1    N     N_R   0.352080 0.500030 0.499980 -0.216271
N2    N     N_R   0.647920 0.499970 0.500020 -0.216297
N3    N     N_R   0.807032 0.661617 0.086683 0.106800
O9    O     O_R   0.881289 0.757987 0.048448 -0.338040
O10   O     O_R   0.792177 0.641031 0.171315 -0.412666
N4    N     N_R   0.193648 0.337325 0.913506 0.106775
O11   O     O_R   0.208193 0.358051 0.828921 -0.412655
O12   O     O_R   0.119826 0.240728 0.951707 -0.337966
O13   O     O_3   0.743688 0.873008 0.585009 -0.554206
C33   C     C_3   0.636819 0.888410 0.538594 -0.283064
H13   H     H_    0.547550 0.821104 0.566126 0.189105
H14   H     H_    0.680724 0.869730 0.466004 0.149430
H15   H     H_    0.589244 0.982326 0.548377 0.136624
O14   O     O_3   0.256325 0.126995 0.414988 -0.554207
C34   C     C_3   0.363208 0.111569 0.461389 -0.283092
H16   H     H_    0.319326 0.130252 0.533981 0.149471
H17   H     H_    0.452489 0.178862 0.433850 0.189088
H18   H     H_    0.410763 0.017645 0.451603 0.136631
O15   O     O_3   0.595522 0.364536 0.625978 -0.557658
C35   C     C_3   0.522072 0.251094 0.651301 -0.375659
H19   H     H_    0.514293 0.197930 0.592309 0.130692
H20   H     H_    0.413525 0.265234 0.698572 0.218801
H21   H     H_    0.584884 0.194787 0.687822 0.208668
O16   O     O_3   0.404439 0.635498 0.374047 -0.557698
C36   C     C_3   0.478039 0.748853 0.348608 -0.376122
H22   H     H_    0.586506 0.734566 0.301278 0.218798
H23   H     H_    0.486015 0.802056 0.407542 0.130821
H24   H     H_    0.415215 0.805197 0.312118 0.208676

loop_
_geom_bond_atom_site_label_1
_geom_bond_atom_site_label_2
_geom_bond_distance
_ccdc_geom_bond_type
C15   C21   1.405255 A    
Cu2   N2    2.019286 S    
C16   C22   1.405229 A    
O15   C35   1.409848 S    
C8    C16   1.410298 A    
O5    C3    1.298168 A    
C35   H20   1.107928 S    
O1    C1    1.291786 A    
C12   C14   1.406794 A    
C18   C19   1.415926 A    
C14   C16   1.422943 A    
C9    H4    1.083029 S    
N3    O10   1.300643 A    
N4    O12   1.301431 A    
C24   C26   1.391917 A    
O4    Cu1   1.964025 S    
C34   H17   1.109456 S    
C10   H3    1.083069 S    
C3    C5    1.466307 S    
C4    C6    1.466299 S    
O14   C34   1.410433 S    
C29   C31   1.434221 A    
C35   H21   1.108794 S    
C30   C32   1.434257 A    
C13   C17   1.426968 A    
C8    C10   1.390289 A    
O6    C4    1.298186 A    
Cu1   Cu2   2.687019 S    
C17   C20   1.415722 A    
C23   H9    1.079355 S    
O2    C2    1.291797 A    
C24   H10   1.079389 S    
C30   O16   1.391456 S    
C32   H12   1.079253 S    
C25   C27   1.406072 A    
C1    C28   1.450001 S    
C26   C28   1.406087 A    
C2    C27   1.449988 S    
C33   H15   1.109950 S    
O4    C2    1.295294 A    
C35   H19   1.110775 S    
C36   H23   1.110784 S    
O16   C36   1.409865 S    
C11   H2    1.073946 S    
O6    Cu2   1.960900 S    
C25   O13   1.385385 S    
C36   H22   1.107978 S    
N4    O11   1.300671 A    
C31   H11   1.079252 S    
C33   H14   1.114305 S    
C34   H18   1.109953 S    
C5    C9    1.395386 A    
O7    Cu2   1.949689 S    
C26   O14   1.385387 S    
C5    C11   1.395379 A    
C6    C10   1.395376 A    
C19   H7    1.075577 S    
C20   H8    1.075709 S    
C7    H5    1.081381 S    
O7    C3    1.297300 A    
O3    Cu2   1.964025 S    
O8    C4    1.297266 A    
C11   C13   1.406642 A    
C29   O15   1.391428 S    
O1    Cu1   1.963836 S    
C22   N4    1.438791 S    
C12   H1    1.073964 S    
C6    C12   1.395401 A    
C14   C18   1.427217 A    
O3    C1    1.295311 A    
O8    Cu1   1.949690 S    
C36   H24   1.108793 S    
C29   N2    1.375625 A    
C30   N1    1.375620 A    
C7    C15   1.410247 A    
C33   H13   1.109459 S    
C21   N3    1.438877 S    
C8    H6    1.081424 S    
C19   C21   1.393843 A    
C20   C22   1.393725 A    
N3    O9    1.301376 A    
C7    C9    1.390331 A    
C23   C28   1.397548 A    
C31   N1    1.362033 A    
C24   C27   1.397565 A    
C13   C15   1.422746 A    
C34   H16   1.114300 S    
O2    Cu2   1.963836 S    
O13   C33   1.410438 S    
O5    Cu1   1.960900 S    
C17   C18   1.418314 A    
C23   C25   1.391894 A    
C32   N2    1.362050 A    
Cu1   N1    2.019285 S    
