data_mof_unit_63742.cif
_audit_creation_date              2012-12-11T15:58:31-0500
_audit_creation_method            fapswitch 2.2
_symmetry_space_group_name_H-M    P1
_symmetry_Int_Tables_number       1
_space_group_crystal_system       triclinic
_cell_length_a                    6.935745
_cell_length_b                    17.33132
_cell_length_c                    18.642456
_cell_angle_alpha                 106.759473
_cell_angle_beta                  90.18373
_cell_angle_gamma                 90.575501
_cell_volume                      2145.58975108

loop_
_atom_site_label
_atom_site_type_symbol
_atom_type_description
_atom_site_fract_x
_atom_site_fract_y
_atom_site_fract_z
_atom_type_partial_charge
O1    O     O_R   0.505770 0.442340 0.559500 -0.521347
O2    O     O_R   0.168070 0.405470 0.411510 -0.540016
O3    O     O_R   0.005580 0.557660 0.440500 -0.521861
C1    C     C_R   0.338610 0.381967 0.383015 0.670113
O4    O     O_R   0.175550 0.432860 0.557160 -0.520971
O5    O     O_R   0.013110 0.585240 0.587190 -0.535011
C2    C     C_R   0.344456 0.415871 0.580630 0.745808
O6    O     O_R   0.498240 0.414760 0.412810 -0.540875
O7    O     O_3   0.341770 0.549960 0.509680 -0.360065
V1    V     V_3+5 0.063870 0.490730 0.498200 1.407334
O8    O     O_R   0.683850 0.594530 0.588490 -0.538083
C3    C     C_R   0.854483 0.616935 0.617512 0.665628
O9    O     O_R   0.676380 0.567140 0.442840 -0.524540
C4    C     C_R   0.845364 0.584148 0.419385 0.713930
V2    V     V_3+5 0.564820 0.509270 0.501800 1.399762
O10   O     O_3   0.836790 0.450040 0.490320 -0.360776
C5    C     C_1   0.856638 0.636161 0.367367 -0.222991
C6    C     C_1   0.867886 0.678717 0.323808 -0.002319
C7    C     C_1   0.882239 0.728885 0.271923 -0.001455
C8    C     C_1   0.894555 0.771129 0.228118 0.001463
C9    C     C_1   0.908911 0.821295 0.176231 0.006747
C10   C     C_1   0.920171 0.863846 0.132669 -0.207411
C11   C     C_3   0.825112 0.838234 0.747052 -0.318833
H1    H     H_    0.679505 0.864412 0.761511 0.138584
H2    H     H_    0.919167 0.886359 0.736882 0.125270
C12   C     C_3   0.810653 0.766450 0.674443 -0.347458
H3    H     H_    0.903309 0.779040 0.630408 0.128992
H4    H     H_    0.659619 0.760549 0.653023 0.143011
H5    H     H_    0.626509 0.769715 0.844815 0.146024
H6    H     H_    0.590136 0.669694 0.734664 0.154448
C13   C     C_3   0.770279 0.744050 0.825750 -0.321147
C14   C     C_3   0.106829 0.772458 0.789611 -0.349649
C15   C     C_3   0.907053 0.810720 0.813213 0.102737
H7    H     H_    0.172566 0.755388 0.837449 0.139306
H8    H     H_    0.205730 0.817960 0.777255 0.128125
C16   C     C_3   0.873968 0.686712 0.689296 0.059213
C17   C     C_3   0.743955 0.673559 0.752609 -0.312840
C18   C     C_3   0.088526 0.698853 0.718873 -0.120033
H9    H     H_    0.181742 0.710718 0.674610 0.100311
H10   H     H_    0.830130 0.720548 0.870689 0.132515
H11   H     H_    0.778492 0.615494 0.763653 0.146034
C19   C     C_3   0.580903 0.298582 0.290083 -0.310433
H12   H     H_    0.641943 0.354503 0.280673 0.150859
H13   H     H_    0.664117 0.286816 0.336945 0.155398
C20   C     C_3   0.611709 0.227573 0.218655 -0.441136
H14   H     H_    0.707110 0.182204 0.231937 0.186633
H15   H     H_    0.685927 0.249841 0.175500 0.169901
H16   H     H_    0.306489 0.383136 0.235010 0.130862
H17   H     H_    0.357171 0.278512 0.128650 0.116810
C21   C     C_3   0.254647 0.325768 0.244155 -0.336032
C22   C     C_3   0.285607 0.231229 0.323071 -0.353500
C23   C     C_3   0.362162 0.311087 0.311857 0.039114
H18   H     H_    0.129521 0.236874 0.337056 0.175665
H19   H     H_    0.361326 0.219114 0.371352 0.086170
C24   C     C_3   0.416197 0.188264 0.187950 0.007121
C25   C     C_3   0.287766 0.254995 0.171962 -0.288675
C26   C     C_3   0.317300 0.159551 0.251305 0.526826
H20   H     H_    0.410184 0.114117 0.265706 0.036420
H21   H     H_    0.097501 0.332116 0.256028 0.146507
H22   H     H_    0.145292 0.229194 0.148973 0.181709
C27   C     C_1   0.354821 0.363875 0.632705 -0.192142
C28   C     C_1   0.366441 0.321366 0.676291 0.010870
C29   C     C_1   0.381846 0.271230 0.728184 0.002322
C30   C     C_1   0.395177 0.229002 0.771968 -0.000724
C31   C     C_1   0.410589 0.178827 0.823829 -0.002674
C32   C     C_1   0.422218 0.136253 0.867361 -0.219921
O11   O     O_R   0.278700 0.085270 0.087180 -0.500946
O12   O     O_R   0.601470 0.067150 0.942830 -0.527187
O13   O     O_R   0.763830 0.914750 0.912810 -0.541744
C33   C     C_R   0.432572 0.084167 0.919366 0.700797
O14   O     O_R   0.608870 0.094540 0.088490 -0.537959
O15   O     O_R   0.771290 0.942340 0.059510 -0.523463
C34   C     C_R   0.438710 0.117830 0.116892 0.699101
O16   O     O_R   0.271240 0.057690 0.940480 -0.524982
O17   O     O_3   0.435150 0.950050 0.990310 -0.366982
V3    V     V_3+5 0.713080 0.009270 0.001800 1.423019
O18   O     O_R   0.100490 0.932820 0.057180 -0.517185
C35   C     C_R   0.931485 0.915849 0.080646 0.760834
O19   O     O_R   0.093090 0.905430 0.911530 -0.546114
C36   C     C_R   0.922865 0.881751 0.883617 0.646115
V4    V     V_3+5 0.212120 0.990690 0.998230 1.443633
O20   O     O_3   0.940180 0.049940 0.009690 -0.351983
C37   C     C_1   0.164729 0.626180 0.735153 0.282606
N1    N     N_1   0.224469 0.569382 0.747882 -0.381347
F1    F     F_    0.140908 0.122653 0.227035 -0.701838

loop_
_geom_bond_atom_site_label_1
_geom_bond_atom_site_label_2
_ccdc_geom_bond_type
C24   C25   S    
C18   C37   S    
C7    C8    T    
O15   V3    S    
V4    O20   S    
O18   C35   A    
C12   H3    S    
C1    C23   S    
C21   H21   S    
C16   C17   S    
O5    C3    A    
C18   H9    S    
V2    O10   S    
C13   H10   S    
O13   V3    S    
C6    C7    S    
C11   C12   S    
C2    C27   S    
O15   C35   A    
O8    V2    S    
C11   C15   S    
C33   O16   A    
C21   C23   S    
C11   H1    S    
C13   C15   S    
O1    V2    S    
C14   C18   S    
C3    C16   S    
O7    V1    S    
C1    O6    A    
H16   C21   S    
O9    C4    A    
C4    C5    S    
C19   H13   S    
O4    C2    A    
C20   H15   S    
C22   C23   S    
C14   H8    S    
C10   C35   S    
V3    O20   S    
O19   V4    S    
O17   V4    S    
C20   H14   S    
C21   C25   S    
C29   C30   T    
H6    C17   S    
C22   H18   S    
C19   C20   S    
C14   H7    S    
O2    C1    A    
O17   V3    S    
C28   C29   S    
C37   N1    T    
O18   V4    S    
C5    C6    T    
O3    C4    A    
O11   C34   A    
C12   C16   S    
O11   V4    S    
O6    V2    S    
O9    V2    S    
C19   H12   S    
O16   V4    S    
O2    V1    S    
O14   V3    S    
O14   C34   A    
O1    C2    A    
O5    V1    S    
O8    C3    A    
C15   C36   S    
O12   V3    S    
H17   C25   S    
C12   H4    S    
C22   H19   S    
C14   C15   S    
C24   C26   S    
O7    V2    S    
O4    V1    S    
H5    C13   S    
O3    V1    S    
V1    O10   S    
C30   C31   S    
C26   H20   S    
C32   C33   S    
C16   C18   S    
C26   F1    S    
C11   H2    S    
C17   H11   S    
C27   C28   T    
O19   C36   A    
C24   C34   S    
C13   C17   S    
C22   C26   S    
C25   H22   S    
C8    C9    S    
C20   C24   S    
O12   C33   A    
C31   C32   T    
O13   C36   A    
C9    C10   T    
C19   C23   S    
