data_mof_unit_55005.cif
_audit_creation_date              2012-12-10T18:52:11-0500
_audit_creation_method            fapswitch 2.2
_symmetry_space_group_name_H-M    P1
_symmetry_Int_Tables_number       1
_space_group_crystal_system       triclinic
_cell_length_a                    15.73199
_cell_length_b                    10.627062
_cell_length_c                    9.861876
_cell_angle_alpha                 90.033331
_cell_angle_beta                  90.13895
_cell_angle_gamma                 90.223785
_cell_volume                      1648.73838074

loop_
_atom_site_label
_atom_site_type_symbol
_atom_type_description
_atom_site_fract_x
_atom_site_fract_y
_atom_site_fract_z
_atom_type_partial_charge
C1    C     C_R   0.497989 0.260372 0.499989 0.837070
C2    C     C_R   0.502003 0.739629 0.500013 0.837183
C3    C     C_R   0.435384 0.931627 0.435669 -0.117888
C4    C     C_R   0.564568 0.068373 0.564406 -0.118186
C5    C     C_R   0.503345 0.872078 0.499567 -0.144886
C6    C     C_R   0.496634 0.127924 0.500448 -0.144772
C7    C     C_R   0.556141 0.573006 0.072443 -0.284886
C8    C     C_R   0.443849 0.427001 0.927557 -0.285412
C9    C     C_R   0.557437 0.571867 0.927780 0.595797
C10   C     C_R   0.442554 0.428127 0.072249 0.596273
C11   C     C_R   0.337977 0.499883 0.499795 0.878579
C12   C     C_R   0.662022 0.500115 0.500205 0.878661
C13   C     C_3   0.972974 0.381080 0.515470 -0.097762
C14   C     C_3   0.027026 0.618898 0.484544 -0.097882
C15   C     C_3   0.028103 0.427127 0.395484 -0.423222
C16   C     C_3   0.971897 0.572854 0.604531 -0.423297
C17   C     C_1   0.249233 0.500055 0.499272 -0.155202
C18   C     C_1   0.750766 0.499936 0.500730 -0.155662
C19   C     C_3   0.028662 0.454573 0.616282 0.559586
C20   C     C_3   0.971338 0.545406 0.383735 0.559548
C21   C     C_3   0.083294 0.501347 0.498247 0.035434
C22   C     C_3   0.916705 0.498633 0.501768 0.035493
C23   C     C_1   0.174056 0.500531 0.498744 0.089390
C24   C     C_1   0.825944 0.499453 0.501265 0.089261
C25   C     C_R   0.430566 0.061317 0.436199 -0.031550
C26   C     C_R   0.569370 0.938686 0.563916 -0.031897
H1    H     H_    0.052816 0.368217 0.311455 0.168305
H2    H     H_    0.947185 0.631771 0.688553 0.168272
H3    H     H_    0.385280 0.876062 0.388753 0.192435
H4    H     H_    0.614667 0.123928 0.611336 0.192306
H5    H     H_    0.599472 0.632879 0.128441 0.179535
H6    H     H_    0.400526 0.367148 0.871527 0.179352
N1    N     N_R   0.499980 0.499970 0.857200 -0.137007
N2    N     N_R   0.500020 0.500030 0.142800 -0.137011
O1    O     O_R   0.499990 0.316750 0.614620 -0.615842
O2    O     O_R   0.500010 0.683250 0.385380 -0.615858
O3    O     O_R   0.500000 0.316780 0.385290 -0.576497
O4    O     O_R   0.500000 0.683220 0.614710 -0.576378
O5    O     O_R   0.376780 0.499970 0.614640 -0.609946
O6    O     O_R   0.623220 0.500030 0.385360 -0.609874
O7    O     O_R   0.376780 0.500000 0.385310 -0.589294
O8    O     O_R   0.623220 0.500000 0.614690 -0.589906
Zn1   Zn    Zn3+2 0.500000 0.499980 0.653120 1.004444
Zn2   Zn    Zn3+2 0.500000 0.500020 0.346880 1.004692
C27   C     C_2   0.944509 0.247474 0.533490 0.434404
H7    H     H_    0.991536 0.173620 0.542782 0.084653
O9    O     O_2   0.869042 0.221009 0.537969 -0.553937
C28   C     C_2   0.055489 0.752501 0.466497 0.434735
H8    H     H_    0.008461 0.826353 0.457198 0.084568
O10   O     O_2   0.130956 0.778968 0.462003 -0.553629
O11   O     O_3   0.934100 0.595363 0.265165 -0.607105
C29   C     C_3   0.996318 0.606353 0.163391 -0.300860
H9    H     H_    0.051908 0.663051 0.197782 0.178968
H10   H     H_    0.967875 0.655402 0.075109 0.192702
H11   H     H_    0.017236 0.512096 0.128302 0.157571
O12   O     O_3   0.065913 0.404656 0.734862 -0.607107
C30   C     C_3   0.003668 0.393460 0.836571 -0.300909
H12   H     H_    0.032200 0.344678 0.924970 0.192600
H13   H     H_    0.948240 0.336393 0.802171 0.178989
H14   H     H_    0.982480 0.487651 0.871510 0.157525
C31   C     C_2   0.355464 0.124969 0.375487 0.469830
H15   H     H_    0.346040 0.225193 0.388738 0.071751
O13   O     O_2   0.302489 0.065755 0.310702 -0.552165
C32   C     C_2   0.644398 0.875030 0.624830 0.471079
H16   H     H_    0.654079 0.774945 0.610907 0.070800
O14   O     O_2   0.696977 0.934072 0.690668 -0.551916
O15   O     O_3   0.612385 0.648830 0.856068 -0.584173
C33   C     C_3   0.697387 0.618849 0.888448 -0.268002
H17   H     H_    0.739442 0.661432 0.810695 0.195131
H18   H     H_    0.708924 0.515422 0.886978 0.156057
H19   H     H_    0.715989 0.659617 0.987952 0.169409
O16   O     O_3   0.387629 0.351209 0.144096 -0.584482
C34   C     C_3   0.302579 0.379853 0.110514 -0.268835
H20   H     H_    0.284404 0.336893 0.011874 0.170236
H21   H     H_    0.290596 0.483187 0.109491 0.155492
H22   H     H_    0.260500 0.338459 0.188967 0.195123

loop_
_geom_bond_atom_site_label_1
_geom_bond_atom_site_label_2
_ccdc_geom_bond_type
C19   O12   S    
C16   H2    S    
C34   H20   S    
C27   H7    S    
C17   C23   T    
C18   C24   T    
C14   C21   S    
C19   C21   S    
C20   O11   S    
C16   C19   S    
C30   H13   S    
C6    C25   A    
O12   C30   S    
C31   O13   D    
C3    H3    S    
C26   C32   S    
C12   O8    A    
C33   H17   S    
O1    Zn1   S    
C29   H11   S    
C1    O3    A    
C28   O10   D    
C9    N1    A    
C34   H21   S    
C29   H10   S    
C27   O9    D    
C15   C20   S    
C7    H5    S    
C13   C19   S    
O15   C33   S    
C8    H6    S    
C14   C20   S    
C3    C25   A    
N2    Zn2   S    
C4    C6    A    
C30   H14   S    
O5    Zn1   S    
O11   C29   S    
N1    Zn1   S    
C12   O6    A    
C9    O15   S    
C2    O4    A    
C15   H1    S    
C15   C21   S    
C10   N2    A    
C25   C31   S    
C11   O5    A    
C8    C10   A    
C28   H8    S    
C20   C22   S    
C13   C15   S    
C34   H22   S    
C14   C16   S    
O2    Zn2   S    
C2    C5    S    
O8    Zn1   S    
C29   H9    S    
C1    O1    A    
C7    N2    A    
C2    O2    A    
C7    C9    A    
C11   C17   S    
C16   C22   S    
O16   C34   S    
C3    C5    A    
C4    C26   A    
C32   H16   S    
O3    Zn2   S    
C21   C23   S    
O4    Zn1   S    
C13   C27   S    
C30   H12   S    
C33   H19   S    
O7    Zn2   S    
C13   C22   S    
C11   O7    A    
C22   C24   S    
C8    N1    A    
C31   H15   S    
C5    C26   A    
O6    Zn2   S    
C33   H18   S    
C12   C18   S    
C1    C6    S    
C14   C28   S    
C4    H4    S    
C32   O14   D    
C10   O16   S    
