data_mof_unit_67113.cif
_audit_creation_date              2013-03-05T15:58:40-0500
_audit_creation_method            fapswitch 2.2
_symmetry_space_group_name_H-M    P1
_symmetry_Int_Tables_number       1
_space_group_crystal_system       triclinic
_cell_length_a                    8.235808
_cell_length_b                    12.890118
_cell_length_c                    14.948196
_cell_angle_alpha                 97.76092
_cell_angle_beta                  96.949393
_cell_angle_gamma                 99.512418
_cell_volume                      1533.9860612

loop_
_atom_site_label
_atom_site_type_symbol
_atom_site_description
_atom_site_fract_x
_atom_site_fract_y
_atom_site_fract_z
_atom_type_partial_charge
P1    P     P_3+3 0.998770 0.403620 0.291990 0.564802
O1    O     O_2   0.827930 0.435360 0.277760 -0.265970
O2    O     O_3   0.100310 0.439010 0.391180 -0.345628
O3    O     O_3   0.625610 0.634200 0.333270 -0.344643
O4    O     O_2   0.713755 0.557358 0.177782 -0.337771
O5    O     O_3   0.916135 0.267682 0.265963 -0.587718
O6    O     O_3   0.661296 0.752687 0.199868 -0.479030
H1    H     H_    0.489753 0.791028 0.285519 0.046988
C1    C     C_3   0.619899 0.928708 0.246443 -0.814383
H2    H     H_    0.736599 0.939138 0.294746 0.317660
H3    H     H_    0.644146 0.957849 0.182224 0.260711
P2    P     P_3+3 0.687370 0.751000 0.571300 0.482168
P3    P     P_3+3 0.106699 0.827396 0.376552 0.567442
O7    O     O_2   0.857120 0.766320 0.543890 -0.293131
O8    O     O_3   0.056570 0.691100 0.379020 -0.337806
O9    O     O_2   0.995639 0.879117 0.438865 -0.276341
O10   O     O_3   0.728168 0.792636 0.689504 -0.606604
O11   O     O_3   0.030419 0.851800 0.267444 -0.503747
C2    C     C_3   0.103956 0.797359 0.199274 0.495311
H4    H     H_    0.217195 0.771600 0.228980 -0.148484
C3    C     C_3   0.157633 0.871526 0.130636 -0.164664
H5    H     H_    0.249650 0.940177 0.168995 0.090386
C4    C     C_3   0.338227 0.790914 0.698954 0.806918
H6    H     H_    0.427062 0.742570 0.674147 0.041302
C5    C     C_3   0.437170 0.887939 0.764793 -0.992511
H7    H     H_    0.500652 0.862656 0.825544 0.237222
H8    H     H_    0.532034 0.931716 0.730056 0.229203
H9    H     H_    0.353563 0.941796 0.788759 0.287963
Ba1   Ba    Ba6+2 0.843760 0.550230 0.455610 1.707834
C6    C     C_3   0.022500 0.207191 0.303861 0.760832
H10   H     H_    0.151361 0.250377 0.318966 0.026319
C7    C     C_3   0.011007 0.107165 0.234805 -0.914795
H11   H     H_    0.880129 0.068168 0.215545 0.290456
H12   H     H_    0.084638 0.051702 0.263661 0.249149
H13   H     H_    0.057139 0.128712 0.171700 0.239030
C8    C     C_3   0.788198 0.717623 0.737386 0.286911
H14   H     H_    0.912603 0.709026 0.720304 0.131709
H15   H     H_    0.702487 0.639158 0.721155 0.103745
C9    C     C_3   0.799072 0.762069 0.839305 -0.570022
H16   H     H_    0.843650 0.849785 0.850993 0.268627
H17   H     H_    0.672988 0.746932 0.859433 0.183938
P4    P     P_3+3 0.190950 0.596470 0.708020 0.459896
O12   O     O_2   0.361790 0.564680 0.722290 -0.401361
O13   O     O_3   0.089410 0.561080 0.608830 -0.342739
O14   O     O_3   0.564100 0.365890 0.666740 -0.388658
O15   O     O_3   0.225316 0.734554 0.745339 -0.641338
P5    P     P_3+3 0.088092 0.173536 0.630410 0.567717
O16   O     O_3   0.601940 0.368260 0.453780 -0.286181
O17   O     O_3   0.133140 0.308990 0.620990 -0.347948
O18   O     O_2   0.193198 0.118124 0.566553 -0.297699
O19   O     O_3   0.169189 0.155617 0.739748 -0.502921
Ba2   Ba    Ba6+2 0.346080 0.449860 0.544400 1.668731
P6    P     P_3+3 0.589128 0.622838 0.215969 0.538466
C10   C     C_3   0.542229 0.812549 0.224137 0.370580
H18   H     H_    0.444119 0.801026 0.164842 0.023197
H19   H     H_    0.532956 0.973896 0.278435 0.199136
O20   O     O_3   0.587770 0.631830 0.546230 -0.392056
C11   C     C_3   0.443144 0.207684 0.253008 0.894489
H20   H     H_    0.315138 0.173679 0.254200 -0.130397
C12   C     C_3   0.485477 0.154229 0.162837 -0.945824
H21   H     H_    0.458124 0.066961 0.157382 0.215377
H22   H     H_    0.408462 0.175054 0.103904 0.242105
H23   H     H_    0.619282 0.179547 0.157934 0.282519
P7    P     P_3+3 0.518079 0.231775 0.438056 0.531637
O21   O     O_2   0.332600 0.233710 0.456170 -0.384533
O22   O     O_3   0.541046 0.178184 0.325571 -0.616280
H24   H     H_    0.219642 0.827923 0.079467 0.073391
C13   C     C_3   0.124113 0.231998 0.803797 0.436235
H25   H     H_    0.199282 0.311803 0.803302 0.142528
H26   H     H_    0.989995 0.235646 0.789636 -0.002285
C14   C     C_3   0.157066 0.202317 0.898603 -0.877834
H27   H     H_    0.290938 0.200048 0.916919 0.284982
H28   H     H_    0.121289 0.261814 0.949791 0.213966
H29   H     H_    0.082517 0.122769 0.900380 0.277447
P8    P     P_3+3 0.604231 0.377628 0.785057 0.456217
C15   C     C_3   0.609483 0.176933 0.782926 0.445029
H30   H     H_    0.709947 0.204833 0.743932 0.001847
O23   O     O_2   0.499842 0.456149 0.825365 -0.394399
O24   O     O_3   0.523650 0.256082 0.816744 -0.495273
H31   H     H_    0.518836 0.114114 0.735702 0.128004
H32   H     H_    0.774386 0.191475 0.910381 0.260104
C16   C     C_3   0.684820 0.128928 0.862117 -0.994091
H33   H     H_    0.751847 0.065768 0.836149 0.239893
H34   H     H_    0.585357 0.093809 0.898970 0.282662
C17   C     C_R   0.367320 0.565033 0.167320 0.165802
H35   H     H_    0.312128 0.551669 0.302666 0.168591
C18   C     C_R   0.109998 0.465705 0.203290 0.237703
C19   C     C_R   0.921963 0.469765 0.763378 -0.516580
C20   C     C_R   0.825847 0.427360 0.824861 0.240016
C21   C     C_R   0.893851 0.430876 0.915869 -0.355834
C22   C     C_R   0.060397 0.481686 0.948909 0.045995
C23   C     C_R   0.152339 0.532818 0.886382 -0.022948
C24   C     C_R   0.134066 0.489985 0.043094 0.046973
C25   C     C_R   0.299985 0.549840 0.072677 -0.004675
C26   C     C_R   0.387170 0.597155 0.007515 -0.024558
C27   C     C_R   0.309609 0.593083 0.919180 -0.145057
C28   C     C_R   0.046247 0.443590 0.109587 -0.297606
C29   C     C_R   0.265093 0.531760 0.230550 -0.325378
C30   C     C_R   0.083202 0.525201 0.792516 0.225315
H36   H     H_    0.926861 0.391518 0.091011 0.160961
H37   H     H_    0.866481 0.466389 0.693409 0.173022
H38   H     H_    0.811568 0.397242 0.959534 0.171303
H39   H     H_    0.378889 0.638743 0.876430 0.163742
C31   C     C_R   0.757945 0.184288 0.567403 -0.371039
C32   C     C_R   0.429257 0.809606 0.457560 -0.393630
C33   C     C_R   0.389959 0.988085 0.441545 -0.204167
C34   C     C_R   0.329210 0.878912 0.425137 0.213342
C35   C     C_R   0.583489 0.848382 0.513060 0.232813
C36   C     C_R   0.644912 0.961118 0.531368 -0.050021
C37   C     C_R   0.546666 0.031386 0.494434 -0.017428
C38   C     C_R   0.606996 0.143542 0.511418 0.265513
C39   C     C_R   0.863457 0.116461 0.595017 0.223693
C40   C     C_R   0.804419 0.006029 0.581370 -0.177361
H40   H     H_    0.309408 0.038287 0.415090 0.164737
H41   H     H_    0.887972 0.956516 0.605864 0.210249
H42   H     H_    0.802866 0.269477 0.579537 0.163320
H43   H     H_    0.381122 0.724798 0.444941 0.162772
N1    N     N_R   0.970230 0.182692 0.388946 0.235188
O25   O     O_R   0.931675 0.085297 0.404051 -0.433041
O26   O     O_R   0.964362 0.261497 0.451438 -0.377697
N2    N     N_3   0.910541 0.715480 0.898521 -0.190189
H44   H     H_    0.862246 0.634624 0.892516 0.126554
H45   H     H_    0.027859 0.725429 0.877620 0.167829
N3    N     N_R   0.465578 0.323177 0.255426 0.216504
O27   O     O_R   0.513030 0.365491 0.186443 -0.414334
O28   O     O_R   0.401621 0.380111 0.315212 -0.441656
N4    N     N_3   0.990673 0.700705 0.152920 -0.140502
H46   H     H_    0.049982 0.664904 0.102856 0.028624
H47   H     H_    0.886428 0.719481 0.116821 0.213780
N5    N     N_3   0.556036 0.651952 0.028613 -0.168066
H48   H     H_    0.561723 0.729752 0.014659 0.134036
H49   H     H_    0.626991 0.613287 0.986160 0.141668
N6    N     N_R   0.023219 0.911822 0.080706 0.272716
O29   O     O_R   0.058118 0.969159 0.017916 -0.416623
O30   O     O_R   0.871971 0.896098 0.099568 -0.394044
N7    N     N_R   0.245382 0.822611 0.621668 0.191892
O31   O     O_R   0.164739 0.748338 0.557129 -0.366117
O32   O     O_R   0.223134 0.920203 0.621528 -0.403819

loop_
_geom_bond_atom_site_label_1
_geom_bond_atom_site_label_2
_geom_bond_distance
_ccdc_geom_bond_type
P1    C18   1.890982 S    
C24   C25   1.439181 A    
P2    Ba1   3.432067 S    
C2    H4    1.104150 S    
C15   O24   1.407739 S    
P3    C34   1.863369 S    
H32   C16   1.110053 S    
P5    O17   1.752429 S    
C5    H9    1.111285 S    
C32   C34   1.405527 A    
C4    N7    1.450263 S    
C33   H40   1.078310 S    
O1    Ba1   2.840145 S    
O4    P6    1.545886 D    
C8    H14   1.104735 S    
C2    C3    1.548262 S    
O11   C2    1.412208 S    
N3    O28   1.295864 A    
C6    H10   1.095432 S    
O3    P6    1.724779 S    
O12   Ba2   2.840560 S    
O16   P7    1.753522 S    
C33   C34   1.391117 A    
C11   C12   1.534746 S    
P5    C39   1.857961 S    
C23   C27   1.390103 A    
C35   C36   1.434800 A    
C12   H22   1.111465 S    
P1    O1    1.527628 D    
P4    O15   1.756852 S    
O2    Ba1   2.927107 S    
N1    O25   1.300020 A    
C21   H38   1.076847 S    
C17   C29   1.403152 A    
C14   H29   1.110092 S    
C37   C38   1.426294 A    
C11   O22   1.404411 S    
C26   C27   1.385815 A    
C13   H25   1.110948 S    
P2    O10   1.750313 S    
C26   N5    1.428835 S    
C4    H6    1.102287 S    
O10   C8    1.396774 S    
C1    H2    1.107386 S    
O3    Ba1   2.850635 S    
C36   C40   1.419049 A    
C18   C29   1.394087 A    
O13   Ba2   2.927937 S    
C4    O15   1.393586 S    
C31   H42   1.082253 S    
C3    H5    1.105603 S    
C3    H24   1.111321 S    
C32   H43   1.082027 S    
P4    O13   1.580209 S    
C3    N6    1.465313 S    
C39   C40   1.404691 A    
O8    Ba1   2.770371 S    
P5    O18   1.546231 D    
C32   C35   1.405251 A    
Ba1   O16   2.809719 S    
P1    O5    1.744305 S    
C7    H13   1.110827 S    
C15   H30   1.108452 S    
N7    O32   1.301114 A    
H1    C10   1.109379 S    
C9    H16   1.112501 S    
P2    C35   1.880271 S    
P7    C38   1.857467 S    
P5    O19   1.749139 S    
C6    N1    1.448710 S    
O14   Ba2   2.849978 S    
C5    H7    1.107065 S    
C12   H21   1.099909 S    
P1    O2    1.580208 S    
P7    O22   1.773892 S    
N5    H49   1.045552 S    
N4    H47   1.038607 S    
P4    Ba2   3.389931 S    
C22   C24   1.446678 A    
C17   C25   1.430665 A    
O17   Ba2   2.770985 S    
P1    Ba1   3.389384 S    
C1    H19   1.107330 S    
C1    H3    1.105209 S    
N2    H44   1.039999 S    
P2    O20   1.589535 S    
P3    O11   1.763420 S    
O5    C6    1.386095 S    
P2    O7    1.493512 D    
C16   H34   1.110595 S    
P3    O8    1.743519 S    
Ba1   O13   2.838492 S    
N6    O29   1.300854 A    
C12   H23   1.110583 S    
C27   H39   1.076634 S    
P4    O12   1.527949 D    
O6    P6    1.739917 S    
O7    Ba1   2.895330 S    
C15   C16   1.521891 S    
N4    H46   1.039848 S    
C24   C28   1.435346 A    
C22   C23   1.433203 A    
C28   H36   1.076965 S    
C31   C39   1.397028 A    
C33   C37   1.413537 A    
C10   H18   1.100928 S    
C8    C9    1.540002 S    
C19   H37   1.081707 S    
C15   H31   1.108888 S    
Ba1   O20   2.902654 S    
N7    O31   1.293736 A    
C31   C38   1.391199 A    
O2    Ba2   2.839093 S    
C5    H8    1.109063 S    
C11   N3    1.464464 S    
C9    N2    1.454687 S    
O14   P8    1.740669 S    
C7    H11   1.097329 S    
C8    H15   1.111941 S    
N5    H48   1.046302 S    
C11   H20   1.076000 S    
C14   H27   1.109592 S    
C36   C37   1.431476 A    
P7    O21   1.586901 D    
C6    C7    1.521026 S    
C21   C22   1.416349 A    
C13   C14   1.521878 S    
C2    N4    1.459117 S    
O19   C13   1.405723 S    
C4    C5    1.527560 S    
C25   C26   1.421724 A    
H35   C29   1.081377 S    
P8    O23   1.541057 D    
N1    O26   1.295257 A    
N2    H45   1.044286 S    
C19   C30   1.387841 A    
Ba2   O20   2.809108 S    
P8    C20   1.828596 S    
O16   Ba2   2.901752 S    
C19   C20   1.392396 A    
C9    H17   1.109674 S    
C13   H26   1.109220 S    
C16   H33   1.110528 S    
P3    O9    1.545542 D    
C14   H28   1.109617 S    
N6    O30   1.299691 A    
P6    C17   1.871742 S    
C1    C10   1.503084 S    
O6    C10   1.396133 S    
C18   C28   1.408408 A    
C20   C21   1.398939 A    
P4    C30   1.881987 S    
P8    O24   1.747079 S    
Ba2   O21   2.895611 S    
C23   C30   1.433049 A    
C7    H12   1.108248 S    
N3    O27   1.300972 A    
C40   H41   1.078059 S    
Ba1   Ba2   4.501452 S    
