data_mof_unit_49649.cif
_audit_creation_date              2013-03-05T16:41:26-0500
_audit_creation_method            fapswitch 2.2
_symmetry_space_group_name_H-M    P1
_symmetry_Int_Tables_number       1
_space_group_crystal_system       triclinic
_cell_length_a                    10.808411
_cell_length_b                    10.708643
_cell_length_c                    9.94847
_cell_angle_alpha                 90.679865
_cell_angle_beta                  103.837463
_cell_angle_gamma                 91.874851
_cell_volume                      1117.2234926

loop_
_atom_site_label
_atom_site_type_symbol
_atom_site_description
_atom_site_fract_x
_atom_site_fract_y
_atom_site_fract_z
_atom_type_partial_charge
O1    O     O_R   0.500020 0.316790 0.614700 -0.614807
O2    O     O_R   0.500000 0.316760 0.385350 -0.571346
C1    C     C_R   0.510230 0.260829 0.500890 0.899798
O3    O     O_R   0.317820 0.500020 0.571850 -0.623659
O4    O     O_R   0.317800 0.499980 0.342510 -0.621734
C2    C     C_R   0.259570 0.501226 0.441663 0.922622
Zn1   Zn    Zn3+2 0.500010 0.500020 0.653140 1.004603
Zn2   Zn    Zn3+2 0.499990 0.499980 0.346860 1.021504
O5    O     O_R   0.500000 0.683240 0.614650 -0.594253
O6    O     O_R   0.499980 0.683210 0.385300 -0.602005
O7    O     O_R   0.682200 0.500020 0.657490 -0.590092
O8    O     O_R   0.682180 0.499980 0.428150 -0.612637
C3    C     C_R   0.499723 0.740058 0.500556 0.903130
C4    C     C_R   0.740581 0.499854 0.558153 0.932637
H1    H     H_    0.883873 0.437794 0.395638 0.214812
C5    C     C_2   0.122834 0.495038 0.406861 -0.289282
C6    C     C_2   0.064564 0.526155 0.504497 -0.090078
C7    C     C_2   0.877345 0.510579 0.591324 -0.312944
C8    C     C_2   0.934685 0.485731 0.490908 -0.025992
H2    H     H_    0.071347 0.453278 0.308318 0.184152
C9    C     C_R   0.568949 0.067239 0.625746 0.062087
C10   C     C_R   0.538819 0.130614 0.501042 -0.197865
C11   C     C_R   0.528124 0.061445 0.375578 -0.048466
C12   C     C_R   0.507823 0.933380 0.377490 -0.237222
C13   C     C_R   0.513754 0.872831 0.502719 -0.137599
C14   C     C_R   0.556049 0.939749 0.626773 0.200256
C15   C     C_3   0.510436 0.941785 0.757708 -0.482744
C16   C     C_3   0.531249 0.083431 0.759477 -0.288660
H3    H     H_    0.408195 0.911838 0.739886 0.195120
H4    H     H_    0.442281 0.134903 0.749123 0.200878
C17   C     C_R   0.412033 0.429099 0.047904 0.224164
N1    N     N_R   0.499160 0.499140 0.142600 -0.151846
C18   C     C_R   0.595773 0.559425 0.097051 -0.063089
C19   C     C_R   0.597491 0.556412 0.953649 -0.066670
N2    N     N_R   0.499160 0.499180 0.856960 -0.144221
C20   C     C_R   0.412927 0.427426 0.906313 0.186227
C21   C     C_3   0.270662 0.429262 0.862739 -0.378208
C22   C     C_3   0.270404 0.439936 0.016754 -0.374354
H5    H     H_    0.243530 0.534107 0.045942 0.153063
C23   C     C_2   0.642354 0.134718 0.871189 1.004224
O9    O     O_2   0.741986 0.078989 0.902165 -0.581670
O10   O     O_R   0.631929 0.248628 0.936429 -0.796136
H6    H     H_    0.713040 0.275605 0.006877 0.376169
C24   C     C_2   0.694781 0.636165 0.193447 0.980052
O11   O     O_2   0.804463 0.601995 0.224183 -0.622770
O12   O     O_R   0.665895 0.753152 0.238006 -0.809031
H7    H     H_    0.742428 0.798323 0.300836 0.343669
C25   C     C_2   0.708103 0.612557 0.910849 0.985360
O13   O     O_2   0.696535 0.705682 0.840217 -0.631981
O14   O     O_R   0.827085 0.559148 0.953780 -0.746845
H8    H     H_    0.896623 0.607311 0.921576 0.340818
H9    H     H_    0.236621 0.514742 0.805732 0.155516
C26   C     C_2   0.214158 0.308362 0.789525 1.021041
O15   O     O_2   0.131219 0.311246 0.682244 -0.616753
O16   O     O_R   0.255193 0.193325 0.845159 -0.812272
H10   H     H_    0.209379 0.119749 0.786945 0.345342
C27   C     C_2   0.199756 0.337205 0.073796 1.034350
O17   O     O_2   0.257407 0.263266 0.156553 -0.579591
O18   O     O_R   0.066685 0.329213 0.032846 -0.771540
H11   H     H_    0.028956 0.257847 0.078033 0.358223
H12   H     H_    0.115600 0.573981 0.599470 0.155051
H13   H     H_    0.929103 0.550550 0.690568 0.156908
C28   C     C_2   0.533533 0.115529 0.240525 1.020668
O19   O     O_2   0.619011 0.190978 0.233317 -0.610116
O20   O     O_R   0.444833 0.074320 0.120394 -0.763059
H14   H     H_    0.457857 0.117656 0.034751 0.371904
H15   H     H_    0.485770 0.881544 0.280024 0.239711
H16   H     H_    0.574324 0.894987 0.844976 0.267473

loop_
_geom_bond_atom_site_label_1
_geom_bond_atom_site_label_2
_geom_bond_distance
_ccdc_geom_bond_type
O4    Zn2   1.959285 S    
Zn1   O7    1.959284 S    
C9    C14   1.368203 A    
C28   O20   1.397816 S    
C23   O9    1.224103 D    
C21   C22   1.535792 S    
C15   H3    1.112284 S    
C22   C27   1.510791 S    
C4    C7    1.435908 S    
N2    C20   1.371559 A    
C17   C22   1.496117 S    
Zn2   O8    1.941636 S    
C5    H2    1.087716 S    
C21   C26   1.514194 S    
N1    C18   1.379020 A    
O16   H10   1.013834 S    
C16   H4    1.108038 S    
O14   H8    1.013556 S    
C14   C15   1.499178 S    
O18   H11   1.013839 S    
O1    Zn1   1.994613 S    
C26   O15   1.220082 D    
C24   O11   1.220833 D    
H1    C8    1.088330 S    
C3    C13   1.424295 S    
C27   O17   1.222859 D    
C22   H5    1.112748 S    
O3    Zn1   1.941635 S    
C25   O14   1.398047 S    
C20   C21   1.495342 S    
C6    C8    1.429820 S    
C9    C16   1.491503 S    
O8    C4    1.296430 A    
C18   C19   1.431182 A    
O2    C1    1.285327 A    
C26   O16   1.398256 S    
O4    C2    1.290937 A    
C19   N2    1.372885 A    
O7    C4    1.293497 A    
O2    Zn2   2.003508 S    
C11   C28   1.482516 S    
C27   O18   1.397423 S    
C19   C25   1.474670 S    
O10   H6    1.013870 S    
C16   C23   1.510896 S    
C11   C12   1.382821 A    
C2    C5    1.434126 S    
C28   O19   1.222992 D    
Zn2   N1    2.029858 S    
C7    C8    1.324195 D    
C12   C13   1.400120 A    
O3    C2    1.298031 A    
O20   H14   1.011723 S    
O12   H7    1.014028 S    
C15   C16   1.525404 S    
Zn1   O5    2.003506 S    
C21   H9    1.108813 S    
O5    C3    1.293624 A    
C17   C20   1.410862 A    
C25   O13   1.219280 D    
C1    C10   1.438028 S    
C15   H16   1.108117 S    
C12   H15   1.083114 S    
C6    H12   1.086287 S    
C13   C14   1.390444 A    
C9    C10   1.395333 A    
C18   C24   1.474110 S    
Zn1   N2    2.030040 S    
Zn2   O6    1.994612 S    
C7    H13   1.086778 S    
C10   C11   1.422458 A    
C17   N1    1.359976 A    
C5    C6    1.322819 D    
C24   O12   1.393574 S    
C23   O10   1.395386 S    
O1    C1    1.304318 A    
O6    C3    1.292447 A    
