data_mof_unit_55293.cif
_audit_creation_date              2012-12-10T17:18:35-0500
_audit_creation_method            fapswitch 2.2
_symmetry_space_group_name_H-M    P1
_symmetry_Int_Tables_number       1
_space_group_crystal_system       triclinic
_cell_length_a                    26.171288
_cell_length_b                    26.170885
_cell_length_c                    26.157547
_cell_angle_alpha                 90.502023
_cell_angle_beta                  90.493876
_cell_angle_gamma                 90.507433
_cell_volume                      17913.910006

loop_
_atom_site_label
_atom_site_type_symbol
_atom_type_description
_atom_site_fract_x
_atom_site_fract_y
_atom_site_fract_z
_atom_type_partial_charge
C1    C     C_R   0.749678 0.610118 0.749450 0.838368
C2    C     C_R   0.390326 0.749086 0.751417 0.837184
C3    C     C_R   0.160864 0.043513 0.711823 -0.026784
C4    C     C_R   0.759017 0.345812 0.050430 -0.010261
C5    C     C_R   0.165139 0.700776 0.953666 -0.049058
C6    C     C_R   0.787126 0.046933 0.661358 -0.034212
C7    C     C_R   0.162470 0.952719 0.289030 -0.043375
C8    C     C_R   0.345905 0.050387 0.757887 -0.012220
C9    C     C_R   0.699567 0.954570 0.166134 -0.049029
C10   C     C_R   0.046934 0.661122 0.786620 -0.034147
C11   C     C_R   0.952769 0.288858 0.162335 -0.039205
C12   C     C_R   0.662470 0.952719 0.789030 -0.043375
C13   C     C_R   0.610005 0.749901 0.249600 0.862181
C14   C     C_R   0.287127 0.046933 0.161358 -0.034212
C15   C     C_R   0.960643 0.312007 0.825887 -0.014033
C16   C     C_R   0.043345 0.710698 0.161373 -0.047763
C17   C     C_R   0.660864 0.043513 0.211823 -0.026784
C18   C     C_R   0.325839 0.960158 0.811031 -0.054002
C19   C     C_R   0.953931 0.666000 0.199857 -0.047512
C20   C     C_R   0.050304 0.257573 0.845743 -0.005870
C21   C     C_R   0.331649 0.957299 0.198200 -0.041119
C22   C     C_R   0.702801 0.042150 0.833838 -0.046478
C23   C     C_R   0.042112 0.333770 0.202735 -0.043910
C24   C     C_R   0.389981 0.249378 0.749761 0.855305
C25   C     C_R   0.957205 0.697582 0.831291 -0.041217
C26   C     C_R   0.543345 0.210698 0.161373 -0.047763
C27   C     C_R   0.460643 0.812007 0.825887 -0.014032
C28   C     C_R   0.165139 0.200776 0.453666 -0.049059
C29   C     C_R   0.759017 0.845812 0.550430 -0.010261
C30   C     C_R   0.457205 0.197582 0.831291 -0.041217
C31   C     C_R   0.542112 0.833770 0.202735 -0.043911
C32   C     C_R   0.833682 0.202039 0.541930 -0.048041
C33   C     C_R   0.200078 0.832530 0.457709 -0.018306
C34   C     C_R   0.550304 0.757573 0.845743 -0.005870
C35   C     C_R   0.610090 0.749615 0.749462 0.875732
C36   C     C_R   0.453931 0.166000 0.199857 -0.047512
C37   C     C_R   0.161163 0.786982 0.546311 -0.006707
C38   C     C_R   0.788434 0.161993 0.452542 -0.042978
C39   C     C_R   0.452769 0.788858 0.162335 -0.039205
C40   C     C_R   0.546934 0.161122 0.786620 -0.034147
C41   C     C_R   0.812267 0.824781 0.460416 -0.039066
C42   C     C_R   0.209253 0.162000 0.543251 -0.049799
C43   C     C_R   0.202801 0.542150 0.833838 -0.046478
C44   C     C_R   0.831649 0.457299 0.198200 -0.041118
C45   C     C_R   0.199567 0.454570 0.166134 -0.049029
C46   C     C_R   0.390326 0.249086 0.251417 0.837184
C47   C     C_R   0.845905 0.550387 0.757887 -0.012220
C48   C     C_R   0.825839 0.460158 0.811031 -0.054002
C49   C     C_R   0.160864 0.543513 0.211823 -0.026784
C50   C     C_R   0.787127 0.546933 0.161358 -0.034212
C51   C     C_R   0.162471 0.452719 0.789030 -0.043376
C52   C     C_R   0.519310 0.670084 0.634741 0.352042
C53   C     C_R   0.485209 0.315894 0.374056 0.379717
C54   C     C_R   0.643029 0.658263 0.477755 0.346370
C55   C     C_R   0.285989 0.385041 0.526093 0.337236
C56   C     C_R   0.482489 0.655175 0.352204 0.350296
C57   C     C_R   0.610005 0.249901 0.749599 0.862181
C58   C     C_R   0.514941 0.357706 0.662801 0.348168
C59   C     C_R   0.357518 0.662257 0.514423 0.346344
C60   C     C_R   0.657730 0.353580 0.482690 0.371129
C61   C     C_R   0.525938 0.283520 0.385619 0.307411
C62   C     C_R   0.478059 0.644346 0.657112 0.348391
C63   C     C_R   0.635921 0.328323 0.524235 0.403160
C64   C     C_R   0.331194 0.637945 0.473898 0.348664
C65   C     C_R   0.474355 0.331599 0.638395 0.355072
C66   C     C_R   0.524652 0.634479 0.327119 0.387348
C67   C     C_R   0.317978 0.372784 0.485221 0.334581
C68   C     C_R   0.389981 0.749378 0.249761 0.855305
C69   C     C_R   0.668395 0.635774 0.519178 0.351638
C70   C     C_R   0.662933 0.514972 0.357851 0.354994
C71   C     C_R   0.352981 0.482762 0.656073 0.350688
C72   C     C_R   0.657301 0.479328 0.644301 0.322789
C73   C     C_R   0.385706 0.525733 0.283736 0.327570
C74   C     C_R   0.374118 0.484549 0.315580 0.355660
C75   C     C_R   0.635003 0.520452 0.670326 0.394627
C76   C     C_R   0.327960 0.524836 0.635112 0.386813
C77   C     C_R   0.638632 0.474223 0.331879 0.355440
C78   C     C_R   0.019310 0.170084 0.634741 0.352042
C79   C     C_R   0.249346 0.749655 0.389957 0.817970
C80   C     C_R   0.985209 0.815894 0.374056 0.379717
C81   C     C_R   0.643029 0.158263 0.977755 0.346370
C82   C     C_R   0.285989 0.885041 0.026093 0.337236
C83   C     C_R   0.982489 0.155175 0.352204 0.350297
C84   C     C_R   0.014941 0.857706 0.662801 0.348168
C85   C     C_R   0.357518 0.162257 0.014422 0.346343
C86   C     C_R   0.657730 0.853580 0.982690 0.371129
C87   C     C_R   0.025938 0.783520 0.385619 0.307411
C88   C     C_R   0.978059 0.144345 0.657112 0.348391
C89   C     C_R   0.635921 0.828323 0.024235 0.403160
C90   C     C_R   0.750050 0.249691 0.610002 0.824496
C91   C     C_R   0.331194 0.137945 0.973898 0.348664
C92   C     C_R   0.974355 0.831598 0.638395 0.355071
C93   C     C_R   0.024651 0.134479 0.327119 0.387349
C94   C     C_R   0.317978 0.872784 0.985221 0.334581
C95   C     C_R   0.668395 0.135774 0.019178 0.351637
C96   C     C_R   0.157730 0.353580 0.982690 0.371129
C97   C     C_R   0.857518 0.662257 0.014422 0.346344
C98   C     C_R   0.162934 0.014972 0.357851 0.354994
C99   C     C_R   0.852981 0.982762 0.656073 0.350688
C100  C     C_R   0.168395 0.635774 0.019178 0.351637
C101  C     C_R   0.749047 0.751396 0.390313 0.862689
C102  C     C_R   0.817978 0.372784 0.985221 0.334581
C103  C     C_R   0.157301 0.979328 0.644301 0.322788
C104  C     C_R   0.885706 0.025733 0.283736 0.327570
C105  C     C_R   0.831194 0.637945 0.973898 0.348663
C106  C     C_R   0.135921 0.328323 0.024235 0.403160
C107  C     C_R   0.874118 0.984549 0.315580 0.355660
C108  C     C_R   0.135003 0.020452 0.670326 0.394628
C109  C     C_R   0.785989 0.385041 0.026093 0.337237
C110  C     C_R   0.143029 0.658263 0.977755 0.346370
C111  C     C_R   0.827960 0.024836 0.635112 0.386813
C112  C     C_R   0.251366 0.390333 0.249072 0.858102
C113  C     C_R   0.249500 0.249559 0.610079 0.881060
C114  C     C_R   0.138632 0.974223 0.331879 0.355441
C115  C     C_R   0.385706 0.025733 0.783736 0.327571
C116  C     C_R   0.657301 0.979328 0.144301 0.322788
C117  C     C_R   0.024651 0.634479 0.827119 0.387350
C118  C     C_R   0.974355 0.331599 0.138395 0.355071
C119  C     C_R   0.638632 0.974223 0.831879 0.355441
C120  C     C_R   0.327960 0.024836 0.135112 0.386813
C121  C     C_R   0.985209 0.315894 0.874056 0.379717
C122  C     C_R   0.019310 0.670084 0.134741 0.352043
C123  C     C_R   0.635003 0.020452 0.170326 0.394628
C124  C     C_R   0.749346 0.249655 0.389957 0.817970
C125  C     C_R   0.374118 0.984549 0.815580 0.355659
C126  C     C_R   0.978059 0.644346 0.157112 0.348390
C127  C     C_R   0.025938 0.283520 0.885619 0.307411
C128  C     C_R   0.352981 0.982762 0.156073 0.350689
C129  C     C_R   0.662934 0.014972 0.857851 0.354994
C130  C     C_R   0.014941 0.357705 0.162801 0.348167
C131  C     C_R   0.982489 0.655175 0.852204 0.350296
C132  C     C_R   0.519310 0.170084 0.134741 0.352043
C133  C     C_R   0.485209 0.815894 0.874056 0.379717
C134  C     C_R   0.143029 0.158263 0.477755 0.346371
C135  C     C_R   0.250050 0.749691 0.610002 0.824496
C136  C     C_R   0.785989 0.885041 0.526093 0.337236
C137  C     C_R   0.482489 0.155175 0.852204 0.350296
C138  C     C_R   0.514941 0.857706 0.162801 0.348168
C139  C     C_R   0.857518 0.162257 0.514423 0.346344
C140  C     C_R   0.157730 0.853580 0.482690 0.371129
C141  C     C_R   0.525938 0.783520 0.885619 0.307411
C142  C     C_R   0.478059 0.144346 0.157112 0.348390
C143  C     C_R   0.135921 0.828323 0.524235 0.403160
C144  C     C_R   0.831194 0.137945 0.473898 0.348664
C145  C     C_R   0.474355 0.831598 0.138395 0.355071
C146  C     C_R   0.249047 0.251396 0.390313 0.862689
C147  C     C_R   0.524652 0.134479 0.827119 0.387349
C148  C     C_R   0.817978 0.872784 0.485221 0.334581
C149  C     C_R   0.168395 0.135774 0.519178 0.351637
C150  C     C_R   0.162934 0.514972 0.857851 0.354994
C151  C     C_R   0.852981 0.482762 0.156074 0.350688
C152  C     C_R   0.157302 0.479328 0.144300 0.322789
C153  C     C_R   0.885706 0.525733 0.783736 0.327571
C154  C     C_R   0.874118 0.484549 0.815580 0.355659
C155  C     C_R   0.135003 0.520452 0.170326 0.394627
C156  C     C_R   0.827960 0.524836 0.135112 0.386813
C157  C     C_R   0.749500 0.749559 0.610079 0.881060
C158  C     C_R   0.138632 0.474223 0.831879 0.355441
C159  C     C_R   0.473439 0.712493 0.720713 -0.008551
C160  C     C_R   0.528643 0.259546 0.296111 0.000009
C161  C     C_R   0.723814 0.710526 0.524536 -0.027082
C162  C     C_R   0.273501 0.291229 0.477222 -0.026188
C163  C     C_R   0.526358 0.708805 0.272367 -0.033731
C164  C     C_R   0.473490 0.272954 0.709673 -0.029208
C165  C     C_R   0.272806 0.709317 0.473416 -0.016738
C166  C     C_R   0.709101 0.272290 0.526185 -0.061249
C167  C     C_R   0.477352 0.273781 0.291266 -0.082077
C168  C     C_R   0.249678 0.110118 0.749450 0.838368
C169  C     C_R   0.524560 0.724804 0.710009 -0.028405
C170  C     C_R   0.719597 0.285177 0.475365 -0.042383
C171  C     C_R   0.285405 0.719655 0.524662 -0.011576
C172  C     C_R   0.524681 0.285483 0.720180 -0.019271
C173  C     C_R   0.475244 0.718409 0.284741 -0.017436
C174  C     C_R   0.259641 0.296222 0.528605 -0.025697
C175  C     C_R   0.711683 0.721303 0.473372 -0.023541
C176  C     C_R   0.709735 0.473490 0.273028 -0.027550
C177  C     C_R   0.272568 0.526345 0.708956 -0.034150
C178  C     C_R   0.709644 0.524602 0.725743 -0.074683
C179  C     C_R   0.751366 0.890333 0.249072 0.858102
C180  C     C_R   0.291498 0.477205 0.273148 -0.031164
C181  C     C_R   0.296283 0.528616 0.259359 -0.007044
C182  C     C_R   0.720323 0.473606 0.712874 -0.004270
C183  C     C_R   0.284918 0.475252 0.718653 -0.017202
C184  C     C_R   0.720223 0.524690 0.285541 -0.023892
C185  C     C_R   0.973440 0.212493 0.720713 -0.008551
C186  C     C_R   0.028643 0.759546 0.296111 0.000009
C187  C     C_R   0.723814 0.210526 0.024536 -0.027082
C188  C     C_R   0.273501 0.791229 0.977223 -0.026188
C189  C     C_R   0.026358 0.208805 0.272367 -0.033731
C190  C     C_R   0.749604 0.110005 0.749906 0.864833
C191  C     C_R   0.973490 0.772954 0.709673 -0.029208
C192  C     C_R   0.272806 0.209317 0.973416 -0.016738
C193  C     C_R   0.709101 0.772290 0.026186 -0.061249
C194  C     C_R   0.977352 0.773781 0.291265 -0.082077
C195  C     C_R   0.024560 0.224804 0.710009 -0.028405
C196  C     C_R   0.719597 0.785177 0.975365 -0.042383
C197  C     C_R   0.285405 0.219655 0.024662 -0.011576
C198  C     C_R   0.024681 0.785483 0.720180 -0.019271
C199  C     C_R   0.975244 0.218409 0.284741 -0.017437
C200  C     C_R   0.259641 0.796222 0.028605 -0.025697
C201  C     C_R   0.249785 0.889981 0.249405 0.852923
C202  C     C_R   0.711683 0.221303 0.973372 -0.023542
C203  C     C_R   0.209101 0.272290 0.026186 -0.061249
C204  C     C_R   0.772806 0.709317 0.973416 -0.016738
C205  C     C_R   0.209735 0.973490 0.273028 -0.027550
C206  C     C_R   0.772568 0.026345 0.708956 -0.034150
C207  C     C_R   0.211683 0.721303 0.973372 -0.023542
C208  C     C_R   0.759641 0.296222 0.028605 -0.025697
C209  C     C_R   0.209644 0.024602 0.725743 -0.074683
C210  C     C_R   0.791498 0.977205 0.273148 -0.031164
C211  C     C_R   0.785405 0.719655 0.024662 -0.011576
C212  C     C_R   0.749678 0.110118 0.249450 0.838368
C213  C     C_R   0.219598 0.285177 0.975365 -0.042383
C214  C     C_R   0.796283 0.028616 0.259359 -0.007044
C215  C     C_R   0.220323 0.973606 0.712874 -0.004271
C216  C     C_R   0.773501 0.291229 0.977223 -0.026188
C217  C     C_R   0.223814 0.710526 0.024536 -0.027082
C218  C     C_R   0.784918 0.975252 0.718653 -0.017202
C219  C     C_R   0.220223 0.024691 0.285541 -0.023892
C220  C     C_R   0.291499 0.977205 0.773148 -0.031164
C221  C     C_R   0.709644 0.024602 0.225743 -0.074683
C222  C     C_R   0.975244 0.718409 0.784741 -0.017437
C223  C     C_R   0.749604 0.610005 0.249906 0.864833
C224  C     C_R   0.251366 0.890333 0.749072 0.858102
C225  C     C_R   0.024681 0.285483 0.220180 -0.019272
C226  C     C_R   0.720223 0.024691 0.785541 -0.023892
C227  C     C_R   0.284918 0.975252 0.218653 -0.017202
C228  C     C_R   0.028643 0.259546 0.796111 0.000009
C229  C     C_R   0.973439 0.712493 0.220713 -0.008551
C230  C     C_R   0.720323 0.973605 0.212874 -0.004271
C231  C     C_R   0.296283 0.028616 0.759359 -0.007044
C232  C     C_R   0.024560 0.724804 0.210009 -0.028404
C233  C     C_R   0.977352 0.273781 0.791266 -0.082077
C234  C     C_R   0.272568 0.026345 0.208956 -0.034150
C235  C     C_R   0.249604 0.110005 0.249906 0.864833
C236  C     C_R   0.709735 0.973490 0.773028 -0.027550
C237  C     C_R   0.973490 0.272954 0.209673 -0.029208
C238  C     C_R   0.026358 0.708805 0.772367 -0.033731
C239  C     C_R   0.473439 0.212493 0.220713 -0.008551
C240  C     C_R   0.528643 0.759546 0.796111 0.000009
C241  C     C_R   0.223814 0.210526 0.524536 -0.027082
C242  C     C_R   0.773501 0.791229 0.477222 -0.026188
C243  C     C_R   0.526358 0.208806 0.772367 -0.033731
C244  C     C_R   0.473490 0.772954 0.209673 -0.029209
C245  C     C_R   0.772806 0.209317 0.473416 -0.016738
C246  C     C_R   0.749785 0.889981 0.749405 0.852923
C247  C     C_R   0.209101 0.772290 0.526185 -0.061249
C248  C     C_R   0.477352 0.773781 0.791265 -0.082077
C249  C     C_R   0.524560 0.224804 0.210009 -0.028405
C250  C     C_R   0.219598 0.785177 0.475365 -0.042383
C251  C     C_R   0.785405 0.219655 0.524662 -0.011576
C252  C     C_R   0.524681 0.785483 0.220180 -0.019271
C253  C     C_R   0.475244 0.218409 0.784741 -0.017437
C254  C     C_R   0.759641 0.796222 0.528605 -0.025698
C255  C     C_R   0.211683 0.221303 0.473372 -0.023541
C256  C     C_R   0.209735 0.473490 0.773028 -0.027550
C257  C     C_R   0.110091 0.249615 0.749462 0.875732
C258  C     C_R   0.772568 0.526345 0.208956 -0.034150
C259  C     C_R   0.209644 0.524602 0.225743 -0.074684
C260  C     C_R   0.791498 0.477205 0.773148 -0.031164
C261  C     C_R   0.796283 0.528616 0.759359 -0.007044
C262  C     C_R   0.220323 0.473606 0.212874 -0.004271
C263  C     C_R   0.784918 0.475252 0.218653 -0.017202
C264  C     C_R   0.220223 0.524690 0.785541 -0.023892
C265  C     C_R   0.446952 0.745939 0.754525 -0.089054
C266  C     C_R   0.554241 0.245711 0.250980 -0.061585
C267  C     C_R   0.745302 0.751247 0.554222 -0.065111
C268  C     C_R   0.890326 0.749086 0.251417 0.837184
C269  C     C_R   0.245552 0.254658 0.446907 -0.072098
C270  C     C_R   0.553667 0.748436 0.247422 -0.064014
C271  C     C_R   0.446251 0.246866 0.748378 -0.066477
C272  C     C_R   0.247201 0.748350 0.446236 -0.074264
C273  C     C_R   0.748529 0.247212 0.553649 -0.080477
C274  C     C_R   0.446952 0.245940 0.254525 -0.089054
C275  C     C_R   0.554241 0.745711 0.750980 -0.061585
C276  C     C_R   0.747201 0.248350 0.446236 -0.074264
C277  C     C_R   0.248529 0.747212 0.553649 -0.080477
C278  C     C_R   0.553667 0.248436 0.747422 -0.064014
C279  C     C_R   0.110005 0.249901 0.249600 0.862181
C280  C     C_R   0.446251 0.746866 0.248378 -0.066477
C281  C     C_R   0.245302 0.251247 0.554222 -0.065111
C282  C     C_R   0.745552 0.754658 0.446907 -0.072098
C283  C     C_R   0.748451 0.446252 0.246967 -0.063615
C284  C     C_R   0.247476 0.553666 0.748486 -0.066122
C285  C     C_R   0.751048 0.554272 0.745860 -0.073303
C286  C     C_R   0.254394 0.446973 0.245843 -0.069868
C287  C     C_R   0.251048 0.554272 0.245860 -0.073303
C288  C     C_R   0.754394 0.446973 0.745843 -0.069868
C289  C     C_R   0.248451 0.446252 0.746966 -0.063615
C290  C     C_R   0.889981 0.749378 0.749761 0.855305
C291  C     C_R   0.747476 0.553666 0.248486 -0.066122
C292  C     C_R   0.946952 0.245940 0.754525 -0.089054
C293  C     C_R   0.054241 0.745711 0.250980 -0.061585
C294  C     C_R   0.745302 0.251247 0.054222 -0.065111
C295  C     C_R   0.245552 0.754658 0.946907 -0.072098
C296  C     C_R   0.053667 0.248436 0.247422 -0.064013
C297  C     C_R   0.946251 0.746866 0.748378 -0.066477
C298  C     C_R   0.247201 0.248350 0.946236 -0.074264
C299  C     C_R   0.748529 0.747212 0.053649 -0.080477
C300  C     C_R   0.946952 0.745939 0.254525 -0.089054
C301  C     C_R   0.110090 0.749615 0.249462 0.875732
C302  C     C_R   0.054241 0.245711 0.750980 -0.061585
C303  C     C_R   0.747201 0.748350 0.946236 -0.074264
C304  C     C_R   0.248529 0.247212 0.053649 -0.080477
C305  C     C_R   0.053667 0.748436 0.747422 -0.064014
C306  C     C_R   0.946251 0.246866 0.248378 -0.066476
C307  C     C_R   0.245302 0.751247 0.054222 -0.065111
C308  C     C_R   0.745552 0.254658 0.946907 -0.072098
C309  C     C_R   0.248451 0.946252 0.246967 -0.063615
C310  C     C_R   0.747476 0.053666 0.748486 -0.066122
C311  C     C_R   0.251048 0.054272 0.745860 -0.073303
C312  C     C_R   0.890326 0.249086 0.751417 0.837184
C313  C     C_R   0.754394 0.946973 0.245843 -0.069868
C314  C     C_R   0.751048 0.054272 0.245860 -0.073303
C315  C     C_R   0.254394 0.946973 0.745843 -0.069868
C316  C     C_R   0.748451 0.946252 0.746966 -0.063615
C317  C     C_R   0.247476 0.053666 0.248486 -0.066122
C318  C     C_R   0.110005 0.749901 0.749599 0.862181
C319  C     C_R   0.249785 0.389981 0.749405 0.852923
C320  C     C_R   0.889981 0.249378 0.249761 0.855305
C321  C     C_R   0.249346 0.249655 0.889957 0.817970
C322  C     C_R   0.750050 0.749691 0.110002 0.824496
C323  C     C_R   0.249047 0.751396 0.890313 0.862688
C324  C     C_R   0.749500 0.249559 0.110079 0.881060
C325  C     C_R   0.749346 0.749655 0.889957 0.817970
C326  C     C_R   0.250050 0.249691 0.110002 0.824496
C327  C     C_R   0.749047 0.251396 0.890313 0.862688
C328  C     C_R   0.249500 0.749559 0.110079 0.881060
C329  C     C_R   0.543344 0.710698 0.661373 -0.047763
C330  C     C_R   0.249678 0.610118 0.249450 0.838368
C331  C     C_R   0.460644 0.312007 0.325887 -0.014032
C332  C     C_R   0.665139 0.700776 0.453666 -0.049059
C333  C     C_R   0.259016 0.345812 0.550430 -0.010261
C334  C     C_R   0.457205 0.697582 0.331291 -0.041217
C335  C     C_R   0.542112 0.333770 0.702735 -0.043911
C336  C     C_R   0.333682 0.702039 0.541930 -0.048041
C337  C     C_R   0.700078 0.332530 0.457709 -0.018306
C338  C     C_R   0.550304 0.257573 0.345743 -0.005870
C339  C     C_R   0.453931 0.666000 0.699857 -0.047512
C340  C     C_R   0.661163 0.286982 0.546311 -0.006707
C341  C     C_R   0.751366 0.390333 0.749072 0.858102
C342  C     C_R   0.288434 0.661993 0.452542 -0.042978
C343  C     C_R   0.452769 0.288858 0.662335 -0.039205
C344  C     C_R   0.546934 0.661122 0.286620 -0.034146
C345  C     C_R   0.312267 0.324781 0.460416 -0.039066
C346  C     C_R   0.709253 0.662000 0.543251 -0.049800
C347  C     C_R   0.702801 0.542150 0.333838 -0.046478
C348  C     C_R   0.331649 0.457299 0.698199 -0.041118
C349  C     C_R   0.699567 0.454570 0.666134 -0.049029
C350  C     C_R   0.345905 0.550387 0.257887 -0.012220
C351  C     C_R   0.325839 0.460158 0.311031 -0.054003
C352  C     C_R   0.249604 0.610005 0.749906 0.864833
C353  C     C_R   0.660864 0.543513 0.711823 -0.026784
C354  C     C_R   0.287127 0.546933 0.661358 -0.034212
C355  C     C_R   0.662470 0.452719 0.289030 -0.043375
C356  C     C_R   0.043344 0.210698 0.661373 -0.047762
C357  C     C_R   0.960643 0.812007 0.325887 -0.014032
C358  C     C_R   0.665139 0.200776 0.953666 -0.049058
C359  C     C_R   0.259017 0.845812 0.050430 -0.010261
C360  C     C_R   0.957206 0.197582 0.331291 -0.041217
C361  C     C_R   0.042112 0.833770 0.702735 -0.043911
C362  C     C_R   0.333682 0.202039 0.041930 -0.048042
C363  C     C_R   0.749785 0.389981 0.249405 0.852923
C364  C     C_R   0.700078 0.832530 0.957709 -0.018306
C365  C     C_R   0.050304 0.757573 0.345743 -0.005870
C366  C     C_R   0.953931 0.166000 0.699857 -0.047512
C367  C     C_R   0.661163 0.786982 0.046311 -0.006707
C368  C     C_R   0.288434 0.161993 0.952542 -0.042978
C369  C     C_R   0.952769 0.788858 0.662335 -0.039205
C370  C     C_R   0.046934 0.161122 0.286620 -0.034146
C371  C     C_R   0.312267 0.824781 0.960416 -0.039066
C372  C     C_R   0.709253 0.162000 0.043251 -0.049800
C373  C     C_R   0.200078 0.332530 0.957709 -0.018306
C374  C     C_R   0.610090 0.249615 0.249462 0.875732
C375  C     C_R   0.833682 0.702039 0.041930 -0.048041
C376  C     C_R   0.202801 0.042150 0.333838 -0.046478
C377  C     C_R   0.831649 0.957299 0.698199 -0.041119
C378  C     C_R   0.209252 0.662000 0.043251 -0.049799
C379  C     C_R   0.812267 0.324781 0.960416 -0.039066
C380  C     C_R   0.199567 0.954570 0.666134 -0.049029
C381  C     C_R   0.845905 0.050387 0.257887 -0.012220
C382  C     C_R   0.788434 0.661993 0.952542 -0.042978
C383  C     C_R   0.161163 0.286982 0.046311 -0.006707
C384  C     C_R   0.825839 0.960158 0.311031 -0.054003
Cl1   Cl    Cl    0.547733 0.776952 0.948880 -0.531925
Cl2   Cl    Cl    0.468662 0.863503 0.918457 -0.290066
Cl3   Cl    Cl    0.920239 0.144153 0.529575 -0.341879
Cl4   Cl    Cl    0.131215 0.910869 0.461094 -0.292496
Cl5   Cl    Cl    0.460217 0.126654 0.908358 -0.305469
Cl6   Cl    Cl    0.530736 0.920237 0.144514 -0.343820
Cl7   Cl    Cl    0.083429 0.134320 0.456574 -0.328041
Cl8   Cl    Cl    0.780217 0.948476 0.547334 -0.547433
Cl9   Cl    Cl    0.847897 0.550338 0.076579 -0.355554
Cl10  Cl    Cl    0.079771 0.449074 0.853176 -0.327037
Cl11  Cl    Cl    0.919357 0.465588 0.861475 -0.281620
Cl12  Cl    Cl    0.457422 0.084657 0.132958 -0.319737
Cl13  Cl    Cl    0.075889 0.544550 0.150121 -0.337330
Cl14  Cl    Cl    0.133088 0.458996 0.084504 -0.322085
Cl15  Cl    Cl    0.949041 0.546993 0.776782 -0.544925
Cl16  Cl    Cl    0.144392 0.531242 0.920204 -0.335672
Cl17  Cl    Cl    0.909599 0.460838 0.128242 -0.307114
Cl18  Cl    Cl    0.047733 0.276952 0.948880 -0.531925
Cl19  Cl    Cl    0.957422 0.584657 0.132958 -0.319737
Cl20  Cl    Cl    0.865645 0.416732 0.967557 -0.313122
Cl21  Cl    Cl    0.147357 0.576753 0.042891 -0.353722
Cl22  Cl    Cl    0.949579 0.352560 0.079249 -0.347397
Cl23  Cl    Cl    0.865645 0.916732 0.467556 -0.313122
Cl24  Cl    Cl    0.050096 0.575823 0.846673 -0.357105
Cl25  Cl    Cl    0.077210 0.348431 0.049137 -0.328016
Cl26  Cl    Cl    0.851920 0.578831 0.948885 -0.352406
Cl27  Cl    Cl    0.042929 0.649698 0.075432 -0.361265
Cl28  Cl    Cl    0.968662 0.363503 0.918457 -0.290065
Cl29  Cl    Cl    0.920239 0.644153 0.029575 -0.341878
Cl30  Cl    Cl    0.131215 0.410869 0.961094 -0.292496
Cl31  Cl    Cl    0.960217 0.626653 0.908358 -0.305469
Cl32  Cl    Cl    0.030736 0.420237 0.144514 -0.343820
Cl33  Cl    Cl    0.083429 0.634320 0.956574 -0.328041
Cl34  Cl    Cl    0.147357 0.076752 0.542891 -0.353723
Cl35  Cl    Cl    0.780217 0.448476 0.047334 -0.547432
Cl36  Cl    Cl    0.351920 0.078831 0.948885 -0.352406
Cl37  Cl    Cl    0.577210 0.848431 0.049137 -0.328016
Cl38  Cl    Cl    0.347897 0.050338 0.076579 -0.355554
Cl39  Cl    Cl    0.579771 0.949074 0.853176 -0.327037
Cl40  Cl    Cl    0.280217 0.948476 0.047334 -0.547433
Cl41  Cl    Cl    0.583429 0.134320 0.956574 -0.328041
Cl42  Cl    Cl    0.419357 0.965588 0.861475 -0.281619
Cl43  Cl    Cl    0.575889 0.044550 0.150121 -0.337330
Cl44  Cl    Cl    0.631215 0.910869 0.961094 -0.292496
Cl45  Cl    Cl    0.449579 0.852560 0.079249 -0.347397
Cl46  Cl    Cl    0.420239 0.144153 0.029575 -0.341878
Cl47  Cl    Cl    0.633088 0.958996 0.084504 -0.322085
Cl48  Cl    Cl    0.449041 0.046993 0.776782 -0.544924
Cl49  Cl    Cl    0.647357 0.076753 0.042891 -0.353722
Cl50  Cl    Cl    0.365645 0.916732 0.967557 -0.313121
Cl51  Cl    Cl    0.644392 0.031242 0.920204 -0.335672
Cl52  Cl    Cl    0.409598 0.960838 0.128242 -0.307114
Cl53  Cl    Cl    0.075889 0.044550 0.650121 -0.337330
Cl54  Cl    Cl    0.919357 0.965588 0.361475 -0.281619
Cl55  Cl    Cl    0.030736 0.920237 0.644514 -0.343820
Cl56  Cl    Cl    0.550096 0.075823 0.846673 -0.357105
Cl57  Cl    Cl    0.960217 0.126654 0.408358 -0.305469
Cl58  Cl    Cl    0.909598 0.960838 0.628242 -0.307113
Cl59  Cl    Cl    0.144392 0.031242 0.420204 -0.335671
Cl60  Cl    Cl    0.957422 0.084657 0.632958 -0.319738
Cl61  Cl    Cl    0.047733 0.776952 0.448880 -0.531925
Cl62  Cl    Cl    0.949041 0.046993 0.276782 -0.544924
Cl63  Cl    Cl    0.133088 0.958996 0.584504 -0.322085
Cl64  Cl    Cl    0.968662 0.863503 0.418457 -0.290066
Cl65  Cl    Cl    0.042929 0.149698 0.575433 -0.361264
Cl66  Cl    Cl    0.079771 0.949074 0.353176 -0.327037
Cl67  Cl    Cl    0.077210 0.848431 0.549137 -0.328016
Cl68  Cl    Cl    0.847897 0.050338 0.576579 -0.355554
Cl69  Cl    Cl    0.050096 0.075823 0.346673 -0.357105
Cl70  Cl    Cl    0.949579 0.852560 0.579249 -0.347397
Cl71  Cl    Cl    0.547733 0.276952 0.448880 -0.531925
Cl72  Cl    Cl    0.457422 0.584657 0.632958 -0.319737
Cl73  Cl    Cl    0.365645 0.416732 0.467556 -0.313122
Cl74  Cl    Cl    0.647357 0.576753 0.542891 -0.353723
Cl75  Cl    Cl    0.449579 0.352560 0.579249 -0.347397
Cl76  Cl    Cl    0.550096 0.575823 0.346673 -0.357104
Cl77  Cl    Cl    0.577210 0.348431 0.549137 -0.328016
Cl78  Cl    Cl    0.851920 0.078831 0.448885 -0.352406
Cl79  Cl    Cl    0.351921 0.578831 0.448885 -0.352406
Cl80  Cl    Cl    0.542929 0.649698 0.575433 -0.361264
Cl81  Cl    Cl    0.468662 0.363503 0.418457 -0.290066
Cl82  Cl    Cl    0.420239 0.644153 0.529575 -0.341879
Cl83  Cl    Cl    0.631215 0.410869 0.461094 -0.292496
Cl84  Cl    Cl    0.460217 0.626654 0.408358 -0.305469
Cl85  Cl    Cl    0.530736 0.420237 0.644514 -0.343820
Cl86  Cl    Cl    0.583429 0.634320 0.456574 -0.328040
Cl87  Cl    Cl    0.280216 0.448476 0.547334 -0.547433
Cl88  Cl    Cl    0.347897 0.550338 0.576579 -0.355555
Cl89  Cl    Cl    0.542929 0.149699 0.075432 -0.361265
Cl90  Cl    Cl    0.579771 0.449074 0.353176 -0.327037
Cl91  Cl    Cl    0.419357 0.465588 0.361475 -0.281619
Cl92  Cl    Cl    0.575889 0.544550 0.650121 -0.337330
Cl93  Cl    Cl    0.633088 0.458996 0.584504 -0.322086
Cl94  Cl    Cl    0.449041 0.546993 0.276782 -0.544924
Cl95  Cl    Cl    0.644392 0.531242 0.420204 -0.335671
Cl96  Cl    Cl    0.409598 0.460838 0.628242 -0.307113
H1    H     H_    0.566736 0.757136 0.604690 0.200879
H2    H     H_    0.391019 0.698226 0.371169 0.251878
H3    H     H_    0.128281 0.275817 0.115740 0.243408
H4    H     H_    0.804384 0.951898 0.384229 0.253848
H5    H     H_    0.833247 0.900372 0.358742 0.225951
H6    H     H_    0.154202 0.088096 0.776841 0.179294
H7    H     H_    0.128620 0.113321 0.722512 0.251277
H8    H     H_    0.698492 0.382464 0.080860 0.210328
H9    H     H_    0.748593 0.375435 0.121353 0.244458
H10   H     H_    0.103001 0.741370 0.932764 0.205311
H11   H     H_    0.125898 0.702672 0.886457 0.244842
H12   H     H_    0.739710 0.068056 0.604035 0.224826
H13   H     H_    0.564679 0.393920 0.746769 0.204424
H14   H     H_    0.779527 0.114824 0.625123 0.242798
H15   H     H_    0.103053 0.931340 0.243617 0.216702
H16   H     H_    0.125299 0.884609 0.281545 0.253816
H17   H     H_    0.381369 0.081370 0.696896 0.210531
H18   H     H_    0.375353 0.121366 0.747577 0.243930
H19   H     H_    0.739762 0.933917 0.103594 0.210036
H20   H     H_    0.700789 0.887715 0.126280 0.244619
H21   H     H_    0.068359 0.604252 0.738799 0.226656
H22   H     H_    0.114905 0.625074 0.779028 0.243214
H23   H     H_    0.931309 0.243363 0.102989 0.218397
H24   H     H_    0.608640 0.373966 0.704254 0.246818
H25   H     H_    0.884661 0.281432 0.125165 0.250347
H26   H     H_    0.603053 0.931340 0.743617 0.216702
H27   H     H_    0.625299 0.884609 0.781545 0.253816
H28   H     H_    0.239710 0.068055 0.104036 0.224826
H29   H     H_    0.279527 0.114824 0.125123 0.242797
H30   H     H_    0.926647 0.353306 0.768550 0.199538
H31   H     H_    0.896082 0.354086 0.825579 0.222814
H32   H     H_    0.066736 0.757136 0.104690 0.200879
H33   H     H_    0.111537 0.716013 0.125345 0.252001
H34   H     H_    0.654202 0.088096 0.276841 0.179294
H35   H     H_    0.393967 0.745806 0.564647 0.200112
H36   H     H_    0.628620 0.113321 0.222512 0.251277
H37   H     H_    0.304384 0.951898 0.884229 0.253847
H38   H     H_    0.333247 0.900372 0.858742 0.225951
H39   H     H_    0.933614 0.603421 0.240112 0.210014
H40   H     H_    0.887049 0.626233 0.201688 0.242607
H41   H     H_    0.080849 0.196316 0.881071 0.212858
H42   H     H_    0.121286 0.246615 0.874957 0.246049
H43   H     H_    0.394856 0.937401 0.238073 0.201820
H44   H     H_    0.371409 0.891075 0.198923 0.251427
H45   H     H_    0.746802 0.064818 0.893990 0.204885
H46   H     H_    0.373965 0.703093 0.608413 0.244841
H47   H     H_    0.704317 0.108747 0.873952 0.245242
H48   H     H_    0.064679 0.393920 0.246770 0.204423
H49   H     H_    0.108639 0.373966 0.204254 0.246817
H50   H     H_    0.937543 0.736926 0.894932 0.200558
H51   H     H_    0.891019 0.698226 0.871169 0.251878
H52   H     H_    0.566736 0.257136 0.104690 0.200879
H53   H     H_    0.611537 0.216013 0.125345 0.252001
H54   H     H_    0.426647 0.853306 0.768550 0.199538
H55   H     H_    0.396082 0.854086 0.825579 0.222814
H56   H     H_    0.103001 0.241370 0.432764 0.205311
H57   H     H_    0.764060 0.349595 0.415207 0.182993
H58   H     H_    0.125898 0.202672 0.386457 0.244841
H59   H     H_    0.698491 0.882463 0.580859 0.210328
H60   H     H_    0.748593 0.875435 0.621352 0.244458
H61   H     H_    0.437543 0.236926 0.894932 0.200557
H62   H     H_    0.391019 0.198226 0.871169 0.251878
H63   H     H_    0.564679 0.893920 0.246770 0.204424
H64   H     H_    0.608640 0.873966 0.204254 0.246818
H65   H     H_    0.893967 0.245806 0.564647 0.200112
H66   H     H_    0.873965 0.203093 0.608413 0.244841
H67   H     H_    0.264059 0.849595 0.415207 0.182993
H68   H     H_    0.707085 0.368953 0.389492 0.254565
H69   H     H_    0.207085 0.868953 0.389492 0.254565
H70   H     H_    0.580849 0.696316 0.881071 0.212858
H71   H     H_    0.621286 0.746615 0.874957 0.246049
H72   H     H_    0.433614 0.103421 0.240112 0.210014
H73   H     H_    0.387048 0.126233 0.201688 0.242607
H74   H     H_    0.153052 0.721674 0.589434 0.180511
H75   H     H_    0.128281 0.775817 0.615740 0.243408
H76   H     H_    0.742708 0.102888 0.430987 0.213058
H77   H     H_    0.780725 0.125096 0.384291 0.250676
H78   H     H_    0.431309 0.743363 0.102989 0.218397
H79   H     H_    0.580849 0.196316 0.381071 0.212858
H80   H     H_    0.384661 0.781432 0.125165 0.250347
H81   H     H_    0.568358 0.104252 0.738799 0.226656
H82   H     H_    0.614905 0.125074 0.779028 0.243214
H83   H     H_    0.884854 0.801625 0.451708 0.250540
H84   H     H_    0.860031 0.831619 0.400480 0.224687
H85   H     H_    0.255266 0.104809 0.566159 0.203438
H86   H     H_    0.214516 0.125599 0.611273 0.251437
H87   H     H_    0.246802 0.564818 0.893990 0.204885
H88   H     H_    0.204317 0.608747 0.873952 0.245242
H89   H     H_    0.894856 0.437401 0.238073 0.201819
H90   H     H_    0.621286 0.246615 0.374957 0.246049
H91   H     H_    0.871409 0.391075 0.198923 0.251427
H92   H     H_    0.239762 0.433917 0.103594 0.210035
H93   H     H_    0.200789 0.387715 0.126280 0.244619
H94   H     H_    0.881369 0.581370 0.696896 0.210530
H95   H     H_    0.875353 0.621366 0.747577 0.243930
H96   H     H_    0.804384 0.451898 0.884229 0.253847
H97   H     H_    0.833247 0.400372 0.858742 0.225951
H98   H     H_    0.154202 0.588096 0.276841 0.179294
H99   H     H_    0.128620 0.613321 0.222512 0.251277
H100  H     H_    0.739710 0.568055 0.104035 0.224826
H101  H     H_    0.433614 0.603421 0.740113 0.210014
H102  H     H_    0.779527 0.614824 0.125123 0.242797
H103  H     H_    0.103053 0.431340 0.743617 0.216702
H104  H     H_    0.125299 0.384609 0.781545 0.253816
H105  H     H_    0.611537 0.716013 0.625345 0.252001
H106  H     H_    0.387048 0.626233 0.701688 0.242607
H107  H     H_    0.653052 0.221674 0.589434 0.180511
H108  H     H_    0.628281 0.275817 0.615740 0.243408
H109  H     H_    0.242708 0.602888 0.430987 0.213058
H110  H     H_    0.280725 0.625096 0.384291 0.250676
H111  H     H_    0.431309 0.243363 0.602989 0.218397
H112  H     H_    0.384661 0.281432 0.625165 0.250347
H113  H     H_    0.568358 0.604252 0.238799 0.226656
H114  H     H_    0.614905 0.625074 0.279028 0.243214
H115  H     H_    0.384854 0.301625 0.451708 0.250540
H116  H     H_    0.426647 0.353306 0.268550 0.199538
H117  H     H_    0.360031 0.331619 0.400480 0.224687
H118  H     H_    0.755266 0.604809 0.566159 0.203438
H119  H     H_    0.714516 0.625598 0.611273 0.251436
H120  H     H_    0.746802 0.564818 0.393990 0.204886
H121  H     H_    0.704317 0.608747 0.373952 0.245242
H122  H     H_    0.394856 0.437401 0.738073 0.201819
H123  H     H_    0.371409 0.391075 0.698923 0.251427
H124  H     H_    0.739762 0.433917 0.603594 0.210036
H125  H     H_    0.700789 0.387715 0.626280 0.244619
H126  H     H_    0.381369 0.581370 0.196896 0.210530
H127  H     H_    0.396082 0.354085 0.325579 0.222814
H128  H     H_    0.375353 0.621366 0.247577 0.243930
H129  H     H_    0.304384 0.451898 0.384229 0.253848
H130  H     H_    0.333247 0.400372 0.358742 0.225951
H131  H     H_    0.654202 0.588096 0.776841 0.179294
H132  H     H_    0.628620 0.613321 0.722512 0.251277
H133  H     H_    0.239710 0.568056 0.604035 0.224826
H134  H     H_    0.279527 0.614824 0.625123 0.242797
H135  H     H_    0.603053 0.431340 0.243617 0.216702
H136  H     H_    0.625299 0.384609 0.281545 0.253816
H137  H     H_    0.066736 0.257136 0.604690 0.200879
H138  H     H_    0.603001 0.741370 0.432764 0.205311
H139  H     H_    0.111537 0.216013 0.625345 0.252001
H140  H     H_    0.926647 0.853306 0.268550 0.199538
H141  H     H_    0.896082 0.854086 0.325579 0.222814
H142  H     H_    0.603001 0.241370 0.932764 0.205311
H143  H     H_    0.625898 0.202672 0.886457 0.244841
H144  H     H_    0.198491 0.882463 0.080860 0.210328
H145  H     H_    0.248593 0.875435 0.121352 0.244458
H146  H     H_    0.937543 0.236926 0.394932 0.200558
H147  H     H_    0.891019 0.198226 0.371169 0.251878
H148  H     H_    0.064679 0.893920 0.746769 0.204424
H149  H     H_    0.625898 0.702672 0.386457 0.244841
H150  H     H_    0.108640 0.873966 0.704254 0.246818
H151  H     H_    0.393967 0.245806 0.064647 0.200112
H152  H     H_    0.373965 0.203093 0.108413 0.244842
H153  H     H_    0.764060 0.849595 0.915207 0.182993
H154  H     H_    0.707085 0.868953 0.889492 0.254565
H155  H     H_    0.080849 0.696316 0.381071 0.212858
H156  H     H_    0.121286 0.746615 0.374957 0.246049
H157  H     H_    0.933614 0.103421 0.740113 0.210014
H158  H     H_    0.887048 0.126233 0.701688 0.242607
H159  H     H_    0.653052 0.721674 0.089435 0.180511
H160  H     H_    0.198491 0.382463 0.580859 0.210328
H161  H     H_    0.628281 0.775817 0.115740 0.243408
H162  H     H_    0.242708 0.102888 0.930987 0.213057
H163  H     H_    0.280724 0.125096 0.884291 0.250676
H164  H     H_    0.931309 0.743363 0.602989 0.218397
H165  H     H_    0.884661 0.781432 0.625165 0.250347
H166  H     H_    0.068359 0.104252 0.238799 0.226655
H167  H     H_    0.114905 0.125074 0.279028 0.243214
H168  H     H_    0.384854 0.801625 0.951708 0.250540
H169  H     H_    0.360031 0.831619 0.900480 0.224687
H170  H     H_    0.755266 0.104809 0.066159 0.203438
H171  H     H_    0.248593 0.375435 0.621352 0.244458
H172  H     H_    0.714516 0.125599 0.111273 0.251437
H173  H     H_    0.264060 0.349595 0.915207 0.182993
H174  H     H_    0.207085 0.368953 0.889492 0.254565
H175  H     H_    0.893967 0.745806 0.064647 0.200112
H176  H     H_    0.873965 0.703093 0.108413 0.244841
H177  H     H_    0.246802 0.064818 0.393990 0.204885
H178  H     H_    0.204317 0.108747 0.373952 0.245242
H179  H     H_    0.894856 0.937401 0.738073 0.201820
H180  H     H_    0.871409 0.891075 0.698923 0.251427
H181  H     H_    0.255266 0.604809 0.066159 0.203438
H182  H     H_    0.437543 0.736926 0.394932 0.200558
H183  H     H_    0.214516 0.625598 0.111273 0.251436
H184  H     H_    0.884854 0.301625 0.951708 0.250540
H185  H     H_    0.860031 0.331619 0.900480 0.224687
H186  H     H_    0.239762 0.933917 0.603594 0.210036
H187  H     H_    0.200789 0.887715 0.626280 0.244619
H188  H     H_    0.881369 0.081370 0.196896 0.210531
H189  H     H_    0.875353 0.121366 0.247577 0.243930
H190  H     H_    0.742708 0.602888 0.930987 0.213057
H191  H     H_    0.780725 0.625096 0.884291 0.250676
H192  H     H_    0.153052 0.221674 0.089435 0.180511
N1    N     N_3   0.582527 0.740479 0.637321 -0.421883
N2    N     N_3   0.416411 0.636849 0.727113 -0.408398
N3    N     N_3   0.633560 0.255443 0.581693 -0.380582
N4    N     N_3   0.257453 0.636158 0.414650 -0.420280
N5    N     N_3   0.414905 0.258051 0.636262 -0.418964
N6    N     N_3   0.584852 0.636951 0.255504 -0.420325
N7    N     N_3   0.352138 0.305249 0.428893 -0.393846
N8    N     N_3   0.738965 0.637495 0.582198 -0.419373
N9    N     N_3   0.730342 0.581264 0.361578 -0.412790
N10   N     N_3   0.361182 0.419822 0.724821 -0.412790
N11   N     N_3   0.726481 0.416811 0.636980 -0.411101
N12   N     N_3   0.431653 0.354764 0.308242 -0.346635
N13   N     N_3   0.356563 0.593246 0.225679 -0.433013
N14   N     N_3   0.306960 0.428969 0.351463 -0.390511
N15   N     N_3   0.634010 0.579742 0.743121 -0.405515
N16   N     N_3   0.256056 0.584672 0.636862 -0.422945
N17   N     N_3   0.636341 0.414909 0.258195 -0.418689
N18   N     N_3   0.082527 0.240479 0.637321 -0.421883
N19   N     N_3   0.931653 0.854764 0.308242 -0.346635
N20   N     N_3   0.636468 0.228102 0.915835 -0.412687
N21   N     N_3   0.226624 0.857075 0.093005 -0.437972
N22   N     N_3   0.919874 0.224077 0.361139 -0.413532
N23   N     N_3   0.636468 0.728102 0.415835 -0.412686
N24   N     N_3   0.081177 0.861551 0.730297 -0.412897
N25   N     N_3   0.361586 0.229313 0.081111 -0.410272
N26   N     N_3   0.728150 0.864654 0.923291 -0.404393
N27   N     N_3   0.092907 0.724997 0.356238 -0.440906
N28   N     N_3   0.916411 0.136849 0.727113 -0.408398
N29   N     N_3   0.633560 0.755443 0.081693 -0.380582
N30   N     N_3   0.257453 0.136158 0.914651 -0.420280
N31   N     N_3   0.914905 0.758050 0.636262 -0.418964
N32   N     N_3   0.084852 0.136951 0.255504 -0.420325
N33   N     N_3   0.352138 0.805249 0.928893 -0.393846
N34   N     N_3   0.226624 0.357075 0.593005 -0.437972
N35   N     N_3   0.738965 0.137495 0.082198 -0.419374
N36   N     N_3   0.228150 0.364654 0.923291 -0.404394
N37   N     N_3   0.861586 0.729313 0.081111 -0.410272
N38   N     N_3   0.230342 0.081264 0.361578 -0.412790
N39   N     N_3   0.861182 0.919822 0.724821 -0.412790
N40   N     N_3   0.238965 0.637495 0.082198 -0.419373
N41   N     N_3   0.852138 0.305249 0.928893 -0.393846
N42   N     N_3   0.226481 0.916811 0.636980 -0.411101
N43   N     N_3   0.856563 0.093246 0.225679 -0.433013
N44   N     N_3   0.757453 0.636158 0.914651 -0.420280
N45   N     N_3   0.419874 0.724077 0.361139 -0.413532
N46   N     N_3   0.133560 0.255443 0.081693 -0.380582
N47   N     N_3   0.806960 0.928969 0.351463 -0.390511
N48   N     N_3   0.134011 0.079742 0.743121 -0.405515
N49   N     N_3   0.726624 0.357075 0.093005 -0.437972
N50   N     N_3   0.136468 0.728102 0.915835 -0.412687
N51   N     N_3   0.756056 0.084671 0.636862 -0.422945
N52   N     N_3   0.136341 0.914910 0.258195 -0.418689
N53   N     N_3   0.356563 0.093246 0.725679 -0.433013
N54   N     N_3   0.726481 0.916811 0.136980 -0.411101
N55   N     N_3   0.084852 0.636951 0.755504 -0.420325
N56   N     N_3   0.581177 0.361551 0.730297 -0.412897
N57   N     N_3   0.914905 0.258051 0.136262 -0.418964
N58   N     N_3   0.636341 0.914910 0.758195 -0.418689
N59   N     N_3   0.256056 0.084671 0.136862 -0.422945
N60   N     N_3   0.931653 0.354764 0.808241 -0.346635
N61   N     N_3   0.082527 0.740479 0.137321 -0.421883
N62   N     N_3   0.634010 0.079742 0.243121 -0.405515
N63   N     N_3   0.306960 0.928969 0.851463 -0.390510
N64   N     N_3   0.916411 0.636849 0.227113 -0.408398
N65   N     N_3   0.092907 0.224997 0.856238 -0.440906
N66   N     N_3   0.361182 0.919822 0.224821 -0.412791
N67   N     N_3   0.361586 0.729313 0.581111 -0.410272
N68   N     N_3   0.730342 0.081264 0.861578 -0.412790
N69   N     N_3   0.081177 0.361551 0.230297 -0.412897
N70   N     N_3   0.919874 0.724077 0.861139 -0.413532
N71   N     N_3   0.582527 0.240479 0.137321 -0.421883
N72   N     N_3   0.431653 0.854764 0.808242 -0.346635
N73   N     N_3   0.136468 0.228102 0.415835 -0.412686
N74   N     N_3   0.726624 0.857075 0.593005 -0.437972
N75   N     N_3   0.419874 0.224077 0.861139 -0.413533
N76   N     N_3   0.581177 0.861551 0.230297 -0.412897
N77   N     N_3   0.861586 0.229313 0.581111 -0.410272
N78   N     N_3   0.728150 0.364654 0.423291 -0.404393
N79   N     N_3   0.228150 0.864654 0.423291 -0.404393
N80   N     N_3   0.592907 0.724997 0.856238 -0.440906
N81   N     N_3   0.416411 0.136849 0.227113 -0.408398
N82   N     N_3   0.133560 0.755443 0.581693 -0.380582
N83   N     N_3   0.757453 0.136158 0.414650 -0.420280
N84   N     N_3   0.414905 0.758051 0.136262 -0.418964
N85   N     N_3   0.584852 0.136951 0.755504 -0.420325
N86   N     N_3   0.852138 0.805249 0.428893 -0.393846
N87   N     N_3   0.238965 0.137495 0.582198 -0.419374
N88   N     N_3   0.230342 0.581264 0.861578 -0.412790
N89   N     N_3   0.592907 0.224997 0.356238 -0.440906
N90   N     N_3   0.861182 0.419822 0.224821 -0.412790
N91   N     N_3   0.226481 0.416811 0.136980 -0.411100
N92   N     N_3   0.856563 0.593246 0.725679 -0.433013
N93   N     N_3   0.806960 0.428969 0.851463 -0.390510
N94   N     N_3   0.134011 0.579742 0.243121 -0.405515
N95   N     N_3   0.756056 0.584671 0.136862 -0.422944
N96   N     N_3   0.136341 0.414909 0.758195 -0.418689
O1    O     O_3   0.750000 0.750000 0.750000 -0.489059
O2    O     O_R   0.280360 0.365810 0.280360 -0.643892
O3    O     O_R   0.780360 0.780360 0.634190 -0.645300
O4    O     O_R   0.219640 0.780360 0.365810 -0.668476
O5    O     O_R   0.780360 0.219640 0.634190 -0.638131
O6    O     O_R   0.780360 0.780360 0.365810 -0.636699
O7    O     O_R   0.219640 0.219640 0.634190 -0.647876
O8    O     O_R   0.719640 0.634190 0.280360 -0.646172
O9    O     O_R   0.280360 0.365810 0.719640 -0.643253
O10   O     O_R   0.280360 0.634190 0.280360 -0.637800
O11   O     O_R   0.719640 0.365810 0.719640 -0.639690
O12   O     O_R   0.280360 0.634190 0.719640 -0.650505
O13   O     O_R   0.719640 0.365810 0.280360 -0.652248
O14   O     O_R   0.634190 0.280360 0.280360 -0.643049
O15   O     O_R   0.365810 0.719640 0.719640 -0.632570
O16   O     O_R   0.634190 0.719640 0.280360 -0.650574
O17   O     O_3   0.250000 0.250000 0.250000 -0.485987
O18   O     O_R   0.365810 0.280360 0.719640 -0.647087
O19   O     O_R   0.634190 0.719640 0.719640 -0.653411
O20   O     O_R   0.365810 0.280360 0.280360 -0.675036
O21   O     O_R   0.634190 0.280360 0.719640 -0.650096
O22   O     O_R   0.365810 0.719640 0.280360 -0.643198
O23   O     O_R   0.280360 0.719640 0.365810 -0.638981
O24   O     O_R   0.719640 0.280360 0.634190 -0.670785
O25   O     O_R   0.719640 0.719640 0.365810 -0.642563
O26   O     O_R   0.280360 0.280360 0.634190 -0.645300
O27   O     O_R   0.719640 0.280360 0.365810 -0.668476
O28   O     O_3   0.750000 0.750000 0.250000 -0.485987
O29   O     O_R   0.280360 0.719640 0.634190 -0.638131
O30   O     O_R   0.280360 0.280360 0.365810 -0.636699
O31   O     O_R   0.719640 0.719640 0.634190 -0.647876
O32   O     O_R   0.219640 0.134190 0.719640 -0.668527
O33   O     O_R   0.780360 0.865810 0.280360 -0.643892
O34   O     O_R   0.719640 0.134190 0.780360 -0.646172
O35   O     O_R   0.280360 0.865810 0.219640 -0.643253
O36   O     O_R   0.780360 0.134190 0.280360 -0.637800
O37   O     O_R   0.219640 0.865810 0.719640 -0.639690
O38   O     O_R   0.280360 0.134190 0.219640 -0.650505
O39   O     O_3   0.250000 0.250000 0.750000 -0.489059
O40   O     O_R   0.719640 0.865810 0.780360 -0.652248
O41   O     O_R   0.219640 0.865810 0.280360 -0.652248
O42   O     O_R   0.780360 0.134190 0.719640 -0.650505
O43   O     O_R   0.719640 0.865810 0.219640 -0.639690
O44   O     O_R   0.280360 0.134190 0.780360 -0.637800
O45   O     O_R   0.780360 0.865810 0.719640 -0.643253
O46   O     O_R   0.219640 0.134190 0.280360 -0.646172
O47   O     O_R   0.280360 0.865810 0.780360 -0.643892
O48   O     O_R   0.719640 0.134190 0.219640 -0.668527
O49   O     O_R   0.134190 0.280360 0.780360 -0.643049
O50   O     O_3   0.250000 0.750000 0.250000 -0.489059
O51   O     O_R   0.865810 0.719640 0.219640 -0.632570
O52   O     O_R   0.134190 0.219640 0.280360 -0.650574
O53   O     O_R   0.865810 0.780360 0.719640 -0.647087
O54   O     O_R   0.134190 0.719640 0.219640 -0.653411
O55   O     O_R   0.865810 0.280360 0.780360 -0.675036
O56   O     O_R   0.134190 0.780360 0.719640 -0.650096
O57   O     O_R   0.865810 0.219640 0.280360 -0.643198
O58   O     O_R   0.865810 0.719640 0.780360 -0.643198
O59   O     O_R   0.134190 0.280360 0.219640 -0.650096
O60   O     O_R   0.865810 0.780360 0.280360 -0.675036
O61   O     O_3   0.750000 0.250000 0.750000 -0.485987
O62   O     O_R   0.134190 0.219640 0.719640 -0.653411
O63   O     O_R   0.865810 0.280360 0.219640 -0.647087
O64   O     O_R   0.134190 0.719640 0.780360 -0.650574
O65   O     O_R   0.865810 0.219640 0.719640 -0.632570
O66   O     O_R   0.134190 0.780360 0.280360 -0.643049
O67   O     O_R   0.280360 0.219640 0.865810 -0.638982
O68   O     O_R   0.719640 0.780360 0.134190 -0.670785
O69   O     O_R   0.219640 0.719640 0.865810 -0.642563
O70   O     O_R   0.780360 0.280360 0.134190 -0.645301
O71   O     O_R   0.719640 0.780360 0.865810 -0.668476
O72   O     O_3   0.250000 0.750000 0.750000 -0.485987
O73   O     O_R   0.280360 0.219640 0.134190 -0.638131
O74   O     O_R   0.780360 0.280360 0.865810 -0.636699
O75   O     O_R   0.219640 0.719640 0.134190 -0.647876
O76   O     O_R   0.719640 0.219640 0.134190 -0.647876
O77   O     O_R   0.280360 0.780360 0.865810 -0.636699
O78   O     O_R   0.780360 0.719640 0.134190 -0.638131
O79   O     O_R   0.219640 0.280360 0.865810 -0.668476
O80   O     O_R   0.280360 0.780360 0.134190 -0.645300
O81   O     O_R   0.719640 0.219640 0.865810 -0.642563
O82   O     O_R   0.219640 0.280360 0.134190 -0.670785
O83   O     O_3   0.750000 0.250000 0.250000 -0.489059
O84   O     O_R   0.780360 0.719640 0.865810 -0.638982
O85   O     O_R   0.219640 0.634190 0.219640 -0.668527
O86   O     O_R   0.780360 0.365810 0.780360 -0.643892
O87   O     O_R   0.219640 0.634190 0.780360 -0.646172
O88   O     O_R   0.780360 0.365810 0.219640 -0.643254
O89   O     O_R   0.780360 0.634190 0.780360 -0.637800
O90   O     O_R   0.219640 0.365810 0.219640 -0.639690
O91   O     O_R   0.780360 0.634190 0.219640 -0.650505
O92   O     O_R   0.219640 0.365810 0.780360 -0.652248
O93   O     O_R   0.634190 0.780360 0.780360 -0.643049
O94   O     O_R   0.719640 0.634190 0.719640 -0.668527
O95   O     O_R   0.365810 0.219640 0.219640 -0.632570
O96   O     O_R   0.634190 0.219640 0.780360 -0.650574
O97   O     O_R   0.365810 0.780360 0.219640 -0.647087
O98   O     O_R   0.634190 0.219640 0.219640 -0.653411
O99   O     O_R   0.365810 0.780360 0.780360 -0.675036
O100  O     O_R   0.634190 0.780360 0.219640 -0.650096
O101  O     O_R   0.365810 0.219640 0.780360 -0.643198
O102  O     O_R   0.780360 0.219640 0.365810 -0.638982
O103  O     O_R   0.219640 0.780360 0.634190 -0.670785
O104  O     O_R   0.219640 0.219640 0.365810 -0.642563
Zn1   Zn    Zn3+2 0.706630 0.793370 0.793370 0.953457
Zn2   Zn    Zn3+2 0.293370 0.793370 0.793370 0.954645
Zn3   Zn    Zn3+2 0.793370 0.206630 0.706630 0.957340
Zn4   Zn    Zn3+2 0.206630 0.793370 0.293370 0.953457
Zn5   Zn    Zn3+2 0.293370 0.206630 0.793370 0.961881
Zn6   Zn    Zn3+2 0.706630 0.793370 0.206630 0.948973
Zn7   Zn    Zn3+2 0.206630 0.206630 0.293370 0.958653
Zn8   Zn    Zn3+2 0.793370 0.793370 0.706630 0.965393
Zn9   Zn    Zn3+2 0.793370 0.706630 0.206630 0.957340
Zn10  Zn    Zn3+2 0.206630 0.293370 0.793370 0.953457
Zn11  Zn    Zn3+2 0.793370 0.293370 0.793370 0.954645
Zn12  Zn    Zn3+2 0.293370 0.206630 0.206630 0.957340
Zn13  Zn    Zn3+2 0.206630 0.706630 0.206630 0.958074
Zn14  Zn    Zn3+2 0.206630 0.293370 0.206630 0.948973
Zn15  Zn    Zn3+2 0.793370 0.706630 0.793370 0.961881
Zn16  Zn    Zn3+2 0.206630 0.706630 0.793370 0.958653
Zn17  Zn    Zn3+2 0.793370 0.293370 0.206630 0.965393
Zn18  Zn    Zn3+2 0.706630 0.293370 0.293370 0.953457
Zn19  Zn    Zn3+2 0.293370 0.706630 0.706630 0.957340
Zn20  Zn    Zn3+2 0.293370 0.293370 0.293370 0.954645
Zn21  Zn    Zn3+2 0.706630 0.706630 0.706630 0.958074
Zn22  Zn    Zn3+2 0.293370 0.293370 0.706630 0.965393
Zn23  Zn    Zn3+2 0.793370 0.793370 0.293370 0.954645
Zn24  Zn    Zn3+2 0.706630 0.706630 0.293370 0.958653
Zn25  Zn    Zn3+2 0.706630 0.293370 0.706630 0.948973
Zn26  Zn    Zn3+2 0.293370 0.706630 0.293370 0.961881
Zn27  Zn    Zn3+2 0.206630 0.206630 0.706630 0.958074
Zn28  Zn    Zn3+2 0.293370 0.793370 0.206630 0.965393
Zn29  Zn    Zn3+2 0.706630 0.206630 0.793370 0.958653
Zn30  Zn    Zn3+2 0.206630 0.793370 0.706630 0.948973
Zn31  Zn    Zn3+2 0.793370 0.206630 0.293370 0.961881
Zn32  Zn    Zn3+2 0.706630 0.206630 0.206630 0.958074

loop_
_geom_bond_atom_site_label_1
_geom_bond_atom_site_label_2
_ccdc_geom_bond_type
C91   C368  A    
C258  C291  A    
C174  C333  A    
C97   C375  A    
C357  N19   S    
C224  O47   A    
C135  O103  A    
C41   N86   S    
C239  C249  A    
O50   Zn13  S    
C225  C237  A    
C165  C342  A    
H179  N39   S    
O75   Zn13  S    
H78   N84   S    
H80   N84   S    
H152  N25   S    
O61   Zn29  S    
C157  O31   A    
C161  C346  A    
C47   C261  A    
C100  C110  A    
C125  Cl42  S    
H88   N88   S    
C46   C274  S    
C340  N3    S    
C218  C316  A    
C101  C282  S    
C82   C94   A    
C79   O4    A    
C335  N56   S    
O41   Zn4   S    
C339  N2    S    
H30   N60   S    
C39   N84   S    
C72   C75   A    
C18   C125  A    
C78   C356  A    
C43   C264  A    
C81   C95   A    
C98   C114  A    
C51   C158  A    
C32   N77   S    
C138  C145  A    
O101  Zn5   S    
C191  C369  A    
O98   Zn32  S    
H34   N62   S    
C201  C309  S    
H33   N61   S    
O1    Zn15  S    
C174  C281  A    
C16   C122  A    
C219  C376  A    
C223  O8    A    
C71   Cl96  S    
C196  C364  A    
H59   N74   S    
C346  N8    S    
H153  N26   S    
C236  C316  A    
C345  N7    S    
H98   N94   S    
H19   N54   S    
C210  C214  A    
C34   N80   S    
C249  C266  A    
C323  O77   A    
O61   Zn11  S    
C298  C321  S    
C191  C198  A    
C198  C305  A    
C200  C307  A    
C134  Cl7   S    
C37   N82   S    
O43   Zn6   S    
C100  Cl21  S    
H187  N42   S    
C34   C240  A    
O42   Zn3   S    
C100  C378  A    
C171  C277  A    
C28   N73   S    
C97   C105  A    
O44   Zn5   S    
C139  C144  A    
H95   N92   S    
C336  N67   S    
C373  N36   S    
C35   C275  S    
C257  O62   A    
C9    C116  A    
C75   C353  A    
C290  C297  S    
C75   Cl92  S    
C185  C195  A    
C157  C267  S    
C51   C256  A    
O11   Zn25  S    
C94   C371  A    
C208  C294  A    
H186  N42   S    
C49   C155  A    
C175  C332  A    
C40   N85   S    
C261  C285  A    
C178  C285  A    
H68   N78   S    
C322  O78   A    
C60   Cl83  S    
C42   N87   S    
C207  C217  A    
C217  C378  A    
C104  C381  A    
C163  C270  A    
H133  N16   S    
C44   C151  A    
C58   Cl85  S    
H12   N51   S    
H67   N79   S    
C32   C139  A    
C53   Cl81  S    
O68   Zn6   S    
C211  C375  A    
C331  N12   S    
C246  C316  S    
C47   C153  A    
H146  N22   S    
C200  C359  A    
H74   N82   S    
C20   N65   S    
O91   Zn9   S    
C23   C130  A    
C170  C337  A    
H173  N36   S    
H32   N61   S    
C352  O12   A    
C360  N22   S    
H85   N87   S    
C146  O30   A    
C26   C249  A    
C5    C207  A    
C338  N89   S    
H119  N8    S    
C283  C363  S    
H93   N91   S    
O39   Zn10  S    
O72   Zn16  S    
C120  C128  A    
C233  C292  A    
C159  C339  A    
H159  N29   S    
H86   N87   S    
C327  O81   A    
C19   C229  A    
C47   N92   S    
C23   N69   S    
C187  C294  A    
C108  Cl53  S    
C20   C127  A    
C158  Cl10  S    
O30   Zn20  S    
C301  O54   A    
C256  C264  A    
C244  C252  A    
H143  N20   S    
C28   C134  A    
C77   Cl90  S    
C307  C328  S    
O31   Zn21  S    
C318  O56   A    
O36   Zn31  S    
H112  N5    S    
C67   C345  A    
C380  N42   S    
C199  C306  A    
C132  Cl89  S    
H114  N6    S    
C247  C250  A    
C176  C184  A    
O99   Zn2   S    
C48   C260  A    
C329  N1    S    
H120  N9    S    
C42   C241  A    
C40   C147  A    
C102  Cl20  S    
C372  N35   S    
C295  C323  S    
H4    N47   S    
O60   Zn23  S    
C46   O95   A    
C79   C272  S    
C348  N10   S    
C243  C253  A    
H102  N95   S    
H96   N93   S    
C327  O74   A    
C376  N38   S    
O81   Zn29  S    
O96   Zn29  S    
C68   C280  S    
C101  O25   A    
C4    C109  A    
C50   C258  A    
C31   N76   S    
O69   Zn16  S    
C203  C383  A    
C37   C247  A    
C284  C352  S    
C194  C300  A    
C168  C311  S    
C88   C366  A    
C45   C152  A    
O87   Zn16  S    
C308  C327  S    
C381  N43   S    
C45   N91   S    
C117  C131  A    
H39   N64   S    
C73   C350  A    
O84   Zn15  S    
C56   C66   A    
O74   Zn11  S    
H16   N52   S    
C246  O40   A    
C110  Cl33  S    
C16   C232  A    
C144  Cl78  S    
O14   Zn18  S    
O83   Zn18  S    
C33   C250  A    
O61   Zn3   S    
O103  Zn30  S    
H167  N32   S    
O20   Zn20  S    
C230  C313  A    
C17   C221  A    
C107  Cl54  S    
H70   N80   S    
C27   N72   S    
C49   N94   S    
H140  N19   S    
C324  O70   A    
C52   C329  A    
O54   Zn13  S    
C301  O66   A    
H21   N55   S    
C224  O37   A    
C9    C230  A    
C102  C109  A    
H3    N46   S    
C207  C295  A    
C181  C350  A    
C212  O48   A    
C363  O13   A    
C242  C282  A    
C104  C107  A    
O28   Zn24  S    
H60   N74   S    
C83   C93   A    
C165  C171  A    
C322  O68   A    
C333  N34   S    
C34   C141  A    
C160  C266  A    
O80   Zn28  S    
C165  C272  A    
H190  N44   S    
C6    C111  A    
C140  C143  A    
H137  N18   S    
C18   C220  A    
C44   C263  A    
O76   Zn32  S    
C220  C315  A    
C137  C147  A    
C21   N66   S    
O12   Zn19  S    
C187  C202  A    
C153  Cl15  S    
C72   C349  A    
O90   Zn14  S    
O77   Zn2   S    
O25   Zn24  S    
O1    Zn21  S    
H31   N60   S    
C214  C314  A    
C229  C232  A    
C299  C322  S    
H130  N14   S    
C92   Cl70  S    
C10   N55   S    
H66   N77   S    
C342  N4    S    
C5    C110  A    
C188  C200  A    
H134  N16   S    
C69   C346  A    
H53   N71   S    
C168  O44   A    
C226  C236  A    
C113  O7    A    
C223  C291  S    
H166  N32   S    
C189  C370  A    
C90   O5    A    
C341  O11   A    
O102  Zn31  S    
H61   N75   S    
C36   C142  A    
C232  C293  A    
C359  N21   S    
C53   C61   A    
C168  O32   A    
C84   Cl55  S    
H145  N21   S    
C362  N25   S    
C221  C230  A    
H105  N1    S    
C65   C343  A    
C87   C365  A    
H82   N85   S    
C11   N57   S    
C213  C298  A    
C212  O36   A    
O61   Zn25  S    
C173  C280  A    
C112  O2    A    
C57   C278  S    
C189  C199  A    
C36   C239  A    
C5    N50   S    
O49   Zn10  S    
O72   Zn2   S    
C334  N45   S    
C62   Cl72  S    
C201  O35   A    
H52   N71   S    
C35   O19   A    
C70   C77   A    
C180  C286  A    
C330  O10   A    
C224  C315  S    
C15   C233  A    
C16   N61   S    
C343  N5    S    
C328  O75   A    
C51   N96   S    
H29   N59   S    
C256  C289  A    
C117  Cl24  S    
H1    N1    S    
C361  N24   S    
C192  C298  A    
H138  N23   S    
C227  C309  A    
H117  N7    S    
H65   N77   S    
H101  N2    S    
C183  C289  A    
C180  C351  A    
C63   Cl77  S    
C13   O16   A    
H106  N2    S    
C89   C367  A    
C182  C349  A    
C215  C315  A    
C248  C265  A    
C140  Cl4   S    
C134  C149  A    
H115  N7    S    
H89   N90   S    
C99   Cl58  S    
C123  Cl43  S    
C138  Cl6   S    
O23   Zn26  S    
H97   N93   S    
O86   Zn11  S    
C374  O14   A    
H135  N17   S    
C139  Cl3   S    
C186  C293  A    
H178  N38   S    
C96   Cl30  S    
C266  C374  S    
C167  C331  A    
H92   N91   S    
C12   C119  A    
H141  N19   S    
C58   C65   A    
O72   Zn30  S    
H136  N17   S    
C148  Cl23  S    
C95   Cl49  S    
O95   Zn12  S    
H113  N6    S    
O47   Zn2   S    
C99   C111  A    
C377  N39   S    
C120  Cl38  S    
C25   C222  A    
C231  C311  A    
C136  C148  A    
H111  N5    S    
C21   C128  A    
C129  Cl51  S    
C194  C357  A    
C366  N28   S    
C228  C233  A    
C260  C288  A    
C43   C150  A    
C73   Cl94  S    
C241  C255  A    
C105  C382  A    
O53   Zn8   S    
C262  C286  A    
C164  C271  A    
C107  C384  A    
C56   Cl84  S    
O59   Zn14  S    
C61   C338  A    
H139  N18   S    
C55   C333  A    
C14   N59   S    
C164  C172  A    
O82   Zn14  S    
C76   C354  A    
C163  C173  A    
H147  N22   S    
C292  C312  S    
C29   C254  A    
C94   Cl50  S    
H99   N94   S    
C133  Cl2   S    
C48   C154  A    
C205  C219  A    
C305  C318  S    
C220  C231  A    
H37   N63   S    
C171  C336  A    
H6    N48   S    
H183  N40   S    
C351  N14   S    
C204  C303  A    
C37   C143  A    
C19   N64   S    
O97   Zn28  S    
C304  C326  S    
O88   Zn17  S    
H84   N86   S    
C74   Cl91  S    
C82   C359  A    
C166  C170  A    
C22   C226  A    
C197  C304  A    
O2    Zn20  S    
C9    N54   S    
C225  C296  A    
C80   C357  A    
O64   Zn16  S    
C240  C275  A    
C111  Cl68  S    
C87   Cl61  S    
C166  C340  A    
H158  N28   S    
C105  Cl26  S    
C15   N60   S    
H46   N67   S    
O72   Zn19  S    
C10   C117  A    
C52   C62   A    
O18   Zn22  S    
C66   C344  A    
C151  Cl17  S    
C210  C384  A    
C190  O34   A    
C352  O87   A    
O39   Zn27  S    
C161  C267  A    
C358  N20   S    
O29   Zn19  S    
C119  C129  A    
C216  C308  A    
O65   Zn3   S    
C81   C358  A    
C35   O93   A    
C330  O85   A    
H155  N27   S    
C326  O82   A    
C218  C377  A    
C172  C278  A    
H103  N96   S    
H79   N89   S    
C83   C360  A    
C347  N9    S    
H126  N13   S    
C268  O60   A    
H162  N30   S    
O39   Zn5   S    
H131  N15   S    
C109  Cl35  S    
O1    Zn1   S    
O56   Zn30  S    
C290  O58   A    
O33   Zn23  S    
H15   N52   S    
O57   Zn31  S    
H108  N3    S    
C195  C356  A    
C84   C92   A    
C11   C118  A    
C293  C301  S    
H81   N85   S    
O17   Zn12  S    
C78   Cl65  S    
C57   O21   A    
C3    C209  A    
C197  C362  A    
C162  C269  A    
O100  Zn6   S    
C115  Cl48  S    
C312  O55   A    
C160  C338  A    
C73   C74   A    
C222  C297  A    
C28   C255  A    
C3    N48   S    
C7    C205  A    
C104  Cl62  S    
C235  C317  S    
C1    C285  S    
C70   Cl95  S    
C162  C345  A    
C26   C132  A    
C321  O79   A    
C24   O18   A    
H170  N35   S    
C38   N83   S    
C319  O9    A    
C32   C251  A    
C89   Cl37  S    
H181  N40   S    
O73   Zn12  S    
O15   Zn19  S    
C58   C335  A    
C245  C276  A    
C54   C332  A    
C7    C114  A    
C116  C123  A    
C145  Cl45  S    
C2    O99   A    
C121  C127  A    
C344  N6    S    
O5    Zn3   S    
C71   C76   A    
C8    C231  A    
C257  C302  S    
H69   N79   S    
C22   N68   S    
C72   Cl93  S    
C195  C302  A    
C169  C329  A    
C102  C379  A    
H107  N3    S    
C119  Cl39  S    
C306  C320  S    
H7    N48   S    
C229  C300  A    
H20   N54   S    
C154  Cl11  S    
O26   Zn22  S    
C325  O71   A    
C42   C149  A    
C84   C361  A    
C303  C325  S    
C318  O64   A    
C289  C319  S    
C226  C310  A    
C23   C225  A    
C237  C306  A    
C86   C364  A    
H176  N37   S    
C246  O45   A    
C142  Cl12  S    
C321  O67   A    
C169  C275  A    
C59   C336  A    
C24   O101  A    
H42   N65   S    
C126  Cl19  S    
C4    C208  A    
H189  N43   S    
C175  C282  A    
O52   Zn7   S    
H62   N75   S    
O35   Zn28  S    
C204  C382  A    
H77   N83   S    
O83   Zn31  S    
H72   N81   S    
H123  N10   S    
C113  O26   A    
C221  C314  A    
C259  C262  A    
H94   N92   S    
C245  C251  A    
C143  Cl67  S    
C30   C137  A    
C101  O6    A    
O50   Zn4   S    
H104  N96   S    
C21   C227  A    
C167  C274  A    
C179  C313  S    
O63   Zn17  S    
O27   Zn18  S    
C186  C194  A    
C203  C304  A    
C93   C370  A    
C85   C91   A    
H175  N37   S    
C254  C267  A    
O45   Zn8   S    
C192  C368  A    
H128  N13   S    
C350  N13   S    
C368  N30   S    
C27   C133  A    
C251  C273  A    
C88   Cl60  S    
H182  N45   S    
C383  N46   S    
H50   N70   S    
O66   Zn4   S    
H49   N69   S    
C1    O94   A    
C287  C330  S    
C149  Cl34  S    
C127  Cl18  S    
H116  N12   S    
C177  C183  A    
O19   Zn21  S    
C184  C347  A    
C46   O20   A    
C156  Cl9   S    
C187  C372  A    
C323  O69   A    
C355  N17   S    
C247  C277  A    
C279  O59   A    
C62   C339  A    
H151  N25   S    
C118  C130  A    
C190  C310  S    
O38   Zn12  S    
C177  C284  A    
C55   C67   A    
C70   C347  A    
H18   N53   S    
C152  C155  A    
C43   N88   S    
C202  C358  A    
C61   Cl71  S    
H91   N90   S    
H71   N80   S    
O51   Zn9   S    
C151  C156  A    
O83   Zn17  S    
C214  C381  A    
O85   Zn13  S    
C184  C291  A    
O21   Zn25  S    
C183  C348  A    
O50   Zn28  S    
O17   Zn14  S    
C193  C299  A    
C216  C379  A    
C128  Cl52  S    
C364  N26   S    
C155  Cl13  S    
H150  N24   S    
C22   C129  A    
C228  C302  A    
C3    C108  A    
H184  N41   S    
O78   Zn9   S    
C136  Cl8   S    
H24   N56   S    
H35   N67   S    
C268  O51   A    
C337  N78   S    
H165  N31   S    
H38   N63   S    
H64   N76   S    
C78   C88   A    
H23   N57   S    
C227  C234  A    
C141  Cl1   S    
H129  N14   S    
C150  C158  A    
O67   Zn5   S    
C135  C277  S    
C38   C144  A    
O48   Zn32  S    
C146  C269  S    
C124  O102  A    
O9    Zn22  S    
C86   C89   A    
C137  Cl5   S    
O104  Zn7   S    
C205  C309  A    
C76   Cl88  S    
C59   Cl82  S    
H180  N39   S    
C11   C237  A    
C6    N51   S    
C81   Cl41  S    
C26   N71   S    
C324  O76   A    
C332  N23   S    
C163  C344  A    
C85   C362  A    
C19   C126  A    
C133  C141  A    
C185  C366  A    
C209  C215  A    
H17   N53   S    
H47   N68   S    
C99   C377  A    
H2    N45   S    
C341  O86   A    
O34   Zn29  S    
H121  N9    S    
C69   Cl74  S    
C27   C248  A    
C374  O98   A    
C193  C196  A    
O13   Zn18  S    
C80   Cl64  S    
C252  C270  A    
C157  O3    A    
C54   C69   A    
C253  C271  A    
H43   N66   S    
H36   N62   S    
C1    O89   A    
C204  C211  A    
O58   Zn15  S    
C31   C252  A    
C179  O33   A    
C371  N33   S    
H51   N70   S    
C181  C287  A    
C40   C243  A    
H154  N26   S    
C4    N49   S    
C182  C288  A    
H27   N58   S    
C118  Cl22  S    
H168  N33   S    
C29   C136  A    
C103  Cl63  S    
C268  C300  S    
O79   Zn10  S    
C240  C248  A    
C176  C355  A    
O37   Zn30  S    
C146  O104  A    
H124  N11   S    
C257  O49   A    
C106  C383  A    
O32   Zn27  S    
C159  C169  A    
C180  C181  A    
C312  O65   A    
C113  C281  S    
O40   Zn1   S    
C203  C213  A    
C93   Cl69  S    
H110  N4    S    
C98   Cl59  S    
C67   Cl73  S    
C176  C283  A    
H163  N30   S    
C354  N16   S    
C60   C337  A    
C212  C314  S    
C258  C263  A    
C65   Cl75  S    
C250  C272  A    
C95   C372  A    
C106  Cl25  S    
C170  C276  A    
O4    Zn4   S    
H45   N68   S    
O10   Zn26  S    
C85   Cl46  S    
C279  O52   A    
H28   N59   S    
C53   C331  A    
C206  C218  A    
C131  Cl31  S    
C2    O15   A    
C41   C148  A    
C59   C64   A    
C17   N62   S    
O55   Zn11  S    
H8    N49   S    
C60   C63   A    
C33   N79   S    
C36   N81   S    
C90   O24   A    
H160  N34   S    
O6    Zn23  S    
C367  N29   S    
C80   C87   A    
O1    Zn8   S    
C325  O84   A    
C161  C175  A    
C91   Cl36  S    
C191  C297  A    
C68   O22   A    
C288  C341  S    
C33   C140  A    
C201  O41   A    
C279  C296  S    
H48   N69   S    
C244  C280  A    
C263  C283  A    
H125  N11   S    
C160  C167  A    
C54   Cl86  S    
C112  O90   A    
C188  C371  A    
C50   N95   S    
C114  Cl66  S    
C8    C115  A    
O93   Zn1   S    
C375  N37   S    
O8    Zn24  S    
C349  N11   S    
C320  O57   A    
C50   C156  A    
C64   C342  A    
H161  N29   S    
C319  O92   A    
C199  C360  A    
C98   C376  A    
C103  C108  A    
H56   N73   S    
C30   N75   S    
C186  C365  A    
O50   Zn26  S    
H127  N12   S    
O3    Zn8   S    
O7    Zn27  S    
H171  N34   S    
C63   C340  A    
C189  C296  A    
C13   O100  A    
H40   N64   S    
C208  C216  A    
O39   Zn22  S    
C52   Cl80  S    
O46   Zn7   S    
O22   Zn26  S    
C116  Cl47  S    
C39   C145  A    
C185  C292  A    
C112  C286  S    
H132  N15   S    
C369  N31   S    
O17   Zn7   S    
C243  C278  A    
C12   N58   S    
C64   Cl79  S    
C196  C303  A    
C17   C123  A    
C77   C355  A    
H75   N82   S    
C132  C142  A    
C215  C380  A    
C190  O42   A    
H169  N33   S    
C25   N70   S    
C30   C253  A    
H192  N46   S    
C6    C206  A    
C24   C271  S    
H22   N55   S    
O89   Zn15  S    
H83   N86   S    
C202  C308  A    
C8    N53   S    
H185  N41   S    
C379  N41   S    
C193  C367  A    
C82   Cl40  S    
H26   N58   S    
C238  C305  A    
O28   Zn6   S    
C177  C354  A    
C192  C197  A    
C2    C265  S    
H25   N57   S    
C222  C238  A    
C7    N52   S    
C328  O80   A    
C38   C245  A    
H73   N81   S    
C31   C138  A    
C147  Cl56  S    
C122  C126  A    
C259  C287  A    
C166  C273  A    
C173  C334  A    
C353  N15   S    
C121  Cl28  S    
C219  C317  A    
C122  Cl27  S    
O17   Zn20  S    
H44   N66   S    
H142  N20   S    
C20   C228  A    
H157  N28   S    
C356  N18   S    
H122  N10   S    
C326  O73   A    
O83   Zn32  S    
H54   N72   S    
C83   Cl57  S    
H118  N8    S    
C178  C182  A    
C49   C259  A    
C18   N63   S    
O16   Zn24  S    
H164  N31   S    
C135  O29   A    
H58   N73   S    
C44   N90   S    
C294  C324  S    
C10   C238  A    
H87   N88   S    
O71   Zn1   S    
C55   Cl87  S    
C242  C254  A    
C86   Cl44  S    
C209  C311  A    
C74   C351  A    
C25   C131  A    
C14   C234  A    
C56   C334  A    
C130  Cl32  S    
C39   C244  A    
C255  C269  A    
O94   Zn21  S    
C150  Cl16  S    
C12   C236  A    
C260  C261  A    
C96   C106  A    
C68   O97   A    
H57   N78   S    
C15   C121  A    
O62   Zn27  S    
C71   C348  A    
H55   N72   S    
C241  C281  A    
H90   N89   S    
C57   O96   A    
C211  C299  A    
O24   Zn25  S    
H156  N27   S    
C223  O91   A    
H149  N23   S    
C365  N27   S    
H144  N21   S    
C162  C174  A    
C384  N47   S    
C159  C265  A    
O28   Zn23  S    
H5    N47   S    
H63   N76   S    
C14   C120  A    
H14   N51   S    
C115  C125  A    
C235  O46   A    
C41   C242  A    
H13   N56   S    
C66   Cl76  S    
C179  O43   A    
C48   N93   S    
C235  O38   A    
H177  N38   S    
C164  C343  A    
H11   N50   S    
C13   C270  S    
C213  C373  A    
C124  C276  S    
O70   Zn17  S    
C45   C262  A    
C363  O88   A    
O92   Zn10  S    
H109  N4    S    
C264  C284  A    
C103  C380  A    
H148  N24   S    
H191  N44   S    
C90   C273  S    
C217  C307  A    
H172  N35   S    
C29   N74   S    
C124  O27   A    
C188  C295  A    
C370  N32   S    
O28   Zn9   S    
C210  C313  A    
H10   N50   S    
C96   C373  A    
C320  O63   A    
H9    N49   S    
H76   N83   S    
C290  O53   A    
C79   O23   A    
C239  C274  A    
C152  Cl14  S    
H174  N36   S    
C178  C353  A    
H41   N65   S    
C92   C369  A    
H100  N95   S    
C234  C317  A    
C382  N44   S    
C153  C154  A    
H188  N43   S    
C172  C335  A    
C378  N40   S    
C97   Cl29  S    
C206  C310  A    
C198  C361  A    
