data_mof_unit_40841.cif
_audit_creation_date              2012-12-10T17:09:54-0500
_audit_creation_method            fapswitch 2.2
_symmetry_space_group_name_H-M    P1
_symmetry_Int_Tables_number       1
_space_group_crystal_system       triclinic
_cell_length_a                    10.872456
_cell_length_b                    13.011323
_cell_length_c                    11.719495
_cell_angle_alpha                 99.764616
_cell_angle_beta                  94.60443
_cell_angle_gamma                 91.807441
_cell_volume                      1626.8859106

loop_
_atom_site_label
_atom_site_type_symbol
_atom_type_description
_atom_site_fract_x
_atom_site_fract_y
_atom_site_fract_z
_atom_type_partial_charge
C1    C     C_R   0.496711 0.299335 0.478686 0.822117
C2    C     C_R   0.074631 0.537837 0.610223 0.010772
C3    C     C_R   0.129320 0.526032 0.502905 -0.171445
C4    C     C_R   0.053160 0.514125 0.397177 0.247941
C5    C     C_R   0.925878 0.501261 0.400396 -0.231217
C6    C     C_R   0.873252 0.494998 0.504224 -0.149690
C7    C     C_R   0.495845 0.814064 0.532044 -0.125197
C8    C     C_R   0.487089 0.186339 0.466556 -0.033739
C9    C     C_R   0.412662 0.019060 0.356284 -0.133686
C10   C     C_R   0.429406 0.126324 0.364892 -0.224304
C11   C     C_R   0.530979 0.138494 0.558878 -0.195527
C12   C     C_R   0.263213 0.511259 0.500960 0.834505
C13   C     C_R   0.517261 0.030701 0.550197 0.112919
C14   C     C_R   0.455895 0.969732 0.448671 0.093969
C15   C     C_R   0.440810 0.861221 0.441568 0.294556
C16   C     C_R   0.554876 0.875841 0.632303 -0.238533
C17   C     C_R   0.564265 0.983482 0.641898 -0.190477
C18   C     C_R   0.375794 0.409858 0.020255 -0.238005
C19   C     C_R   0.386746 0.414508 0.141353 0.469028
C20   C     C_R   0.555001 0.540118 0.157783 0.042988
C21   C     C_R   0.546068 0.534686 0.034819 0.026064
C22   C     C_R   0.455788 0.467448 0.965578 -0.022156
C23   C     C_R   0.497778 0.700664 0.520993 0.835543
C24   C     C_R   0.446687 0.459214 0.842671 0.536486
C25   C     C_R   0.610660 0.586193 0.856799 0.010122
C26   C     C_R   0.624203 0.594571 0.978981 -0.296850
C27   C     C_R   0.738012 0.495204 0.500740 0.803524
C28   C     C_R   0.140166 0.581235 0.717990 -0.133709
C29   C     C_R   0.092319 0.572055 0.822777 0.434754
C30   C     C_R   0.978834 0.519572 0.821699 -0.205819
C31   C     C_R   0.908061 0.486061 0.716569 -0.211642
C32   C     C_R   0.949986 0.505219 0.610106 0.098087
Cu1   Cu    Cu3+1 0.509250 0.507730 0.615930 0.984040
Cu2   Cu    Cu3+1 0.490750 0.492270 0.384070 0.979457
H1    H     H_    0.611022 0.029635 0.719922 0.152492
H2    H     H_    0.394849 0.162502 0.292817 0.163944
H3    H     H_    0.576613 0.185138 0.637273 0.153887
H4    H     H_    0.671341 0.632973 0.815210 0.147870
H5    H     H_    0.302854 0.361507 0.968370 0.205557
H6    H     H_    0.695086 0.647663 0.029182 0.155866
H7    H     H_    0.624263 0.592164 0.211739 0.134026
H8    H     H_    0.227263 0.624738 0.722210 0.178363
H9    H     H_    0.943884 0.506750 0.902357 0.155933
H10   H     H_    0.822989 0.442542 0.720824 0.179252
H11   H     H_    0.866510 0.497509 0.321166 0.171682
H12   H     H_    0.596384 0.840614 0.702607 0.175399
H13   H     H_    0.366932 0.975839 0.276395 0.204669
N1    N     N_R   0.523180 0.519350 0.790130 -0.213315
N2    N     N_R   0.476820 0.480650 0.209890 -0.213043
O1    O     O_R   0.506570 0.354460 0.582000 -0.538083
O2    O     O_R   0.490940 0.341410 0.386200 -0.624537
O3    O     O_R   0.327470 0.506530 0.597920 -0.541170
O4    O     O_R   0.311840 0.493480 0.402120 -0.574964
O5    O     O_R   0.509060 0.658590 0.613800 -0.602632
O6    O     O_R   0.493430 0.645540 0.418000 -0.531652
O7    O     O_R   0.688160 0.506520 0.597880 -0.604739
O8    O     O_R   0.672530 0.493470 0.402080 -0.597637
N3    N     N_2   0.105142 0.522200 0.290293 -0.381261
H14   H     H_    0.157573 0.589996 0.292020 0.312043
C33   C     C_3   0.035929 0.482811 0.179872 -0.602955
H15   H     H_    0.098907 0.477971 0.109422 0.271898
H16   H     H_    0.962013 0.536443 0.162125 0.208899
H17   H     H_    0.995857 0.403094 0.179292 0.219620
Cl1   Cl    Cl    0.338561 0.367669 0.756854 -0.626220
N4    N     N_2   0.299511 0.353474 0.191134 -0.406922
H18   H     H_    0.317553 0.343849 0.274787 0.309630
C34   C     C_3   0.235904 0.261333 0.121447 -0.764132
H19   H     H_    0.185551 0.217307 0.178065 0.237771
H20   H     H_    0.303146 0.209180 0.077376 0.239103
H21   H     H_    0.165633 0.283739 0.057232 0.247584
Cl2   Cl    Cl    0.177130 0.623176 0.955112 -0.622801
Cl3   Cl    Cl    0.347290 0.786351 0.323119 -0.614301

loop_
_geom_bond_atom_site_label_1
_geom_bond_atom_site_label_2
_ccdc_geom_bond_type
Cu2   O8    S    
C6    C32   A    
C9    C14   A    
C23   O6    A    
C29   C30   A    
C1    O1    A    
N4    C34   S    
C25   H4    S    
C1    C8    S    
C11   C13   A    
C9    C10   A    
C19   N2    A    
C19   N4    S    
C6    C27   S    
C14   C15   A    
C13   C17   A    
C30   C31   A    
C18   H5    S    
C34   H21   S    
C28   C29   A    
Cu1   O7    S    
C7    C15   A    
C20   H7    S    
C25   C26   A    
N4    H18   S    
Cu2   O6    S    
C24   Cl1   S    
C18   C22   A    
C13   C14   A    
Cu1   O3    S    
C15   Cl3   S    
C1    O2    A    
C25   N1    A    
C26   H6    S    
Cu2   O2    S    
C20   N2    A    
C5    H11   S    
Cu2   O4    S    
C33   H17   S    
C7    C23   S    
C8    C10   A    
C7    C16   A    
C12   O3    A    
C21   C26   A    
Cu1   Cu2   S    
C9    H13   S    
C2    C3    A    
C8    C11   A    
C33   H16   S    
C5    C6    A    
C31   C32   A    
C22   C24   A    
C30   H9    S    
C16   C17   A    
C31   H10   S    
N3    C33   S    
C34   H19   S    
C24   N1    A    
C20   C21   A    
C23   O5    A    
C2    C32   A    
C18   C19   A    
C27   O8    A    
C4    N3    S    
Cu1   O5    S    
C11   H3    S    
Cu1   N1    S    
C27   O7    A    
C16   H12   S    
Cu2   N2    S    
C2    C28   A    
C3    C12   S    
C17   H1    S    
C10   H2    S    
C29   Cl2   S    
N3    H14   S    
C21   C22   A    
Cu1   O1    S    
C33   H15   S    
C3    C4    A    
C12   O4    A    
C4    C5    A    
C34   H20   S    
C28   H8    S    
