data_mof_unit_20252.cif
_audit_creation_date              2012-12-10T19:29:38-0500
_audit_creation_method            fapswitch 2.2
_symmetry_space_group_name_H-M    P1
_symmetry_Int_Tables_number       1
_space_group_crystal_system       triclinic
_cell_length_a                    22.167398
_cell_length_b                    22.281019
_cell_length_c                    14.951502
_cell_angle_alpha                 89.995616
_cell_angle_beta                  90.734305
_cell_angle_gamma                 89.999506
_cell_volume                      7384.12299781

loop_
_atom_site_label
_atom_site_type_symbol
_atom_type_description
_atom_site_fract_x
_atom_site_fract_y
_atom_site_fract_z
_atom_type_partial_charge
C1    C     C_R   0.418807 0.918758 0.499586 0.892841
C2    C     C_R   0.581197 0.081239 0.500413 0.892828
C3    C     C_R   0.581215 0.918772 0.500409 0.892942
C4    C     C_R   0.418791 0.081235 0.499592 0.892933
C5    C     C_R   0.918783 0.418774 0.499596 0.892957
C6    C     C_R   0.081210 0.581233 0.500403 0.892939
C7    C     C_R   0.081196 0.418760 0.500419 0.892854
C8    C     C_R   0.918801 0.581237 0.499583 0.892844
C9    C     C_1   0.337189 0.163598 0.498168 0.227604
C10   C     C_1   0.662881 0.836472 0.501881 0.227664
C11   C     C_1   0.662635 0.163741 0.502071 0.225398
C12   C     C_1   0.337350 0.836274 0.497873 0.225634
C13   C     C_1   0.837339 0.663717 0.497914 0.225366
C14   C     C_1   0.162682 0.336304 0.502140 0.225590
C15   C     C_1   0.162841 0.663570 0.501806 0.227576
C16   C     C_1   0.837093 0.336496 0.498144 0.227633
C17   C     C_1   0.500209 0.999945 0.189965 0.419464
C18   C     C_1   0.499762 0.000046 0.810035 0.419415
C19   C     C_1   0.000235 0.500049 0.189965 0.419365
C20   C     C_1   0.999794 0.499943 0.810035 0.419419
C21   C     C_3   0.489090 0.944184 0.970110 0.292279
C22   C     C_3   0.510845 0.055797 0.029888 0.292218
C23   C     C_3   0.543364 0.962493 0.030310 0.252833
C24   C     C_3   0.456570 0.037486 0.969688 0.252432
C25   C     C_3   0.956696 0.462426 0.969698 0.252849
C26   C     C_3   0.043368 0.537554 0.030304 0.252437
C27   C     C_3   0.010995 0.444203 0.029911 0.292217
C28   C     C_3   0.989068 0.555778 0.970091 0.292152
C29   C     C_3   0.696386 0.722993 0.515780 0.139427
C30   C     C_3   0.303684 0.277108 0.484496 0.139344
C31   C     C_3   0.303863 0.722779 0.483535 0.140025
C32   C     C_3   0.696068 0.277253 0.516372 0.139764
C33   C     C_3   0.196140 0.222785 0.516074 0.140022
C34   C     C_3   0.803929 0.777250 0.483960 0.139854
C35   C     C_3   0.803546 0.223053 0.483906 0.139451
C36   C     C_3   0.196397 0.777039 0.515875 0.139324
C37   C     C_3   0.236586 0.210529 0.434927 0.267062
C38   C     C_3   0.763502 0.789554 0.565070 0.278536
C39   C     C_3   0.763306 0.210568 0.565198 0.264420
C40   C     C_3   0.236710 0.789449 0.434681 0.275865
C41   C     C_3   0.736769 0.710668 0.434593 0.264404
C42   C     C_3   0.263201 0.289334 0.565563 0.275849
C43   C     C_3   0.263585 0.710337 0.564809 0.267063
C44   C     C_3   0.736354 0.289717 0.435155 0.278518
C45   C     C_1   0.374594 0.125803 0.498636 -0.089839
C46   C     C_1   0.625448 0.874239 0.501377 -0.089974
C47   C     C_1   0.625309 0.125877 0.501434 -0.093841
C48   C     C_1   0.374688 0.874126 0.498550 -0.094015
C49   C     C_1   0.874676 0.625864 0.498551 -0.093831
C50   C     C_1   0.125330 0.374143 0.501463 -0.094010
C51   C     C_1   0.125423 0.625788 0.501347 -0.089841
C52   C     C_1   0.874537 0.374252 0.498640 -0.089969
C53   C     C_3   0.251429 0.221904 0.579697 0.282246
C54   C     C_3   0.748619 0.778123 0.420319 0.270729
C55   C     C_3   0.748113 0.222337 0.420572 0.281423
C56   C     C_3   0.251787 0.777768 0.579347 0.269784
C57   C     C_3   0.751711 0.722145 0.579321 0.281378
C58   C     C_3   0.248423 0.277992 0.420779 0.269765
C59   C     C_3   0.248444 0.722051 0.420157 0.282270
C60   C     C_3   0.751488 0.277994 0.579806 0.270746
C61   C     C_3   0.292014 0.209268 0.498615 -0.169719
C62   C     C_3   0.708068 0.790814 0.501485 -0.169516
C63   C     C_3   0.707740 0.209469 0.501796 -0.167778
C64   C     C_3   0.292221 0.790568 0.498100 -0.167580
C65   C     C_3   0.792226 0.709438 0.498201 -0.167792
C66   C     C_3   0.207820 0.290607 0.501901 -0.167562
C67   C     C_3   0.208026 0.709230 0.501364 -0.169734
C68   C     C_3   0.791898 0.290846 0.498535 -0.169537
C69   C     C_3   0.446436 0.981553 0.029345 0.288173
C70   C     C_3   0.553499 0.018426 0.970658 0.288104
C71   C     C_3   0.946470 0.518345 0.029330 0.288159
C72   C     C_3   0.053593 0.481635 0.970667 0.288228
C73   C     C_3   0.500532 0.999887 0.090024 -0.364922
C74   C     C_3   0.499406 0.000094 0.909975 -0.364920
C75   C     C_3   0.000589 0.500099 0.090026 -0.364935
C76   C     C_3   0.999472 0.499883 0.909975 -0.364936
N1    N     N_1   0.500020 0.000000 0.268010 -0.080258
N2    N     N_1   0.499980 0.000000 0.731990 -0.080280
N3    N     N_1   0.000020 0.500000 0.268010 -0.080276
N4    N     N_1   0.999980 0.500000 0.731990 -0.080254
O1    O     O_R   0.438390 0.938390 0.574460 -0.593468
O2    O     O_R   0.561610 0.061610 0.425540 -0.593084
O3    O     O_R   0.561610 0.938390 0.425540 -0.592305
O4    O     O_R   0.438390 0.061610 0.574460 -0.591931
O5    O     O_R   0.938390 0.438390 0.574460 -0.592359
O6    O     O_R   0.061610 0.561610 0.425540 -0.591988
O7    O     O_R   0.061610 0.438390 0.425540 -0.593409
O8    O     O_R   0.938390 0.561610 0.574460 -0.593026
O9    O     O_R   0.438400 0.938390 0.425520 -0.604350
O10   O     O_R   0.561600 0.061610 0.574480 -0.604734
O11   O     O_R   0.561600 0.938390 0.574480 -0.602399
O12   O     O_R   0.438400 0.061610 0.425520 -0.602803
O13   O     O_R   0.938400 0.438390 0.425520 -0.602345
O14   O     O_R   0.061600 0.561610 0.574480 -0.602743
O15   O     O_R   0.061600 0.438390 0.574480 -0.604410
O16   O     O_R   0.938400 0.561610 0.425520 -0.604795
Zn1   Zn    Zn3+2 0.500000 0.000000 0.599450 1.081204
Zn2   Zn    Zn3+2 0.500000 0.000000 0.400550 1.081217
Zn3   Zn    Zn3+2 1.000000 0.500000 0.599450 1.081217
Zn4   Zn    Zn3+2 0.000000 0.500000 0.400550 1.081202
O17   O     O_3   0.606934 0.040029 0.931418 -0.560560
C77   C     C_3   0.654414 0.043516 0.994901 0.239455
H1    H     H_    0.680574 0.001069 0.993680 0.198082
H2    H     H_    0.638908 0.051678 0.064305 0.182281
C78   C     C_3   0.696476 0.094483 0.969384 -0.796943
H3    H     H_    0.672094 0.137972 0.971884 0.284854
H4    H     H_    0.735416 0.096160 0.016762 0.206423
H5    H     H_    0.713560 0.087326 0.900706 0.260781
O18   O     O_3   0.393008 0.959948 0.068604 -0.560408
C79   C     C_3   0.345515 0.956462 0.005144 0.239049
H6    H     H_    0.361006 0.948288 0.935736 0.181997
H7    H     H_    0.319364 0.998915 0.006364 0.198031
C80   C     C_3   0.303446 0.905507 0.030694 -0.797118
H8    H     H_    0.286379 0.912664 0.099384 0.261288
H9    H     H_    0.264493 0.903838 0.983338 0.205622
H10   H     H_    0.327816 0.862012 0.028178 0.284849
O19   O     O_3   0.107062 0.460111 0.931434 -0.560429
C81   C     C_3   0.154548 0.456696 0.994916 0.239037
H11   H     H_    0.139056 0.448530 0.064328 0.182004
H12   H     H_    0.180652 0.499176 0.993663 0.198073
C82   C     C_3   0.196675 0.405775 0.969434 -0.796986
H13   H     H_    0.213746 0.412929 0.900745 0.261269
H14   H     H_    0.235622 0.404162 0.016807 0.205673
H15   H     H_    0.172351 0.362256 0.971982 0.284835
O20   O     O_3   0.892995 0.539867 0.068546 -0.560575
C83   C     C_3   0.845521 0.543284 0.005043 0.239428
H16   H     H_    0.819411 0.500807 0.006292 0.198120
H17   H     H_    0.861026 0.551442 0.935635 0.182281
C84   C     C_3   0.803397 0.594211 0.030499 -0.796870
H18   H     H_    0.827729 0.637726 0.027973 0.284831
H19   H     H_    0.764463 0.595832 0.983104 0.206460
H20   H     H_    0.786309 0.587052 0.099175 0.260766
O21   O     O_3   0.231538 0.165642 0.368571 -0.610375
C85   C     C_3   0.178017 0.172913 0.317796 0.164496
H21   H     H_    0.163978 0.220675 0.310058 0.191653
H22   H     H_    0.141193 0.147287 0.349668 0.206772
C86   C     C_3   0.187257 0.146782 0.224976 -0.792133
H23   H     H_    0.197931 0.098181 0.230031 0.271509
H24   H     H_    0.145524 0.152495 0.183982 0.225228
H25   H     H_    0.225026 0.170037 0.191389 0.256442
O22   O     O_3   0.768732 0.834348 0.631523 -0.600154
C87   C     C_3   0.822673 0.827259 0.681351 0.192691
H26   H     H_    0.859294 0.852570 0.648367 0.231357
H27   H     H_    0.836587 0.779484 0.689477 0.181312
C88   C     C_3   0.814281 0.853875 0.774047 -0.804188
H28   H     H_    0.776904 0.830689 0.808690 0.256095
H29   H     H_    0.856411 0.848463 0.814221 0.226178
H30   H     H_    0.803449 0.902425 0.768643 0.274006
O23   O     O_3   0.768510 0.165483 0.631244 -0.612788
C89   C     C_3   0.822095 0.172651 0.681905 0.178028
H31   H     H_    0.836234 0.220384 0.689646 0.192186
H32   H     H_    0.858843 0.146986 0.649909 0.206222
C90   C     C_3   0.812903 0.146500 0.774734 -0.819476
H33   H     H_    0.801966 0.097959 0.769672 0.267620
H34   H     H_    0.854730 0.151971 0.815580 0.236196
H35   H     H_    0.775328 0.169934 0.808502 0.250331
O24   O     O_3   0.231436 0.834381 0.368429 -0.602550
C91   C     C_3   0.177496 0.827379 0.318570 0.205740
H36   H     H_    0.140924 0.852790 0.351507 0.230688
H37   H     H_    0.163456 0.779635 0.310517 0.181952
C92   C     C_3   0.185991 0.853908 0.225828 -0.830957
H38   H     H_    0.223198 0.830473 0.191169 0.250092
H39   H     H_    0.143817 0.848733 0.185695 0.236900
H40   H     H_    0.197127 0.902393 0.231142 0.270196
O25   O     O_3   0.731674 0.665717 0.368339 -0.612757
C93   C     C_3   0.678172 0.672990 0.317516 0.178076
H41   H     H_    0.664061 0.720741 0.309904 0.192231
H42   H     H_    0.641363 0.647279 0.349282 0.206171
C94   C     C_3   0.687505 0.647002 0.224626 -0.819764
H43   H     H_    0.698391 0.598443 0.229547 0.267462
H44   H     H_    0.645754 0.652582 0.183640 0.236218
H45   H     H_    0.725162 0.670466 0.191095 0.250520
O26   O     O_3   0.268347 0.334111 0.632057 -0.602511
C95   C     C_3   0.322190 0.326987 0.682110 0.205781
H46   H     H_    0.358838 0.352452 0.649442 0.230653
H47   H     H_    0.336195 0.279222 0.690015 0.181991
C96   C     C_3   0.313527 0.353329 0.774926 -0.831243
H48   H     H_    0.276222 0.329856 0.809305 0.250286
H49   H     H_    0.355613 0.348030 0.815229 0.236922
H50   H     H_    0.302450 0.401835 0.769770 0.270060
O27   O     O_3   0.268761 0.665296 0.630923 -0.610416
C97   C     C_3   0.322391 0.672434 0.681484 0.164545
H51   H     H_    0.336453 0.720177 0.689405 0.191612
H52   H     H_    0.359139 0.646882 0.649302 0.206856
C98   C     C_3   0.313348 0.646076 0.774214 -0.792060
H53   H     H_    0.302653 0.597490 0.768957 0.271494
H54   H     H_    0.355172 0.651679 0.815036 0.225353
H55   H     H_    0.275662 0.669255 0.808110 0.256335
O28   O     O_3   0.731014 0.334645 0.368911 -0.600203
C99   C     C_3   0.676983 0.327668 0.319268 0.192692
H56   H     H_    0.640427 0.352912 0.352515 0.231409
H57   H     H_    0.663049 0.279911 0.310982 0.181284
C100  C     C_3   0.685207 0.354481 0.226656 -0.804193
H58   H     H_    0.722513 0.331362 0.191753 0.256028
H59   H     H_    0.643002 0.349163 0.186630 0.226274
H60   H     H_    0.696059 0.403017 0.232236 0.273970
S1    S     S_3+6 0.622529 0.694292 0.537337 0.067256
O29   O     O_2   0.597689 0.724560 0.618743 -0.254252
O30   O     O_2   0.581038 0.707055 0.459412 -0.248631
O31   O     O_3   0.626064 0.619895 0.555352 -0.475667
H61   H     H_    0.652184 0.604148 0.507509 0.358595
S2    S     S_3+6 0.377735 0.306019 0.464998 0.068422
O32   O     O_2   0.418975 0.288163 0.540951 -0.230389
O33   O     O_2   0.402269 0.280449 0.379914 -0.273532
O34   O     O_3   0.375295 0.381284 0.458043 -0.473337
H62   H     H_    0.340129 0.390149 0.418714 0.355939
S3    S     S_3+6 0.377709 0.694165 0.461636 0.066837
O35   O     O_2   0.402412 0.724600 0.380269 -0.259824
O36   O     O_2   0.419307 0.706821 0.539473 -0.247091
O37   O     O_3   0.374201 0.619798 0.443347 -0.474902
H63   H     H_    0.348076 0.603957 0.491119 0.358707
S4    S     S_3+6 0.622018 0.305989 0.536440 0.067787
O38   O     O_2   0.580623 0.288293 0.460591 -0.229022
O39   O     O_2   0.597717 0.280124 0.621482 -0.278977
O40   O     O_3   0.624358 0.381237 0.543868 -0.472862
H64   H     H_    0.659579 0.390035 0.583119 0.356682
S5    S     S_3+6 0.122246 0.194119 0.537491 0.066870
O41   O     O_2   0.097375 0.224353 0.618903 -0.259823
O42   O     O_2   0.080805 0.206967 0.459538 -0.247213
O43   O     O_3   0.125711 0.119707 0.555404 -0.474720
H65   H     H_    0.151948 0.103986 0.507684 0.358673
S6    S     S_3+6 0.878016 0.806030 0.464299 0.067760
O44   O     O_2   0.919282 0.788177 0.540223 -0.229100
O45   O     O_2   0.902464 0.780345 0.379237 -0.279034
O46   O     O_3   0.875687 0.881293 0.457195 -0.472922
H66   H     H_    0.840550 0.890171 0.417815 0.356701
S7    S     S_3+6 0.877357 0.194383 0.461943 0.067289
O47   O     O_2   0.902063 0.224819 0.380577 -0.254126
O48   O     O_2   0.918982 0.206973 0.539771 -0.248606
O49   O     O_3   0.873772 0.120025 0.443608 -0.475775
H67   H     H_    0.847766 0.104179 0.491517 0.358641
S8    S     S_3+6 0.122398 0.805919 0.535853 0.068452
O50   O     O_2   0.081001 0.788257 0.459989 -0.230350
O51   O     O_2   0.098032 0.780147 0.620918 -0.273457
O52   O     O_3   0.124875 0.881166 0.543187 -0.473255
H68   H     H_    0.160130 0.889928 0.582388 0.355931
O53   O     O_3   0.738574 0.811886 0.341555 -0.597914
C101  C     C_3   0.779477 0.795334 0.274519 0.161589
H69   H     H_    0.792356 0.747025 0.276926 0.184346
H70   H     H_    0.820670 0.823312 0.280821 0.200668
C102  C     C_3   0.750944 0.808111 0.183380 -0.786294
H71   H     H_    0.741066 0.856792 0.176718 0.291729
H72   H     H_    0.782335 0.794619 0.129697 0.206640
H73   H     H_    0.708203 0.782592 0.175338 0.266245
O54   O     O_3   0.261356 0.188254 0.658588 -0.587203
C103  C     C_3   0.219867 0.204473 0.725001 0.190524
H74   H     H_    0.178636 0.176632 0.717461 0.225933
H75   H     H_    0.207182 0.252844 0.722953 0.173434
C104  C     C_3   0.247588 0.191200 0.816512 -0.797231
H76   H     H_    0.290161 0.216840 0.825756 0.265160
H77   H     H_    0.215649 0.204251 0.869719 0.207754
H78   H     H_    0.257575 0.142513 0.822699 0.294435
O55   O     O_3   0.262071 0.811450 0.658111 -0.604336
C105  C     C_3   0.221304 0.794962 0.725354 0.169013
H79   H     H_    0.208403 0.746657 0.723079 0.189121
H80   H     H_    0.180119 0.822967 0.719194 0.200919
C106  C     C_3   0.250072 0.807807 0.816318 -0.801360
H81   H     H_    0.260762 0.856358 0.822293 0.272728
H82   H     H_    0.218497 0.795157 0.870216 0.219046
H83   H     H_    0.292397 0.781648 0.824648 0.264189
O56   O     O_3   0.737902 0.188855 0.341612 -0.593602
C107  C     C_3   0.779209 0.205099 0.274976 0.197846
H84   H     H_    0.820459 0.177256 0.282269 0.226261
H85   H     H_    0.791878 0.253475 0.276973 0.178404
C108  C     C_3   0.751219 0.191815 0.183643 -0.812351
H86   H     H_    0.709010 0.218021 0.174238 0.263373
H87   H     H_    0.783283 0.204145 0.130221 0.220137
H88   H     H_    0.740509 0.143251 0.178023 0.275651
O57   O     O_3   0.238307 0.311862 0.342143 -0.604371
C109  C     C_3   0.279214 0.295528 0.275011 0.169100
H89   H     H_    0.292104 0.247217 0.277103 0.189139
H90   H     H_    0.320391 0.323514 0.281501 0.200934
C110  C     C_3   0.250636 0.308590 0.183985 -0.801588
H91   H     H_    0.239975 0.357158 0.178203 0.272665
H92   H     H_    0.282319 0.296053 0.130171 0.219211
H93   H     H_    0.208317 0.282465 0.175340 0.264186
O58   O     O_3   0.761781 0.688502 0.658173 -0.593635
C111  C     C_3   0.720356 0.704614 0.724714 0.197905
H94   H     H_    0.679116 0.676788 0.717141 0.226263
H95   H     H_    0.707695 0.752994 0.722875 0.178429
C112  C     C_3   0.748183 0.691142 0.816094 -0.812522
H96   H     H_    0.790385 0.717317 0.825770 0.263366
H97   H     H_    0.716029 0.703374 0.869443 0.220277
H98   H     H_    0.758871 0.642564 0.821551 0.275593
O59   O     O_3   0.761674 0.311596 0.658679 -0.597856
C113  C     C_3   0.720879 0.294920 0.725796 0.161610
H99   H     H_    0.707998 0.246614 0.723245 0.184313
H100  H     H_    0.679677 0.322908 0.719748 0.200656
C114  C     C_3   0.749554 0.307529 0.816888 -0.786392
H101  H     H_    0.759426 0.356200 0.823713 0.291780
H102  H     H_    0.718254 0.293923 0.870629 0.206564
H103  H     H_    0.792314 0.282007 0.824676 0.266296
O60   O     O_3   0.238349 0.688591 0.341137 -0.587140
C115  C     C_3   0.279710 0.704952 0.274621 0.190562
H104  H     H_    0.320954 0.677097 0.281862 0.225928
H105  H     H_    0.292396 0.753319 0.276835 0.173392
C116  C     C_3   0.251820 0.691872 0.183161 -0.797336
H106  H     H_    0.209222 0.717516 0.174211 0.265236
H107  H     H_    0.283652 0.705051 0.129879 0.207650
H108  H     H_    0.241840 0.643195 0.176786 0.294498
S9    S     S_3+6 0.598516 0.911267 0.073810 0.052550
O61   O     O_2   0.636987 0.942254 0.143213 -0.350308
O62   O     O_2   0.567072 0.858894 0.116057 -0.208491
O63   O     O_3   0.642079 0.886717 0.990187 -0.525142
H109  H     H_    0.670506 0.858013 0.018706 0.371777
S10   S     S_3+6 0.401414 0.088703 0.926170 0.053178
O64   O     O_2   0.432852 0.141076 0.883915 -0.208211
O65   O     O_2   0.362954 0.057702 0.856767 -0.349355
O66   O     O_3   0.357837 0.113259 0.009774 -0.525242
H110  H     H_    0.329237 0.141755 0.981165 0.371939
S11   S     S_3+6 0.474609 0.870203 0.928847 0.086058
O67   O     O_2   0.427148 0.872471 0.856251 -0.333120
O68   O     O_2   0.531614 0.844421 0.891482 -0.207987
O69   O     O_3   0.450595 0.826817 0.013185 -0.491739
H111  H     H_    0.440258 0.787871 0.984973 0.374758
S12   S     S_3+6 0.525314 0.129781 0.071141 0.085961
O70   O     O_2   0.468305 0.155554 0.108505 -0.208460
O71   O     O_2   0.572777 0.127526 0.143735 -0.332489
O72   O     O_3   0.549318 0.173167 0.986795 -0.491986
H112  H     H_    0.559602 0.212132 0.014990 0.374673
S13   S     S_3+6 0.025587 0.370246 0.071201 0.086098
O73   O     O_2   0.073048 0.372586 0.143790 -0.333167
O74   O     O_2   0.968622 0.344384 0.108583 -0.207772
O75   O     O_3   0.049659 0.326888 0.986877 -0.491831
H113  H     H_    0.060127 0.287984 0.015123 0.374678
S14   S     S_3+6 0.974486 0.629739 0.928809 0.086012
O76   O     O_2   0.031456 0.655595 0.891435 -0.208199
O77   O     O_2   0.927027 0.627409 0.856217 -0.332560
O78   O     O_3   0.950418 0.673095 0.013138 -0.492063
H114  H     H_    0.939977 0.712009 0.984902 0.374589
S15   S     S_3+6 0.901626 0.411112 0.926220 0.052521
O79   O     O_2   0.863106 0.442030 0.856800 -0.350235
O80   O     O_2   0.933153 0.358782 0.884002 -0.208586
O81   O     O_3   0.858100 0.386506 0.009856 -0.525171
H115  H     H_    0.829816 0.357642 0.981392 0.371821
S16   S     S_3+6 0.098442 0.588859 0.073799 0.053155
O82   O     O_2   0.066921 0.641190 0.116020 -0.208292
O83   O     O_2   0.136950 0.557929 0.143221 -0.349256
O84   O     O_3   0.141982 0.613468 0.990181 -0.525262
H116  H     H_    0.170440 0.642125 0.018735 0.371979

loop_
_geom_bond_atom_site_label_1
_geom_bond_atom_site_label_2
_ccdc_geom_bond_type
C17   C73   S    
O24   C91   S    
C27   S13   S    
C116  H107  S    
C88   H28   S    
S9    O61   D    
C112  H98   S    
C83   H16   S    
C35   S7    S    
O15   Zn3   S    
C110  H93   S    
C31   C59   S    
C2    O10   A    
C79   H6    S    
C105  H80   S    
O75   H113  S    
C6    O14   A    
C70   C74   S    
S3    O37   S    
S14   O76   D    
C15   C51   T    
O54   C103  S    
O2    Zn2   S    
O13   Zn4   S    
C85   C86   S    
C27   C75   S    
C92   H39   S    
C30   S2    S    
C86   H25   S    
C101  H70   S    
S2    O32   D    
C20   N4    T    
C40   O24   S    
C83   C84   S    
O69   H111  S    
S12   O70   D    
C97   C98   S    
O40   H64   S    
C31   S3    S    
C23   S9    S    
C89   H32   S    
C38   C57   S    
S7    O47   D    
C4    O4    A    
C36   S8    S    
S14   O78   S    
S8    O51   D    
S10   O64   D    
C90   H35   S    
C95   C96   S    
C34   C54   S    
C3    O3    A    
C91   H36   S    
C87   H27   S    
C28   C71   S    
C88   H30   S    
S9    O63   S    
C113  C114  S    
S16   O82   D    
C41   C65   S    
C1    C48   S    
C33   S5    S    
C2    C47   S    
C3    C46   S    
S6    O46   S    
C25   C76   S    
C113  H100  S    
C44   C55   S    
C14   C50   T    
C39   C60   S    
C81   H12   S    
C82   H14   S    
O8    Zn3   S    
C116  H106  S    
S4    O38   D    
S13   O73   D    
C30   C61   S    
C94   H45   S    
C106  H82   S    
O18   C79   S    
C80   H9    S    
C99   H56   S    
C70   O17   S    
C78   H4    S    
C104  H76   S    
C31   C43   S    
S12   O72   S    
C9    C61   S    
C3    O11   A    
C11   C63   S    
C42   C53   S    
O55   C105  S    
C12   C64   S    
C98   H54   S    
S1    O30   D    
C102  H71   S    
C95   H46   S    
C59   C67   S    
C97   H51   S    
C53   C61   S    
C96   H49   S    
O3    Zn2   S    
C55   C63   S    
C56   C64   S    
C25   C71   S    
C99   C100  S    
C5    O5    A    
C100  H60   S    
O26   C95   S    
O53   C101  S    
C93   H42   S    
C94   H44   S    
C23   C70   S    
O49   H67   S    
S16   O84   S    
O43   H65   S    
C33   C66   S    
O46   H66   S    
C4    C45   S    
C14   C66   S    
O81   H115  S    
C105  C106  S    
S5    O41   D    
C43   O27   S    
C21   C69   S    
C8    O8    A    
C85   H22   S    
O60   C115  S    
O5    Zn3   S    
S4    O40   S    
S13   O75   S    
C15   C67   S    
N2    Zn1   S    
C114  H101  S    
S6    O45   D    
C108  H87   S    
S7    O48   D    
C100  H58   S    
S11   O68   D    
N4    Zn3   S    
C38   O22   S    
O7    Zn4   S    
C103  H74   S    
C104  H78   S    
C83   H17   S    
C29   C41   S    
C87   H26   S    
C30   C42   S    
C7    C50   S    
C107  H84   S    
C112  H97   S    
C39   O23   S    
C6    O6    A    
O9    Zn2   S    
C106  H83   S    
O19   C81   S    
O16   Zn4   S    
C110  H92   S    
C37   O21   S    
S1    O29   D    
S15   O81   S    
C97   H52   S    
C43   C67   S    
S3    O36   D    
C111  H94   S    
S14   O77   D    
C38   C62   S    
C22   C70   S    
C26   S16   S    
C103  C104  S    
C9    C45   T    
O17   C77   S    
C26   C72   S    
C11   C47   T    
C87   C88   S    
C12   C48   T    
C107  C108  S    
C92   H38   S    
O27   C97   S    
S5    O43   S    
C86   H24   S    
C101  C102  S    
S2    O33   D    
O4    Zn1   S    
C84   H18   S    
C115  H104  S    
C1    O1    A    
C114  H103  S    
C60   O59   S    
C77   C78   S    
S12   O71   D    
C94   H43   S    
C91   C92   S    
C7    O7    A    
C111  C112  S    
S10   O65   D    
O52   H68   S    
C69   C73   S    
C90   H34   S    
O6    Zn4   S    
O10   Zn1   S    
C84   H20   S    
C55   O56   S    
O57   C109  S    
C91   H37   S    
C109  C110  S    
C10   C62   S    
C88   H29   S    
S9    O62   D    
S10   O66   S    
S3    O35   D    
N3    Zn4   S    
C115  C116  S    
S16   O83   D    
C54   C62   S    
O34   H62   S    
C33   C37   S    
S1    O31   S    
C35   C39   S    
S15   O79   D    
O59   C113  S    
C36   C56   S    
C44   O28   S    
C5    O13   A    
O84   H116  S    
C17   N1    T    
O11   Zn1   S    
C19   N3    T    
C82   H13   S    
C85   H21   S    
S4    O39   D    
C21   C23   S    
C22   S12   S    
O21   C85   S    
C22   C24   S    
C2    O2    A    
S5    O42   D    
C32   C60   S    
C28   C76   S    
C92   H40   S    
C7    O15   A    
C80   H8    S    
C101  H69   S    
C99   H57   S    
C16   C52   T    
C54   O53   S    
C57   C65   S    
C40   C64   S    
C78   H3    S    
C102  H73   S    
O23   C89   S    
C98   H53   S    
O56   C107  S    
S8    O50   D    
C89   C90   S    
C24   S10   S    
O28   C99   S    
C95   H47   S    
O72   H112  S    
C60   C68   S    
C26   C75   S    
C96   H48   S    
C21   S11   S    
C109  H89   S    
C71   O20   S    
C8    C49   S    
C27   C72   S    
C4    O12   A    
C57   O58   S    
C115  H105  S    
S11   O67   D    
O25   C93   S    
O78   H114  S    
C8    O16   A    
C72   C76   S    
C36   C67   S    
O12   Zn2   S    
C13   C65   S    
O66   H110  S    
C58   O57   S    
C105  H79   S    
C35   C68   S    
C106  H81   S    
C113  H99   S    
C32   S4    S    
C20   C76   S    
C81   H11   S    
C82   H15   S    
C69   O18   S    
C58   C66   S    
C28   S14   S    
O31   H61   S    
S13   O74   D    
C41   O25   S    
C72   O19   S    
C10   C46   T    
C5    C52   S    
C16   C68   S    
C6    C51   S    
C108  H86   S    
C37   C58   S    
C18   N2    T    
C80   H10   S    
C18   C74   S    
C40   C59   S    
C56   O55   S    
C77   H1    S    
C23   C73   S    
C34   C65   S    
C24   C69   S    
C79   H7    S    
C33   C53   S    
C78   H5    S    
C103  H75   S    
C104  H77   S    
C35   C55   S    
C36   C40   S    
C98   H55   S    
C107  H85   S    
C100  H59   S    
C112  H96   S    
C21   C74   S    
S8    O52   S    
C102  H72   S    
C81   C82   S    
C59   O60   S    
C96   H50   S    
C110  H91   S    
C32   C44   S    
N1    Zn2   S    
C77   H2    S    
S15   O80   D    
C79   C80   S    
C13   C49   T    
O63   H109  S    
C29   S1    S    
C93   H41   S    
C116  H108  S    
C111  H95   S    
C44   C68   S    
C29   C62   S    
C1    O9    A    
C34   C38   S    
C31   C64   S    
C32   C63   S    
C29   C57   S    
C42   O26   S    
C37   C61   S    
C25   C27   S    
C39   C63   S    
C86   H23   S    
C26   C28   S    
C89   H31   S    
C19   C75   S    
O22   C87   S    
C71   C75   S    
C24   C74   S    
O20   C83   S    
O1    Zn1   S    
O14   Zn3   S    
C30   C58   S    
C114  H102  S    
C109  H90   S    
S6    O44   D    
C108  H88   S    
C53   O54   S    
C41   C54   S    
C43   C56   S    
S7    O49   S    
C93   C94   S    
O37   H63   S    
S11   O69   S    
C42   C66   S    
S2    O34   S    
C22   C73   S    
C84   H19   S    
C90   H33   S    
O58   C111  S    
C34   S6    S    
C25   S15   S    
