data_mof_unit_57853.cif
_audit_creation_date              2012-12-11T16:18:07-0500
_audit_creation_method            fapswitch 2.2
_symmetry_space_group_name_H-M    P1
_symmetry_Int_Tables_number       1
_space_group_crystal_system       triclinic
_cell_length_a                    14.057139
_cell_length_b                    14.063927
_cell_length_c                    30.072531
_cell_angle_alpha                 97.138801
_cell_angle_beta                  97.035912
_cell_angle_gamma                 61.319582
_cell_volume                      5161.92967029

loop_
_atom_site_label
_atom_site_type_symbol
_atom_type_description
_atom_site_fract_x
_atom_site_fract_y
_atom_site_fract_z
_atom_type_partial_charge
C1    C     C_R   0.385953 0.710516 0.442198 0.541575
C2    C     C_R   0.748426 0.289596 0.371628 -0.166722
C3    C     C_R   0.778332 0.267550 0.327789 -0.166652
C4    C     C_R   0.398679 0.380977 0.426577 0.547341
C5    C     C_R   0.831110 0.318304 0.312827 0.024055
C6    C     C_R   0.864935 0.382960 0.342984 0.299362
C7    C     C_R   0.832818 0.407545 0.387301 0.107584
C8    C     C_R   0.840826 0.397584 0.160472 -0.108259
C9    C     C_R   0.863769 0.389952 0.116009 -0.123589
C10   C     C_R   0.896909 0.202796 0.107381 -0.124810
C11   C     C_R   0.874055 0.210673 0.151881 -0.113420
C12   C     C_R   0.385984 0.238410 0.222555 -0.086361
C13   C     C_R   0.850020 0.306725 0.178762 0.034391
C14   C     C_1   0.843910 0.309361 0.225909 -0.011173
C15   C     C_1   0.839909 0.312200 0.265632 0.018247
C16   C     C_R   0.711318 0.404830 0.442749 0.559657
C17   C     C_R   0.896888 0.290874 0.089699 0.020266
C18   C     C_R   0.365054 0.769404 0.401981 -0.006660
C19   C     C_R   0.450527 0.776188 0.385234 -0.128014
C20   C     C_R   0.439656 0.807271 0.341971 -0.126619
C21   C     C_R   0.343158 0.832912 0.315295 0.046928
C22   C     C_R   0.253905 0.835740 0.333030 0.099693
C23   C     C_R   0.395472 0.244280 0.269601 0.295459
C24   C     C_R   0.265164 0.804128 0.376358 -0.098574
C25   C     C_R   0.249122 0.844776 0.154610 -0.107458
C26   C     C_R   0.231498 0.867682 0.109698 -0.127360
C27   C     C_R   0.385149 0.904339 0.118381 -0.126725
C28   C     C_R   0.389612 0.711697 0.568199 0.546906
C29   C     C_R   0.402395 0.881605 0.163333 -0.115050
C30   C     C_R   0.332040 0.855552 0.181694 0.038511
C31   C     C_1   0.338767 0.848536 0.228953 0.003866
C32   C     C_1   0.341146 0.843385 0.268556 0.022276
C33   C     C_R   0.296525 0.902216 0.091706 0.020767
C34   C     C_R   0.325856 0.340608 0.293704 0.032799
C35   C     C_R   0.365724 0.363940 0.592648 -0.002997
C36   C     C_R   0.430650 0.267904 0.614401 -0.098408
C37   C     C_R   0.412197 0.260233 0.658029 0.098566
C38   C     C_R   0.327597 0.348989 0.679965 0.050448
C39   C     C_R   0.257207 0.441056 0.657191 -0.109178
C40   C     C_R   0.402313 0.383248 0.552463 0.547557
C41   C     C_R   0.275838 0.448573 0.613660 -0.113949
C42   C     C_R   0.220058 0.412763 0.835490 -0.102100
C43   C     C_R   0.211484 0.393604 0.878833 -0.112660
C44   C     C_R   0.393433 0.240434 0.878590 -0.126650
C45   C     C_R   0.310753 0.329068 0.199776 -0.009206
C46   C     C_R   0.401661 0.259749 0.835278 -0.107262
C47   C     C_R   0.313489 0.343274 0.813221 0.034360
C48   C     C_1   0.315165 0.349734 0.766403 0.006974
C49   C     C_1   0.318696 0.350475 0.726856 0.027300
C50   C     C_R   0.296305 0.304152 0.899949 0.015109
C51   C     C_1   0.762157 0.376715 0.612516 0.000921
C52   C     C_R   0.712885 0.407886 0.568540 0.552021
C53   C     C_R   0.843691 0.408887 0.727169 -0.076754
C54   C     C_R   0.860656 0.397098 0.773389 0.109773
C55   C     C_R   0.827741 0.240914 0.761119 -0.123925
C56   C     C_1   0.299630 0.319278 0.151651 -0.052474
C57   C     C_R   0.810612 0.253307 0.714918 -0.104429
C58   C     C_R   0.818974 0.337104 0.697884 0.013627
C59   C     C_R   0.852327 0.312860 0.790530 0.046276
C60   C     C_1   0.876583 0.295872 0.837673 -0.015695
C61   C     C_1   0.792452 0.355905 0.650999 -0.045326
C62   C     C_1   0.905106 0.283101 0.876876 0.014479
C63   C     C_1   0.375375 0.758899 0.613468 0.012232
C64   C     C_1   0.363801 0.362645 0.381254 0.002895
C65   C     C_R   0.300550 0.763342 0.721194 0.296542
C66   C     C_R   0.292880 0.780465 0.767877 -0.082223
C67   C     C_1   0.342212 0.351469 0.341698 -0.020826
C68   C     C_R   0.383585 0.891196 0.772541 -0.110179
C69   C     C_R   0.393404 0.872761 0.726146 -0.146133
C70   C     C_R   0.352013 0.808997 0.700389 0.040370
C71   C     C_R   0.333532 0.844903 0.793469 -0.007187
C72   C     C_1   0.315290 0.871577 0.840447 -0.046082
C73   C     C_1   0.364764 0.786632 0.652854 -0.005842
C74   C     C_1   0.294323 0.901822 0.878970 -0.003492
C75   C     C_R   0.950898 0.272985 0.048252 0.541940
C76   C     C_R   0.249672 0.430837 0.270785 -0.160832
C77   C     C_R   0.275124 0.270001 0.065519 0.545949
C78   C     C_1   0.289720 0.302396 0.111633 -0.008440
C79   C     C_R   0.260357 0.954712 0.049067 0.542673
C80   C     C_R   0.952211 0.269143 0.922115 0.550652
C81   C     C_R   0.276565 0.266391 0.939656 0.542006
C82   C     C_R   0.261562 0.950842 0.922897 0.548638
C83   C     C_R   0.241958 0.425033 0.223861 -0.117288
C84   C     C_3   0.149678 0.758396 0.687441 -0.123907
C85   C     C_3   0.572441 0.150011 0.294453 -0.117450
C86   C     C_3   0.030382 0.356371 0.327627 -0.088798
C87   C     C_R   0.769377 0.364362 0.401156 -0.018303
Cr1   Cr    Cr6+3 0.581000 0.584320 0.508140 1.061976
Cr2   Cr    Cr6+3 0.339110 0.576430 0.496080 1.046350
Cr3   Cr    Cr6+3 0.579910 0.339270 0.495810 1.038236
Cr4   Cr    Cr6+3 0.082090 0.079210 0.982490 1.027022
Cr5   Cr    Cr6+3 0.082460 0.324610 0.994920 1.037874
Cr6   Cr    Cr6+3 0.323630 0.087860 0.996130 1.027756
H1    H     H_    0.197461 0.506092 0.289214 0.141638
H2    H     H_    0.436660 0.930639 0.105489 0.132814
H3    H     H_    0.182433 0.494988 0.206420 0.135467
H4    H     H_    0.508616 0.805395 0.328458 0.136087
H5    H     H_    0.135808 0.444334 0.894484 0.157246
H6    H     H_    0.151808 0.477966 0.818517 0.145705
H7    H     H_    0.191256 0.509262 0.673926 0.129064
H8    H     H_    0.224109 0.523472 0.597721 0.145287
H9    H     H_    0.499796 0.201326 0.598728 0.159706
H10   H     H_    0.474441 0.205924 0.818120 0.139731
H11   H     H_    0.460301 0.171316 0.894050 0.138223
H12   H     H_    0.880666 0.140234 0.165930 0.121128
H13   H     H_    0.848617 0.474772 0.714179 0.140498
H14   H     H_    0.437465 0.163143 0.203906 0.119560
H15   H     H_    0.822142 0.175161 0.773875 0.125722
H16   H     H_    0.789900 0.198301 0.692566 0.136956
H17   H     H_    0.253835 0.744806 0.783919 0.123404
H18   H     H_    0.414039 0.942376 0.792028 0.140285
H19   H     H_    0.432980 0.908287 0.710387 0.154268
H20   H     H_    0.862629 0.459246 0.103275 0.134830
H21   H     H_    0.821493 0.472447 0.181195 0.126578
H22   H     H_    0.701461 0.253843 0.381228 0.150638
H23   H     H_    0.922053 0.125432 0.087970 0.131596
H24   H     H_    0.127994 0.832317 0.669987 0.124631
H25   H     H_    0.106908 0.781135 0.718896 0.117321
H26   H     H_    0.120393 0.707887 0.664793 0.138583
H27   H     H_    0.570698 0.224942 0.312420 0.114111
H28   H     H_    0.602414 0.136547 0.260468 0.110251
H29   H     H_    0.631288 0.080374 0.313863 0.158427
H30   H     H_    0.044710 0.286022 0.302835 0.125178
H31   H     H_    0.065596 0.327574 0.361609 0.138879
H32   H     H_    0.074258 0.397025 0.317393 0.153355
H33   H     H_    0.754542 0.215727 0.304759 0.120082
H34   H     H_    0.162829 0.865079 0.089983 0.131343
H35   H     H_    0.194762 0.824008 0.168752 0.134681
H36   H     H_    0.197870 0.800713 0.388823 0.161270
H37   H     H_    0.528327 0.750465 0.404273 0.156859
H38   H     H_    0.467070 0.889568 0.184236 0.120206
I1    I     I_    0.103834 0.877872 0.294668 -0.435663
I2    I     I_    0.519886 0.116695 0.690385 -0.445381
I3    I     I_    0.898635 0.508772 0.815556 -0.426120
I4    I     I_    0.884092 0.508659 0.431042 -0.310930
O1    O     O_R   0.688580 0.499770 0.460490 -0.476513
O2    O     O_R   0.346150 0.177650 0.050510 -0.510960
O3    O     O_R   0.314200 0.996600 0.036060 -0.502239
O4    O     O_R   0.480400 0.672610 0.462660 -0.498859
O5    O     O_R   0.168690 0.969990 0.933130 -0.504245
O6    O     O_R   0.991920 0.175870 0.937430 -0.498221
O7    O     O_R   0.974010 0.342590 0.941330 -0.490688
O8    O     O_R   0.182630 0.317940 0.955040 -0.499897
O9    O     O_R   0.347320 0.174720 0.953250 -0.514525
O10   O     O_R   0.315290 0.993890 0.945900 -0.491787
O11   O     O_3   0.162730 0.163890 0.991180 -0.247705
O12   O     O_R   0.348600 0.476260 0.536540 -0.497058
O13   O     O_R   0.315310 0.685650 0.451800 -0.511251
O14   O     O_R   0.346220 0.474990 0.446280 -0.489913
O15   O     O_R   0.492270 0.312460 0.441630 -0.506715
O16   O     O_R   0.669740 0.350480 0.455640 -0.506978
O17   O     O_R   0.691150 0.501150 0.557860 -0.494998
O18   O     O_R   0.482790 0.673890 0.552920 -0.491808
O19   O     O_R   0.317880 0.687030 0.549170 -0.503989
O20   O     O_3   0.263056 0.697086 0.696187 -0.565081
O21   O     O_3   0.469612 0.154424 0.291972 -0.560339
O22   O     O_3   0.918869 0.432053 0.328100 -0.542858
O23   O     O_R   0.494840 0.313840 0.539010 -0.511770
O24   O     O_R   0.672120 0.351750 0.545910 -0.493569
O25   O     O_3   0.500010 0.500010 0.500010 -0.256625
O26   O     O_R   0.167510 0.972920 0.030390 -0.518552
O27   O     O_R   0.990840 0.178580 0.027590 -0.503450
O28   O     O_R   0.972840 0.345510 0.038590 -0.514312
O29   O     O_R   0.181550 0.320660 0.045200 -0.493370

loop_
_geom_bond_atom_site_label_1
_geom_bond_atom_site_label_2
_ccdc_geom_bond_type
Cr2   O13   S    
C8    C13   A    
C55   C59   A    
C27   C29   A    
C27   H2    S    
C35   C36   A    
C51   C61   T    
C43   H5    S    
Cr3   O15   S    
C6    O22   S    
C44   H11   S    
C3    H33   S    
C39   C41   A    
C38   C49   S    
C53   C54   A    
C27   C33   A    
C4    O14   A    
C12   C23   A    
C1    C18   S    
C29   C30   A    
Cr2   O25   S    
C75   O27   A    
C18   C24   A    
C5    C6    A    
C60   C62   T    
C36   C37   A    
C25   H35   S    
C77   O2    A    
C84   H24   S    
C84   H26   S    
C30   C31   S    
C69   H19   S    
C10   C17   A    
C44   C50   A    
C65   C70   A    
C54   I3    S    
C56   C78   T    
C36   H9    S    
C18   C19   A    
C39   H7    S    
Cr3   O24   S    
Cr5   O8    S    
C82   O5    A    
Cr6   O3    S    
C76   H1    S    
C21   C22   A    
C53   H13   S    
C81   O9    A    
C57   H16   S    
C20   H4    S    
C66   C71   A    
C45   C56   S    
C68   C69   A    
C11   H12   S    
C16   C87   S    
Cr4   O27   S    
C85   H28   S    
Cr5   O7    S    
C1    O4    A    
C8    H21   S    
C42   C47   A    
Cr5   O29   S    
C52   O24   A    
Cr2   O14   S    
C59   C60   S    
C13   C14   S    
C86   H32   S    
C28   O19   A    
Cr1   O17   S    
C45   C83   A    
C79   O26   A    
C24   H36   S    
C76   C83   A    
C44   C46   A    
C54   C59   A    
C38   C39   A    
C21   C32   S    
C7    C87   A    
Cr5   O11   S    
C51   C52   S    
C64   C67   T    
Cr6   O11   S    
Cr1   O1    S    
C72   C74   T    
C8    C9    A    
C63   C73   T    
C3    C5    A    
C25   C26   A    
C77   C78   S    
C68   H18   S    
Cr3   O23   S    
C85   H27   S    
Cr1   O4    S    
C7    I4    S    
C37   C38   A    
C2    H22   S    
C26   C33   A    
C31   C32   T    
C52   O17   A    
C23   C34   A    
C70   C73   S    
C85   H29   S    
C66   H17   S    
Cr6   O10   S    
Cr6   O9    S    
Cr5   O28   S    
C9    C17   A    
C48   C49   T    
C80   O6    A    
C80   O7    A    
C55   C57   A    
C86   H31   S    
C28   O18   A    
C37   I2    S    
C42   C43   A    
C16   O1    A    
C82   O10   A    
C10   H23   S    
C77   O29   A    
C74   C82   S    
C62   C80   S    
C25   C30   A    
Cr2   O12   S    
C46   C47   A    
C40   O12   A    
C22   I1    S    
C33   C79   S    
Cr3   O16   S    
C47   C48   S    
C34   C67   S    
C12   H14   S    
Cr2   O19   S    
C53   C58   A    
C43   C50   A    
C6    C7    A    
C12   C45   A    
C4    O15   A    
C46   H10   S    
C4    C64   S    
C55   H15   S    
C9    H20   S    
Cr1   O18   S    
C19   C20   A    
C2    C3    A    
C71   C72   S    
C65   O20   S    
C42   H6    S    
C11   C13   A    
C57   C58   A    
C29   H38   S    
C75   O28   A    
C58   C61   S    
C68   C71   A    
C83   H3    S    
C84   O20   S    
C41   H8    S    
C35   C40   S    
C16   O16   A    
C22   C24   A    
C26   H34   S    
Cr1   O25   S    
Cr3   O25   S    
C69   C70   A    
C35   C41   A    
C86   O22   S    
C5    C15   S    
Cr6   O2    S    
C10   C11   A    
C40   O23   A    
Cr4   O5    S    
C28   C63   S    
C2    C87   A    
C81   O8    A    
C79   O3    A    
C20   C21   A    
C84   H25   S    
C65   C66   A    
C86   H30   S    
C17   C75   S    
C14   C15   T    
Cr4   O26   S    
C1    O13   A    
C19   H37   S    
C23   O21   S    
C85   O21   S    
Cr4   O11   S    
C50   C81   S    
C34   C76   A    
Cr4   O6    S    
