data_mof_unit_9793.cif
_audit_creation_date              2012-12-10T17:12:02-0500
_audit_creation_method            fapswitch 2.2
_symmetry_space_group_name_H-M    P1
_symmetry_Int_Tables_number       1
_space_group_crystal_system       triclinic
_cell_length_a                    11.664584
_cell_length_b                    13.000515
_cell_length_c                    15.868182
_cell_angle_alpha                 92.42688
_cell_angle_beta                  73.286118
_cell_angle_gamma                 99.930705
_cell_volume                      2270.08095924

loop_
_atom_site_label
_atom_site_type_symbol
_atom_type_description
_atom_site_fract_x
_atom_site_fract_y
_atom_site_fract_z
_atom_type_partial_charge
C1    C     C_R   0.520872 0.700860 0.501236 0.803086
C2    C     C_R   0.479051 0.299141 0.498912 0.801474
C3    C     C_R   0.352248 0.477328 0.089211 -0.224316
C4    C     C_R   0.643247 0.492043 0.910444 -0.226714
C5    C     C_R   0.268064 0.466077 0.041636 -0.217923
C6    C     C_R   0.726901 0.496004 0.957829 -0.218562
C7    C     C_R   0.466737 0.185687 0.498760 -0.051718
C8    C     C_R   0.533016 0.814320 0.501715 -0.051416
C9    C     C_R   0.654044 0.985043 0.503690 -0.212898
C10   C     C_R   0.345563 0.014972 0.497088 -0.211573
C11   C     C_R   0.642959 0.876893 0.503915 -0.201385
C12   C     C_R   0.356702 0.123127 0.496756 -0.203729
C13   C     C_R   0.433972 0.860594 0.499609 -0.260657
C14   C     C_R   0.565714 0.139407 0.500997 -0.259789
C15   C     C_R   0.444345 0.968655 0.499373 0.174234
C16   C     C_R   0.555279 0.031350 0.501360 0.174270
C17   C     C_R   0.942105 0.604180 0.576659 0.149893
C18   C     C_R   0.057184 0.395111 0.424492 0.144526
C19   C     C_R   0.823291 0.592923 0.569169 -0.002988
C20   C     C_R   0.176055 0.406205 0.431776 0.004307
C21   C     C_R   0.857989 0.454254 0.468289 0.037052
C22   C     C_R   0.142354 0.546235 0.531343 0.033650
C23   C     C_R   0.425691 0.493355 0.668519 0.815663
C24   C     C_R   0.574241 0.505592 0.331401 0.819073
C25   C     C_R   0.978569 0.461825 0.472791 -0.037018
C26   C     C_R   0.021292 0.538100 0.527654 -0.027297
C27   C     C_R   0.379683 0.484676 0.765545 -0.092563
C28   C     C_R   0.619646 0.507783 0.234105 -0.095018
C29   C     C_R   0.219337 0.458230 0.903503 -0.267370
C30   C     C_R   0.776481 0.503557 0.095546 -0.266252
C31   C     C_R   0.254791 0.461680 0.811402 0.258255
C32   C     C_R   0.742545 0.506966 0.187564 0.257675
C33   C     C_R   0.465538 0.498453 0.813134 -0.310688
C34   C     C_R   0.534558 0.506944 0.186959 -0.312925
C35   C     C_R   0.431449 0.486498 0.904995 0.088281
C36   C     C_R   0.566290 0.499214 0.094798 0.087856
C37   C     C_R   0.306089 0.470528 0.950181 0.131899
C38   C     C_R   0.690099 0.499966 0.049266 0.132600
C39   C     C_R   0.518453 0.491091 0.953052 0.079926
C40   C     C_R   0.478613 0.490448 0.046787 0.079378
Cu1   Cu    Cu3+1 0.386820 0.492450 0.493500 0.938469
Cu2   Cu    Cu3+1 0.613180 0.507550 0.506500 0.939979
H1    H     H_    0.172153 0.454025 0.076946 0.138918
H2    H     H_    0.821381 0.495478 0.922401 0.137187
H3    H     H_    0.236439 0.354890 0.395311 0.135052
H4    H     H_    0.762261 0.643341 0.606344 0.130565
H5    H     H_    0.443302 0.513479 0.224045 0.169355
H6    H     H_    0.559444 0.521120 0.777049 0.165864
H7    H     H_    0.123380 0.443354 0.938654 0.127127
H8    H     H_    0.871020 0.503234 0.060121 0.128561
H9    H     H_    0.314176 0.471574 0.159434 0.139123
H10   H     H_    0.679182 0.485468 0.840243 0.141391
H11   H     H_    0.651071 0.187228 0.502411 0.155189
H12   H     H_    0.348650 0.812767 0.498125 0.156183
H13   H     H_    0.279218 0.157647 0.495123 0.153044
H14   H     H_    0.720448 0.842388 0.505559 0.153288
H15   H     H_    0.739560 0.032327 0.505245 0.134871
H16   H     H_    0.260022 0.967693 0.495589 0.136647
H17   H     H_    0.177790 0.604162 0.572463 0.169866
H18   H     H_    0.823270 0.397126 0.426233 0.174755
N1    N     N_R   0.216750 0.481110 0.483710 -0.200957
N2    N     N_R   0.783250 0.518890 0.516290 -0.200448
O1    O     O_R   0.419950 0.645670 0.495380 -0.590013
O2    O     O_R   0.580050 0.354330 0.504620 -0.588523
O3    O     O_R   0.611110 0.658410 0.506370 -0.595443
O4    O     O_R   0.388890 0.341590 0.493630 -0.596267
O5    O     O_R   0.350820 0.490050 0.621260 -0.545202
O6    O     O_R   0.649180 0.509950 0.378740 -0.544312
O7    O     O_R   0.541970 0.502800 0.632250 -0.591704
O8    O     O_R   0.458030 0.497200 0.367750 -0.592149
N3    N     N_2   0.980888 0.682219 0.632754 -0.448432
H19   H     H_    0.945181 0.749726 0.633844 0.246909
C41   C     C_3   0.965574 0.644940 0.720510 -0.720994
H20   H     H_    0.867499 0.621980 0.755328 0.221736
H21   H     H_    0.005768 0.707855 0.758132 0.234886
H22   H     H_    0.012242 0.576887 0.717719 0.239170
N4    N     N_2   0.017004 0.316150 0.369807 -0.446523
H23   H     H_    0.033575 0.243551 0.381845 0.247410
C42   C     C_3   0.059628 0.342394 0.277149 -0.727315
H24   H     H_    0.158342 0.340044 0.251598 0.218983
H25   H     H_    0.042997 0.421544 0.265902 0.236539
H26   H     H_    0.010456 0.284994 0.240485 0.234794
N5    N     N_2   0.832247 0.507079 0.232160 -0.416115
H27   H     H_    0.894680 0.459600 0.202921 0.236539
C43   C     C_3   0.890680 0.610242 0.248903 -0.658512
H28   H     H_    0.822211 0.658012 0.285525 0.240252
H29   H     H_    0.952480 0.603525 0.289409 0.220813
H30   H     H_    0.944656 0.650161 0.185854 0.209936
N6    N     N_2   0.164141 0.442555 0.766219 -0.419800
H31   H     H_    0.084665 0.468308 0.799878 0.231566
C44   C     C_3   0.140972 0.335796 0.737539 -0.647601
H32   H     H_    0.226141 0.311038 0.696546 0.235483
H33   H     H_    0.100581 0.282631 0.795412 0.209209
H34   H     H_    0.076377 0.329450 0.697288 0.220350

loop_
_geom_bond_atom_site_label_1
_geom_bond_atom_site_label_2
_ccdc_geom_bond_type
C8    C13   A    
C5    C37   A    
C1    C8    S    
Cu1   Cu2   S    
C23   O7    A    
C2    C7    S    
Cu1   N1    S    
C19   H4    S    
C24   O8    A    
Cu1   O5    S    
C29   H7    S    
C43   H28   S    
C27   C33   A    
C4    H10   S    
C17   C26   A    
C35   C37   A    
C9    C16   A    
C10   C15   A    
C8    C11   A    
C19   N2    A    
C15   C16   A    
C30   C38   A    
C41   H20   S    
C23   O5    A    
C20   N1    A    
C9    H15   S    
C17   C19   A    
C7    C14   A    
C31   N6    S    
Cu2   O3    S    
C1    O3    A    
C6    C38   A    
C23   C27   S    
N6    C44   S    
Cu2   N2    S    
C18   C20   A    
C20   H3    S    
C43   H29   S    
C5    H1    S    
C28   C34   A    
C22   H17   S    
C6    H2    S    
Cu2   O6    S    
C41   H21   S    
C18   C25   A    
C1    O1    A    
C2    O2    A    
N4    C42   S    
C7    C12   A    
C27   C31   A    
C28   C32   A    
C21   H18   S    
C4    C6    A    
C44   H32   S    
N3    C41   S    
C3    H9    S    
C3    C5    A    
C25   C26   A    
N4    H23   S    
Cu2   O7    S    
C35   C39   A    
C44   H33   S    
N5    H27   S    
C4    C39   A    
C36   C40   A    
C9    C11   A    
C21   N2    A    
C10   C12   A    
N5    C43   S    
C3    C40   A    
C17   N3    S    
C13   C15   A    
C41   H22   S    
C14   C16   A    
Cu1   O1    S    
Cu2   O2    S    
C39   C40   A    
C42   H25   S    
C13   H12   S    
C43   H30   S    
C32   N5    S    
C21   C25   A    
C10   H16   S    
C24   C28   S    
C2    O4    A    
C42   H26   S    
Cu1   O4    S    
C36   C38   A    
N3    H19   S    
C29   C31   A    
C44   H34   S    
C30   C32   A    
C18   N4    S    
C33   C35   A    
C34   C36   A    
C30   H8    S    
C12   H13   S    
C24   O6    A    
C42   H24   S    
C14   H11   S    
C22   C26   A    
C29   C37   A    
C33   H6    S    
C34   H5    S    
N6    H31   S    
C11   H14   S    
Cu1   O8    S    
C22   N1    A    
