data_mof_unit_68313.cif
_audit_creation_date              2012-12-11T15:45:03-0500
_audit_creation_method            fapswitch 2.2
_symmetry_space_group_name_H-M    P1
_symmetry_Int_Tables_number       1
_space_group_crystal_system       triclinic
_cell_length_a                    19.669225
_cell_length_b                    11.306249
_cell_length_c                    18.561434
_cell_angle_alpha                 90.735426
_cell_angle_beta                  89.531018
_cell_angle_gamma                 90.347233
_cell_volume                      4127.23588694

loop_
_atom_site_label
_atom_site_type_symbol
_atom_type_description
_atom_site_fract_x
_atom_site_fract_y
_atom_site_fract_z
_atom_type_partial_charge
C1    C     C_R   0.760353 0.534303 0.646381 0.517052
C2    C     C_R   0.178539 0.070166 0.547261 -0.176192
C3    C     C_R   0.527740 0.953530 0.955329 -0.028173
C4    C     C_R   0.041852 0.267575 0.945691 -0.198149
C5    C     C_R   0.057493 0.259231 0.018346 -0.203445
C6    C     C_R   0.535114 0.741972 0.948156 -0.166244
C7    C     C_R   0.556028 0.740785 0.020472 -0.176946
C8    C     C_3   0.960850 0.532926 0.066676 0.547807
C9    C     C_3   0.940506 0.538074 0.986330 0.574650
C10   C     C_3   0.493794 0.043188 0.049983 0.569771
C11   C     C_3   0.488146 0.066565 0.969047 0.542577
C12   C     C_R   0.757972 0.536935 0.848529 0.546053
C13   C     C_R   0.317424 0.597291 0.447425 -0.202178
C14   C     C_R   0.238759 0.525856 0.146707 0.549019
C15   C     C_R   0.258895 0.035106 0.849592 0.536610
C16   C     C_R   0.738574 0.027013 0.147094 0.526572
C17   C     C_R   0.773426 0.128083 0.852472 0.557085
C18   C     C_R   0.209326 0.170730 0.140593 0.533310
C19   C     C_R   0.274789 0.629780 0.852966 0.559328
C20   C     C_R   0.707756 0.672851 0.140803 0.534270
C21   C     C_R   0.968035 0.348402 0.853032 0.549516
C22   C     C_R   0.055534 0.349324 0.139005 0.543995
C23   C     C_R   0.471028 0.848682 0.852340 0.552170
C24   C     C_R   0.678457 0.570166 0.547362 -0.174866
C25   C     C_R   0.563522 0.850649 0.140057 0.549935
C26   C     C_R   0.753046 0.104537 0.417774 -0.012028
C27   C     C_R   0.238839 0.104573 0.582627 -0.012358
C28   C     C_R   0.253052 0.605490 0.417527 -0.013808
C29   C     C_R   0.738844 0.604205 0.582655 -0.008146
C30   C     C_R   0.699527 0.147464 0.460786 0.005531
C31   C     C_R   0.273545 0.199536 0.550730 -0.045827
C32   C     C_R   0.199462 0.647630 0.460760 0.006198
C33   C     C_R   0.773978 0.698392 0.550658 -0.041662
C34   C     C_R   0.708354 0.160390 0.535446 0.077410
C35   C     C_3   0.671859 0.270749 0.457636 -0.222666
C36   C     C_R   0.258525 0.236117 0.481222 0.040422
C37   C     C_R   0.208482 0.660609 0.535425 0.077628
C38   C     C_R   0.759060 0.735169 0.481165 0.043604
C39   C     C_3   0.999105 0.977325 0.944311 -0.317450
C40   C     C_3   0.082554 0.949243 0.102604 -0.265083
C41   C     C_3   0.467537 0.468847 0.865951 -0.276193
C42   C     C_3   0.565937 0.438535 0.108672 -0.210036
C43   C     C_3   0.890575 0.864668 0.857248 -0.080328
C44   C     C_3   0.243297 0.875753 0.176698 -0.081364
C45   C     C_3   0.341276 0.334177 0.842182 -0.091674
C46   C     C_3   0.345800 0.234710 0.543364 -0.247482
C47   C     C_3   0.757399 0.349117 0.139911 -0.119804
C48   C     C_3   0.007955 0.693040 0.133056 -0.071027
C49   C     C_3   0.865919 0.686327 0.001721 -0.048648
C50   C     C_3   0.484134 0.186212 0.144113 -0.026199
C51   C     C_3   0.387784 0.162962 0.981493 -0.080057
C52   C     C_3   0.901423 0.478363 0.176187 -0.110430
C53   C     C_3   0.046458 0.604701 0.936935 -0.129496
C54   C     C_3   0.405508 0.889562 0.062014 -0.124703
C55   C     C_3   0.533030 0.172074 0.871680 -0.109569
C56   C     C_3   0.602101 0.308378 0.641918 -0.075404
C57   C     C_3   0.171447 0.770718 0.457786 -0.224897
C58   C     C_3   0.392720 0.308480 0.360789 -0.087207
C59   C     C_3   0.102286 0.808898 0.642260 -0.073742
C60   C     C_3   0.893060 0.805262 0.360372 -0.082667
C61   C     C_3   0.921289 0.152698 0.313896 -0.301916
C62   C     C_3   0.086636 0.157576 0.681590 -0.299187
C63   C     C_3   0.424183 0.647419 0.311668 -0.293869
C64   C     C_3   0.586793 0.657883 0.681961 -0.301773
C65   C     C_3   0.863091 0.459386 0.377990 -0.266880
C66   C     C_3   0.128871 0.464339 0.648273 -0.287323
C67   C     C_3   0.357365 0.967167 0.386218 -0.255807
C68   C     C_3   0.846548 0.730774 0.542999 -0.241814
C69   C     C_3   0.627992 0.965282 0.647834 -0.288235
C70   C     C_3   0.676146 0.279740 0.538863 0.170851
C71   C     C_3   0.328222 0.284548 0.468949 0.164064
C72   C     C_3   0.176017 0.779741 0.538974 0.171692
C73   C     C_R   0.238886 0.534925 0.352804 0.538454
C74   C     C_3   0.829208 0.781623 0.468877 0.166420
C75   C     C_R   0.772252 0.135072 0.565437 -0.022078
C76   C     C_R   0.211207 0.172652 0.439136 0.008566
C77   C     C_R   0.272581 0.636101 0.565196 -0.022593
C78   C     C_R   0.711471 0.672162 0.439149 0.009486
C79   C     C_R   0.997727 0.325572 0.425529 -0.008925
C80   C     C_R   0.008575 0.326082 0.576991 -0.017629
C81   C     C_R   0.497668 0.824362 0.425449 -0.010457
C82   C     C_R   0.508467 0.825866 0.576939 -0.017479
C83   C     C_R   0.989366 0.102384 0.424445 0.153144
C84   C     C_R   0.260344 0.034465 0.646391 0.516907
C85   C     C_R   0.013777 0.104516 0.575389 0.162736
C86   C     C_R   0.490202 0.600731 0.424738 0.150633
C87   C     C_R   0.513818 0.604300 0.575927 0.164120
C88   C     C_R   0.995488 0.998502 0.463394 -0.169984
C89   C     C_R   0.004662 0.999610 0.536842 -0.154562
C90   C     C_R   0.495825 0.497314 0.464281 -0.168610
C91   C     C_R   0.504440 0.499184 0.537775 -0.152384
C92   C     C_R   0.006886 0.214823 0.539092 -0.008646
C93   C     C_R   0.998212 0.214127 0.461501 -0.010213
C94   C     C_R   0.507038 0.714298 0.539257 -0.009129
C95   C     C_R   0.738868 0.034773 0.352833 0.536970
C96   C     C_R   0.498589 0.712970 0.461536 -0.012193
C97   C     C_R   0.018265 0.428147 0.536981 -0.028107
C98   C     C_R   0.992604 0.427535 0.467113 -0.021587
C99   C     C_R   0.517648 0.927700 0.536641 -0.026946
C100  C     C_R   0.491680 0.926052 0.466950 -0.018642
C101  C     C_R   0.787962 0.162260 0.639121 0.543726
C102  C     C_R   0.207201 0.175005 0.360141 0.581761
C103  C     C_R   0.288126 0.662659 0.639100 0.546826
C104  C     C_R   0.707219 0.674972 0.360169 0.572825
C105  C     C_R   0.035746 0.536778 0.569700 0.219378
C106  C     C_R   0.826552 0.106409 0.520838 -0.192798
C107  C     C_R   0.967892 0.531820 0.437662 0.200408
C108  C     C_R   0.535022 0.036871 0.568777 0.219916
C109  C     C_R   0.466161 0.029169 0.437205 0.188948
C110  C     C_R   0.007462 0.637429 0.541254 -0.080767
C111  C     C_R   0.983346 0.637891 0.472277 -0.121809
C112  C     C_R   0.507184 0.137234 0.539406 -0.081899
C113  C     C_R   0.482103 0.136005 0.470754 -0.126419
C114  C     C_R   0.748741 0.072783 0.075415 0.023058
C115  C     C_R   0.245759 0.077824 0.921874 0.016413
C116  C     C_R   0.251076 0.568301 0.074471 0.054472
C117  C     C_R   0.165967 0.100180 0.476461 -0.173020
C118  C     C_R   0.741248 0.581044 0.919993 0.046680
C119  C     C_R   0.812794 0.071340 0.042579 -0.070524
C120  C     C_R   0.257446 0.999507 0.977514 -0.032194
C121  C     C_R   0.313742 0.547558 0.039475 -0.047878
C122  C     C_R   0.741885 0.497995 0.974737 0.012282
C123  C     C_R   0.818857 0.086995 0.969579 0.067028
C124  C     C_R   0.238108 0.026190 0.046861 0.048240
C125  C     C_R   0.321809 0.565178 0.966286 0.088558
C126  C     C_R   0.724857 0.527412 0.044298 0.064251
C127  C     C_R   0.697507 0.108065 0.958870 -0.192745
C128  C     C_R   0.327009 0.609353 0.520263 -0.192439
C129  C     C_R   0.216226 0.226608 0.011617 -0.186523
C130  C     C_R   0.203867 0.623115 0.960594 -0.210178
C131  C     C_R   0.710948 0.730996 0.009998 -0.192911
C132  C     C_R   0.691528 0.097041 0.033178 -0.099051
C133  C     C_R   0.221857 0.191572 0.938834 -0.148694
C134  C     C_R   0.196204 0.607245 0.034028 -0.127135
C135  C     C_R   0.720477 0.697445 0.936795 -0.171007
C136  C     C_3   0.865569 0.976385 0.040997 -0.222166
C137  C     C_3   0.233536 0.876745 0.983306 -0.176596
C138  C     C_3   0.351600 0.433840 0.033977 -0.215952
C139  C     C_R   0.666033 0.600084 0.476515 -0.171519
C140  C     C_3   0.710116 0.379186 0.977557 -0.179253
C141  C     C_3   0.873351 0.996013 0.960001 0.405647
C142  C     C_3   0.203990 0.906197 0.057737 0.406190
C143  C     C_3   0.361238 0.452735 0.952649 0.411935
C144  C     C_3   0.681512 0.415051 0.050748 0.412609
C145  C     C_R   0.761290 0.099569 0.926578 0.025465
C146  C     C_R   0.221665 0.141537 0.066083 -0.020128
C147  C     C_R   0.264764 0.599111 0.926527 0.038800
C148  C     C_R   0.714252 0.644873 0.064451 -0.011329
C149  C     C_R   0.971646 0.343840 0.647277 0.554716
C150  C     C_R   0.817114 0.094144 0.448095 -0.200620
C151  C     C_R   0.029518 0.343898 0.353215 0.568546
C152  C     C_R   0.471649 0.843812 0.647278 0.559255
C153  C     C_R   0.529528 0.843656 0.353210 0.577183
C154  C     C_R   0.027760 0.335873 0.068800 -0.005500
C155  C     C_R   0.990737 0.344738 0.925405 -0.003001
C156  C     C_R   0.555970 0.845096 0.062055 -0.038139
C157  C     C_R   0.514318 0.847884 0.916581 -0.028109
C158  C     C_R   0.974444 0.405926 0.048492 -0.033105
C159  C     C_R   0.953465 0.407245 0.978144 0.003127
C160  C     C_R   0.542520 0.948864 0.027595 -0.016333
Cr1   Cr    Cr6+3 0.885860 0.491680 0.749630 1.013488
Cr2   Cr    Cr6+3 0.112430 0.179310 0.249850 0.950875
Cr3   Cr    Cr6+3 0.387570 0.679310 0.750150 0.965414
Cr4   Cr    Cr6+3 0.612430 0.679310 0.249850 0.961291
Cr5   Cr    Cr6+3 0.114140 0.491680 0.250370 0.979129
Cr6   Cr    Cr6+3 0.385860 0.991680 0.749630 0.982521
Cr7   Cr    Cr6+3 0.614140 0.991680 0.250370 1.008411
Cr8   Cr    Cr6+3 0.730490 0.332970 0.748720 0.936152
Cr9   Cr    Cr6+3 0.269510 0.332970 0.251280 0.945230
Cr10  Cr    Cr6+3 0.230490 0.832970 0.748720 0.942983
Cr11  Cr    Cr6+3 0.769510 0.832970 0.251280 0.950308
Cr12  Cr    Cr6+3 0.887570 0.179310 0.750150 0.998544
H1    H     H_    0.876572 0.092697 0.542425 0.159487
H2    H     H_    0.201572 0.316499 0.025023 0.123495
H3    H     H_    0.562143 0.252916 0.857515 0.104930
H4    H     H_    0.548588 0.295679 0.658716 0.025074
H5    H     H_    0.608306 0.401838 0.654311 0.148354
H6    H     H_    0.628729 0.249010 0.677627 0.183507
H7    H     H_    0.395250 0.400317 0.379586 0.116941
H8    H     H_    0.368183 0.303451 0.307702 0.191516
H9    H     H_    0.445569 0.282427 0.347750 0.030297
H10   H     H_    0.048877 0.796490 0.659421 0.030612
H11   H     H_    0.108364 0.902484 0.654168 0.147789
H12   H     H_    0.128959 0.749972 0.678177 0.185772
H13   H     H_    0.165057 0.662302 0.929556 0.099171
H14   H     H_    0.894618 0.897538 0.378372 0.113390
H15   H     H_    0.869047 0.798903 0.307010 0.191505
H16   H     H_    0.946355 0.780713 0.348456 0.030759
H17   H     H_    0.987728 0.008457 0.324589 0.219873
H18   H     H_    0.941904 0.200006 0.266458 0.171432
H19   H     H_    0.897022 0.217181 0.351034 0.132293
H20   H     H_    0.882288 0.090055 0.293427 0.145076
H21   H     H_    0.013898 0.018904 0.676604 0.219841
H22   H     H_    0.122507 0.094567 0.705465 0.149425
H23   H     H_    0.068233 0.215425 0.726218 0.151254
H24   H     H_    0.701186 0.822616 0.023911 0.122751
H25   H     H_    0.113964 0.211452 0.641171 0.143206
H26   H     H_    0.491374 0.505289 0.325465 0.220106
H27   H     H_    0.445314 0.689780 0.262752 0.184187
H28   H     H_    0.400293 0.716070 0.346140 0.133758
H29   H     H_    0.384854 0.583833 0.293079 0.142359
H30   H     H_    0.514050 0.519285 0.677365 0.215645
H31   H     H_    0.622712 0.594880 0.705777 0.149782
H32   H     H_    0.568462 0.715789 0.726598 0.150442
H33   H     H_    0.614027 0.711715 0.641442 0.144408
H34   H     H_    0.932507 0.587395 0.334958 0.264672
H35   H     H_    0.641922 0.102199 0.057189 0.224277
H36   H     H_    0.819079 0.519550 0.379881 0.210335
H37   H     H_    0.860194 0.401858 0.426043 0.132757
H38   H     H_    0.858884 0.403972 0.328568 0.095782
H39   H     H_    0.053739 0.591780 0.678018 0.248614
H40   H     H_    0.113980 0.403567 0.691983 0.116896
H41   H     H_    0.173680 0.514937 0.667028 0.175846
H42   H     H_    0.143725 0.413831 0.598909 0.144587
H43   H     H_    0.426653 0.087573 0.338139 0.279845
H44   H     H_    0.330185 0.960735 0.334105 0.143417
H45   H     H_    0.326586 0.019711 0.425055 0.195960
H46   H     H_    0.209592 0.253089 0.896842 0.143532
H47   H     H_    0.362225 0.877155 0.408375 0.116073
H48   H     H_    0.552526 0.092103 0.677009 0.241937
H49   H     H_    0.612554 0.904541 0.691357 0.116479
H50   H     H_    0.672679 0.015652 0.667148 0.175612
H51   H     H_    0.643274 0.914803 0.598605 0.145374
H52   H     H_    0.147276 0.623003 0.058827 0.184655
H53   H     H_    0.717226 0.763066 0.895013 0.136995
H54   H     H_    0.842662 0.891082 0.055872 0.129552
H55   H     H_    0.278172 0.817260 0.983784 0.126991
H56   H     H_    0.319918 0.356331 0.048006 0.143597
H57   H     H_    0.124681 0.056072 0.449231 0.168816
H58   H     H_    0.751616 0.314057 0.980305 0.135012
H59   H     H_    0.910901 0.002222 0.073083 0.101520
H60   H     H_    0.195128 0.855131 0.941679 0.146836
H61   H     H_    0.398454 0.439814 0.066840 0.082642
H62   H     H_    0.671099 0.360931 0.935846 0.152434
H63   H     H_    0.068025 0.212857 0.906094 0.132212
H64   H     H_    0.094908 0.197909 0.034428 0.130795
H65   H     H_    0.530580 0.660177 0.919210 0.142844
H66   H     H_    0.568082 0.658852 0.044768 0.141071
H67   H     H_    0.858634 0.061126 0.417612 0.158843
H68   H     H_    0.377176 0.596821 0.541707 0.159760
H69   H     H_    0.143442 0.009527 0.570422 0.182824
H70   H     H_    0.359071 0.565772 0.416580 0.157499
H71   H     H_    0.643262 0.509725 0.570603 0.182914
H72   H     H_    0.118600 0.771126 0.436860 0.160045
H73   H     H_    0.875580 0.647760 0.542763 0.169015
H74   H     H_    0.619092 0.271550 0.436490 0.161847
H75   H     H_    0.375968 0.153060 0.543616 0.164816
H76   H     H_    0.706985 0.332983 0.429653 0.091492
H77   H     H_    0.360715 0.303886 0.583384 0.096602
H78   H     H_    0.206287 0.833262 0.429663 0.087304
H79   H     H_    0.624691 0.556190 0.449285 0.168820
H80   H     H_    0.862565 0.799073 0.583089 0.095490
H81   H     H_    0.711169 0.349591 0.557643 0.134327
H82   H     H_    0.327693 0.381505 0.469702 0.123981
H83   H     H_    0.211011 0.849725 0.557622 0.133675
H84   H     H_    0.829803 0.878578 0.470184 0.119178
H85   H     H_    0.994181 0.914181 0.436135 0.099992
H86   H     H_    0.006002 0.916474 0.564091 0.141247
H87   H     H_    0.494768 0.412587 0.437446 0.102461
H88   H     H_    0.505350 0.416405 0.565391 0.140072
H89   H     H_    0.944352 0.130990 0.963719 0.247850
H90   H     H_    0.999613 0.715542 0.572821 0.140440
H91   H     H_    0.040055 0.026682 0.972021 0.156045
H92   H     H_    0.018402 0.956423 0.889333 0.135845
H93   H     H_    0.989401 0.893957 0.973584 0.146744
H94   H     H_    0.114049 0.814880 0.035086 0.240953
H95   H     H_    0.079835 0.045088 0.096497 0.187198
H96   H     H_    0.093788 0.923159 0.158448 0.157273
H97   H     H_    0.030339 0.919769 0.090195 0.074772
H98   H     H_    0.466307 0.420612 0.972063 0.245932
H99   H     H_    0.522483 0.488008 0.872186 0.101473
H100  H     H_    0.445786 0.537450 0.832162 0.211963
H101  H     H_    0.971423 0.721930 0.452000 0.152358
H102  H     H_    0.467462 0.382775 0.837804 0.086062
H103  H     H_    0.591538 0.480826 0.000917 0.209983
H104  H     H_    0.515332 0.402496 0.094848 0.109433
H105  H     H_    0.557755 0.529898 0.127994 0.148182
H106  H     H_    0.588157 0.387896 0.153276 0.202581
H107  H     H_    0.929919 0.803805 0.877059 0.147194
H108  H     H_    0.914053 0.937710 0.826276 0.165370
H109  H     H_    0.859074 0.812836 0.818739 0.128194
H110  H     H_    0.195025 0.889209 0.206555 0.160494
H111  H     H_    0.274759 0.957419 0.174605 0.153215
H112  H     H_    0.500056 0.216367 0.570195 0.142887
H113  H     H_    0.272816 0.811228 0.208106 0.113393
H114  H     H_    0.380597 0.265305 0.844284 0.126653
H115  H     H_    0.356721 0.404758 0.805632 0.156222
H116  H     H_    0.297164 0.291889 0.815309 0.113275
H117  H     H_    0.752936 0.428840 0.174662 0.168421
H118  H     H_    0.800616 0.354858 0.101185 0.127906
H119  H     H_    0.767145 0.273728 0.175896 0.123226
H120  H     H_    0.992449 0.659358 0.186209 0.137334
H121  H     H_    0.970118 0.757565 0.114090 0.098042
H122  H     H_    0.057269 0.735973 0.143630 0.123963
H123  H     H_    0.470859 0.219572 0.449704 0.154627
H124  H     H_    0.913490 0.739520 0.007024 0.123034
H125  H     H_    0.838589 0.695226 0.053397 0.167382
H126  H     H_    0.838382 0.726034 0.959153 0.204463
H127  H     H_    0.464557 0.118976 0.182243 0.180125
H128  H     H_    0.441309 0.236696 0.121385 0.084010
H129  H     H_    0.514862 0.245728 0.178511 0.073117
H130  H     H_    0.420500 0.241172 0.991476 0.151874
H131  H     H_    0.362865 0.136642 0.032304 0.152617
H132  H     H_    0.348244 0.189479 0.946980 0.200255
H133  H     H_    0.903416 0.382552 0.162770 0.096013
H134  H     H_    0.653425 0.125112 0.927051 0.160317
H135  H     H_    0.853141 0.496057 0.204904 0.126069
H136  H     H_    0.939700 0.502571 0.216658 0.159602
H137  H     H_    0.065902 0.603302 0.880642 0.133886
H138  H     H_    0.068272 0.527709 0.964811 0.136996
H139  H     H_    0.062342 0.688405 0.963030 0.131116
H140  H     H_    0.405921 0.876316 0.002969 0.146307
H141  H     H_    0.351982 0.886793 0.079105 0.167578
H142  H     H_    0.429600 0.814884 0.089830 0.141046
H143  H     H_    0.483018 0.175983 0.844952 0.151914
H144  H     H_    0.562265 0.095630 0.849931 0.110119
N1    N     N_2   0.938369 0.049312 0.939877 -0.477398
N2    N     N_2   0.073612 0.544795 0.634939 -0.480941
N3    N     N_2   0.423665 0.021269 0.375287 -0.469061
N4    N     N_2   0.573035 0.046059 0.633883 -0.481818
N5    N     N_2   0.129800 0.897662 0.051274 -0.518101
N6    N     N_2   0.435126 0.463134 0.936494 -0.506132
N7    N     N_2   0.608564 0.434774 0.044768 -0.464539
N8    N     N_2   0.975114 0.088010 0.348884 -0.486469
N9    N     N_2   0.029704 0.094077 0.650232 -0.488160
N10   N     N_2   0.477550 0.584909 0.348904 -0.490247
N11   N     N_2   0.529803 0.594316 0.650799 -0.490642
N12   N     N_2   0.925955 0.527007 0.375282 -0.467612
O1    O     O_R   0.957020 0.451640 0.669920 -0.525035
O2    O     O_R   0.168040 0.093290 0.169870 -0.550307
O3    O     O_R   0.331960 0.593290 0.830130 -0.531452
O4    O     O_R   0.668040 0.593290 0.169870 -0.527585
O5    O     O_R   0.945600 0.250580 0.824860 -0.503533
O6    O     O_R   0.054400 0.250580 0.175140 -0.542719
O7    O     O_R   0.445600 0.750580 0.824860 -0.526394
O8    O     O_R   0.554400 0.750580 0.175140 -0.546738
O9    O     O_3   0.834640 0.334650 0.749500 -0.275618
O10   O     O_3   0.165360 0.334650 0.250500 -0.315676
O11   O     O_3   0.334640 0.834650 0.749500 -0.265301
O12   O     O_R   0.042980 0.451640 0.330080 -0.515177
O13   O     O_3   0.665360 0.834650 0.250500 -0.331715
O14   O     O_R   0.821450 0.543440 0.674610 -0.504180
O15   O     O_R   0.178550 0.543440 0.325390 -0.494430
O16   O     O_R   0.321450 0.043440 0.674610 -0.504871
O17   O     O_R   0.678550 0.043440 0.325390 -0.492569
O18   O     O_R   0.715320 0.458650 0.668100 -0.578096
O19   O     O_R   0.284680 0.458650 0.331900 -0.565649
O20   O     O_R   0.215320 0.958650 0.668100 -0.576737
O21   O     O_R   0.784680 0.958650 0.331900 -0.565731
O22   O     O_R   0.737170 0.209590 0.674530 -0.535186
O23   O     O_R   0.457020 0.951640 0.669920 -0.527154
O24   O     O_R   0.262830 0.209590 0.325470 -0.464533
O25   O     O_R   0.237170 0.709590 0.674530 -0.533024
O26   O     O_R   0.762830 0.709590 0.325470 -0.470909
O27   O     O_R   0.832710 0.092740 0.669580 -0.526836
O28   O     O_R   0.167290 0.092740 0.330420 -0.542192
O29   O     O_R   0.332710 0.592740 0.669580 -0.533030
O30   O     O_R   0.667290 0.592740 0.330420 -0.531714
O31   O     O_R   0.946290 0.250060 0.676040 -0.482109
O32   O     O_R   0.053710 0.250060 0.323960 -0.479093
O33   O     O_R   0.446290 0.750060 0.676040 -0.481411
O34   O     O_R   0.542980 0.951640 0.330080 -0.501696
O35   O     O_R   0.553710 0.750060 0.323960 -0.483185
O36   O     O_R   0.956270 0.452200 0.830470 -0.471367
O37   O     O_R   0.043730 0.452200 0.169530 -0.493630
O38   O     O_R   0.456270 0.952200 0.830470 -0.493163
O39   O     O_R   0.543730 0.952200 0.169530 -0.467481
O40   O     O_R   0.820760 0.543950 0.823440 -0.461551
O41   O     O_R   0.179240 0.543950 0.176560 -0.502266
O42   O     O_R   0.320760 0.043950 0.823440 -0.478349
O43   O     O_R   0.679240 0.043950 0.176560 -0.499369
O44   O     O_R   0.714570 0.459210 0.828640 -0.555341
O45   O     O_R   0.736470 0.210100 0.823360 -0.529261
O46   O     O_R   0.285430 0.459210 0.171360 -0.552632
O47   O     O_R   0.214570 0.959210 0.828640 -0.543343
O48   O     O_R   0.785430 0.959210 0.171360 -0.551239
O49   O     O_3   0.847844 0.903486 0.914502 -0.591344
O50   O     O_3   0.231738 0.826005 0.107947 -0.594638
O51   O     O_3   0.320545 0.370501 0.912281 -0.602355
O52   O     O_3   0.695990 0.328813 0.103759 -0.541906
O53   O     O_3   0.019516 0.602856 0.081378 -0.596526
O54   O     O_3   0.872406 0.565727 0.982382 -0.555292
O55   O     O_3   0.525959 0.138102 0.088391 -0.535458
O56   O     O_R   0.263530 0.210100 0.176640 -0.515112
O57   O     O_3   0.420365 0.067858 0.946313 -0.563674
O58   O     O_3   0.903688 0.550952 0.114598 -0.586374
O59   O     O_3   0.975978 0.607044 0.934252 -0.566632
O60   O     O_3   0.432924 0.999484 0.085509 -0.597745
O61   O     O_3   0.526173 0.168100 0.947481 -0.573494
O62   O     O_3   0.609308 0.280991 0.567476 -0.591831
O63   O     O_3   0.361704 0.228417 0.410163 -0.562418
O64   O     O_3   0.109296 0.780571 0.567918 -0.593329
O65   O     O_3   0.862140 0.725193 0.409881 -0.553911
O66   O     O_R   0.236470 0.710100 0.823360 -0.524007
O67   O     O_R   0.763530 0.710100 0.176640 -0.498816
O68   O     O_R   0.831960 0.093290 0.830130 -0.479683

loop_
_geom_bond_atom_site_label_1
_geom_bond_atom_site_label_2
_ccdc_geom_bond_type
C105  C110  A    
C82   C94   A    
C87   C91   A    
C47   H119  S    
C67   H44   S    
Cr12  O68   S    
C65   H36   S    
Cr2   O6    S    
Cr8   O44   S    
C154  C158  A    
C138  C143  S    
C137  H60   S    
C8    O58   S    
C64   N11   S    
C83   C93   A    
C87   C94   A    
C29   C33   A    
C12   O40   A    
C41   H100  S    
C44   O50   S    
C110  C111  A    
C112  C113  A    
C50   H128  S    
C152  O33   A    
Cr1   O9    S    
C123  C145  A    
C52   H136  S    
H103  N7    S    
C41   N6    S    
C53   H137  S    
C65   N12   S    
C36   C71   S    
C34   C75   A    
C97   C105  A    
C83   C88   A    
C64   H32   S    
C100  C109  A    
C60   H16   S    
C130  C134  A    
C32   C57   S    
C50   H129  S    
C28   C73   S    
C2    C117  A    
C15   O47   A    
Cr10  O47   S    
C130  H13   S    
C21   O36   A    
C116  C121  A    
C27   C31   A    
C149  O1    A    
C8    O53   S    
C28   C32   A    
C86   C90   A    
C42   H105  S    
C38   C78   A    
C44   H111  S    
C78   C104  S    
C45   H114  S    
C12   O44   A    
C54   H141  S    
Cr6   O23   S    
C80   C92   A    
C59   H10   S    
C71   H82   S    
C136  C141  S    
Cr9   O46   S    
H39   N2    S    
Cr11  O48   S    
C123  C141  S    
C1    C29   S    
Cr8   O45   S    
H98   N6    S    
C94   C96   A    
C88   H85   S    
C127  C145  A    
C129  C133  A    
Cr12  O31   S    
C134  H52   S    
C11   O61   S    
C158  C159  A    
C15   C115  S    
C77   C103  S    
C151  O12   A    
C62   H22   S    
C72   H83   S    
C66   H40   S    
C47   H117  S    
C10   C160  S    
C48   H122  S    
Cr10  O25   S    
C42   N7    S    
C73   O15   A    
C143  N6    S    
C33   C38   A    
C4    C5    A    
C39   H93   S    
C6    C7    A    
Cr3   O33   S    
C119  C123  A    
C141  O49   S    
C64   H33   S    
C119  C136  S    
C60   O65   S    
C66   H41   S    
C102  O24   A    
C18   O2    A    
C55   H144  S    
C51   H131  S    
Cr1   O1    S    
C106  H1    S    
C69   H49   S    
C53   H139  S    
C3    C11   S    
Cr7   O13   S    
C40   H95   S    
C4    C155  A    
C43   H107  S    
C88   C89   A    
C153  O35   A    
C150  H67   S    
C83   N8    S    
C75   C101  S    
C76   C117  A    
C31   C36   A    
C138  H61   S    
C58   H8    S    
Cr10  O11   S    
C62   N9    S    
C137  C142  S    
Cr11  O67   S    
C106  C150  A    
C80   C97   A    
C78   C139  A    
C97   C98   A    
C144  O52   S    
C56   H6    S    
C44   H113  S    
C45   H116  S    
C56   H4    S    
C58   H9    S    
Cr9   O10   S    
Cr3   O7    S    
C27   C84   S    
C57   H72   S    
Cr10  O20   S    
Cr6   O38   S    
C68   C74   S    
C10   O55   S    
C81   C153  S    
C112  H112  S    
C43   H109  S    
Cr7   O17   S    
C7    C156  A    
C31   C46   S    
C20   C148  S    
C91   H88   S    
C14   O41   A    
Cr7   O43   S    
C114  C119  A    
C87   N11   S    
C52   O58   S    
C19   O3    A    
C25   C156  S    
C61   N8    S    
C47   O52   S    
C86   N10   S    
C19   O66   A    
C85   C92   A    
C17   O68   A    
C76   C102  S    
C80   C149  S    
C136  H59   S    
C67   N3    S    
Cr9   O24   S    
Cr5   O41   S    
C30   C34   A    
C155  C159  A    
C156  C160  A    
C127  H134  S    
C124  C146  A    
C69   H51   S    
C121  C125  A    
C103  O25   A    
C13   H70   S    
C44   H110  S    
C21   C155  S    
C32   C37   A    
C59   H11   S    
C65   H38   S    
Cr1   O36   S    
C95   O17   A    
C26   C30   A    
C71   O63   S    
C72   O64   S    
C20   O4    A    
C61   H19   S    
C38   C74   S    
H94   N5    S    
Cr3   O11   S    
C63   H29   S    
C130  C147  A    
C107  C111  A    
C89   H86   S    
C62   H25   S    
C14   O46   A    
C16   C114  S    
C104  O30   A    
C133  H46   S    
C67   H47   S    
C42   H104  S    
C137  H55   S    
C144  N7    S    
C125  C143  S    
C11   O57   S    
C117  H57   S    
Cr9   O19   S    
C41   H99   S    
C9    O59   S    
C107  N12   S    
C54   H140  S    
Cr5   O10   S    
C10   C11   S    
C48   H121  S    
C73   O19   A    
C132  H35   S    
C3    C157  A    
C52   H133  S    
Cr7   O39   S    
C105  N2    S    
C33   C68   S    
Cr8   O22   S    
Cr3   O29   S    
C113  H123  S    
C140  H58   S    
Cr4   O13   S    
C82   C99   A    
C63   N10   S    
C8    C158  S    
C15   O42   A    
C35   H76   S    
C109  N3    S    
C142  N5    S    
C39   H92   S    
C22   C154  S    
C42   H106  S    
C116  C134  A    
C5    C154  A    
C16   O43   A    
C63   H28   S    
C54   H142  S    
C24   C29   A    
Cr2   O10   S    
C84   O16   A    
C5    H64   S    
Cr7   O34   S    
C13   C28   A    
C2    C27   A    
C142  O50   S    
C135  H53   S    
C34   C70   S    
C68   H80   S    
C102  O28   A    
C140  H62   S    
Cr3   O3    S    
C62   H23   S    
C90   H87   S    
C24   C139  A    
C6    H65   S    
C139  H79   S    
C26   C150  A    
H30   N11   S    
Cr4   O30   S    
C125  C147  A    
C21   O5    A    
C70   O62   S    
C81   C96   A    
C126  C148  A    
C50   O55   S    
C115  C133  A    
C23   O7    A    
C37   C77   A    
C19   C147  S    
C98   C107  A    
C108  C112  A    
C66   H42   S    
Cr2   O28   S    
C46   H77   S    
C50   H127  S    
C48   H120  S    
C55   H143  S    
C7    H66   S    
C67   H45   S    
C51   O57   S    
C52   H135  S    
H89   N1    S    
C53   H138  S    
C45   O51   S    
Cr4   O35   S    
C46   C71   S    
C86   C96   A    
C12   C118  S    
C40   H96   S    
C64   H31   S    
C153  O34   A    
C60   H15   S    
C16   O48   A    
C61   H18   S    
C129  H2    S    
C59   O64   S    
H43   N3    S    
C152  O23   A    
C35   H74   S    
C85   C89   A    
C18   O56   A    
C48   O53   S    
C140  C144  S    
C103  O29   A    
C81   C100  A    
C68   H73   S    
C128  H68   S    
Cr4   O4    S    
C151  O32   A    
C45   H115  S    
Cr1   O40   S    
C90   C91   A    
C95   O21   A    
H34   N12   S    
Cr2   O2    S    
C92   C93   A    
C57   C72   S    
C49   H126  S    
C39   N1    S    
C74   O65   S    
C122  C140  S    
C22   O6    A    
C75   C106  A    
C37   C72   S    
C120  C137  S    
C57   H78   S    
C55   O61   S    
C47   H118  S    
Cr5   O15   S    
C82   C152  S    
C41   H102  S    
C104  O26   A    
C79   C98   A    
C17   C145  S    
C131  H24   S    
C101  O27   A    
C22   O37   A    
Cr5   O12   S    
C40   H97   S    
H17   N8    S    
C30   C35   S    
C24   H71   S    
H21   N9    S    
C69   N4    S    
Cr11  O21   S    
C46   H75   S    
C79   C93   A    
C131  C135  A    
C40   N5    S    
C118  C122  A    
C51   H132  S    
C9    C159  S    
C149  O31   A    
C23   C157  S    
C141  N1    S    
C49   H124  S    
C69   H50   S    
C126  C144  S    
C1    O14   A    
C23   O38   A    
C127  C132  A    
C36   C76   A    
Cr8   O18   S    
C13   C128  A    
C43   H108  S    
C35   C70   S    
C8    C9    S    
C101  O22   A    
C61   H20   S    
C56   O62   S    
C58   H7    S    
Cr6   O11   S    
C54   O60   S    
C65   H37   S    
Cr11  O26   S    
C109  C113  A    
C124  C142  S    
C143  O51   S    
C70   H81   S    
C85   N9    S    
Cr12  O5    S    
C56   H5    S    
Cr6   O42   S    
Cr12  O27   S    
C10   O60   S    
C25   O39   A    
C84   O20   A    
C121  C138  S    
C122  C126  A    
C49   H125  S    
C1    O18   A    
C25   O8    A    
Cr5   O37   S    
C99   C100  A    
C129  C146  A    
C131  C148  A    
C138  H56   S    
C49   O54   S    
Cr9   O56   S    
C55   H3    S    
C77   C128  A    
C66   N2    S    
C20   O67   A    
C99   C108  A    
C3    C160  A    
C58   O63   S    
C4    H63   S    
C118  C135  A    
C6    C157  A    
C79   C151  S    
Cr12  O9    S    
Cr4   O8    S    
C26   C95   S    
C136  H54   S    
C108  N4    S    
C60   H14   S    
C114  C132  A    
Cr2   O32   S    
C9    O54   S    
Cr6   O16   S    
C18   C146  S    
C51   H130  S    
Cr1   O14   S    
C53   O59   S    
Cr10  O66   S    
C43   O49   S    
C17   O45   A    
H26   N10   S    
C39   H91   S    
C14   C116  S    
C63   H27   S    
C111  H101  S    
C59   H12   S    
C2    H69   S    
C110  H90   S    
C120  C124  A    
C115  C120  A    
Cr8   O9    S    
C74   H84   S    
H48   N4    S    
Cr11  O13   S    
