data_mof_unit_26076.cif
_audit_creation_date              2012-12-10T17:23:35-0500
_audit_creation_method            fapswitch 2.2
_symmetry_space_group_name_H-M    P1
_symmetry_Int_Tables_number       1
_space_group_crystal_system       triclinic
_cell_length_a                    10.203837
_cell_length_b                    10.473955
_cell_length_c                    15.719486
_cell_angle_alpha                 89.748218
_cell_angle_beta                  81.382128
_cell_angle_gamma                 93.392921
_cell_volume                      1657.98352863

loop_
_atom_site_label
_atom_site_type_symbol
_atom_type_description
_atom_site_fract_x
_atom_site_fract_y
_atom_site_fract_z
_atom_type_partial_charge
C1    C     C_R   0.553613 0.734892 0.496185 0.922254
C2    C     C_R   0.446461 0.264759 0.508687 0.909666
C3    C     C_2   0.518812 0.931380 0.574658 -0.071465
C4    C     C_2   0.501287 0.069690 0.576381 -0.065997
C5    C     C_2   0.928202 0.519119 0.500703 -0.104177
C6    C     C_2   0.075721 0.503284 0.485701 -0.119739
C7    C     C_R   0.500226 0.499656 0.662001 1.016531
C8    C     C_R   0.499718 0.500380 0.337946 0.922410
C9    C     C_3   0.423114 0.594520 0.034649 -0.205884
C10   C     C_3   0.577030 0.409057 0.964943 -0.194385
C11   C     C_3   0.548350 0.614711 0.966513 0.139772
C12   C     C_3   0.451765 0.388811 0.032977 0.147118
C13   C     C_1   0.500635 0.499258 0.750872 -0.037207
C14   C     C_1   0.499382 0.501957 0.249014 -0.130429
C15   C     C_3   0.374453 0.478976 0.983715 -0.199256
C16   C     C_3   0.625719 0.524617 0.015855 -0.196876
C17   C     C_3   0.500227 0.500423 0.916958 0.127857
C18   C     C_3   0.499878 0.503000 0.082708 0.136984
C19   C     C_1   0.500515 0.499350 0.826126 -0.061342
C20   C     C_1   0.499538 0.503034 0.173675 -0.063853
C21   C     C_2   0.578539 0.872852 0.503040 -0.257478
C22   C     C_2   0.422619 0.126749 0.526096 -0.267043
H1    H     H_    0.361335 0.670731 0.064820 0.146528
H2    H     H_    0.638836 0.332913 0.934689 0.149559
H3    H     H_    0.727835 0.544192 0.030883 0.148622
H4    H     H_    0.272358 0.459532 0.968614 0.146957
H5    H     H_    0.118420 0.452423 0.429349 0.183445
H6    H     H_    0.889989 0.595128 0.542110 0.190122
N1    N     N_2   0.842700 0.448880 0.465440 -0.160366
N2    N     N_2   0.157300 0.551120 0.534560 -0.170492
O1    O     O_R   0.431060 0.692470 0.506960 -0.577292
O2    O     O_R   0.568940 0.307530 0.493040 -0.592207
O3    O     O_R   0.651120 0.659650 0.484770 -0.605713
O4    O     O_R   0.348880 0.340350 0.515230 -0.583670
O5    O     O_R   0.389990 0.516420 0.634310 -0.613897
O6    O     O_R   0.610010 0.483580 0.365690 -0.568496
O7    O     O_R   0.610050 0.483600 0.612130 -0.599793
O8    O     O_R   0.389950 0.516400 0.387870 -0.630754
Zn1   Zn    Zn3+2 0.353060 0.521920 0.514810 1.032255
Zn2   Zn    Zn3+2 0.646940 0.478080 0.485190 1.042945
C23   C     C_3   0.602594 0.742550 0.924275 -0.403469
C24   C     C_3   0.643225 0.837507 0.990772 -0.349783
C25   C     C_3   0.694893 0.965739 0.948413 -0.830999
H7    H     H_    0.786349 0.953725 0.901772 0.272898
H8    H     H_    0.618677 0.005713 0.914135 0.262502
H9    H     H_    0.718681 0.034372 0.998343 0.248361
H10   H     H_    0.556392 0.852929 0.040527 0.225296
H11   H     H_    0.722311 0.798334 0.022977 0.230857
H12   H     H_    0.689919 0.725603 0.875162 0.221483
H13   H     H_    0.524526 0.782365 0.891420 0.216498
C26   C     C_3   0.396881 0.260213 0.073717 -0.425659
C27   C     C_3   0.356832 0.167311 0.005784 -0.330207
C28   C     C_3   0.303699 0.038323 0.046309 -0.841954
H14   H     H_    0.378913 0.996619 0.080609 0.260427
H15   H     H_    0.211705 0.049813 0.092564 0.269541
H16   H     H_    0.280371 0.971404 0.995299 0.250522
H17   H     H_    0.278704 0.208000 0.973430 0.231419
H18   H     H_    0.444207 0.152487 0.956312 0.228398
H19   H     H_    0.474429 0.219145 0.106404 0.214151
H20   H     H_    0.309142 0.276328 0.122689 0.215939
C29   C     C_2   0.573652 0.142169 0.637839 0.972823
O9    O     O_2   0.518878 0.224510 0.682280 -0.676749
O10   O     O_R   0.701441 0.110333 0.648373 -0.751867
H21   H     H_    0.739433 0.164684 0.693109 0.347876
C30   C     C_2   0.474144 0.861392 0.657477 0.988113
O11   O     O_2   0.538659 0.775943 0.679603 -0.688141
O12   O     O_R   0.363190 0.899530 0.712602 -0.744786
H22   H     H_    0.344396 0.846704 0.767767 0.336807
C31   C     C_2   0.324055 0.053879 0.481152 0.936989
O13   O     O_2   0.284408 0.102432 0.419584 -0.605639
O14   O     O_R   0.273615 0.931786 0.510199 -0.741344
H23   H     H_    0.207208 0.892929 0.474266 0.351843
C32   C     C_2   0.651396 0.943081 0.426104 0.907637
O15   O     O_2   0.667240 0.890123 0.356401 -0.636001
O16   O     O_R   0.704980 0.067664 0.433031 -0.746665
H24   H     H_    0.750721 0.103657 0.375615 0.356689
C33   C     C_2   0.109554 0.607450 0.614809 1.032117
O17   O     O_2   0.172003 0.699752 0.639209 -0.569253
O18   O     O_R   0.998507 0.552448 0.668525 -0.823686
H25   H     H_    0.977206 0.600578 0.724232 0.336484
C34   C     C_2   0.885552 0.349544 0.408150 1.040074
O19   O     O_2   0.952633 0.266176 0.430786 -0.595626
O20   O     O_R   0.846015 0.345370 0.326864 -0.800418
H26   H     H_    0.884456 0.272604 0.290863 0.321287

loop_
_geom_bond_atom_site_label_1
_geom_bond_atom_site_label_2
_ccdc_geom_bond_type
C1    C21   S    
C23   C24   S    
O16   H24   S    
C34   O19   D    
C1    O3    A    
C33   O17   D    
O7    Zn2   S    
C31   O13   D    
C8    O6    A    
C5    C6    S    
C10   C17   S    
C21   C32   S    
C1    O1    A    
C2    O2    A    
C32   O15   D    
C31   O14   S    
N2    C33   S    
O20   H26   S    
C30   O12   S    
C2    C22   S    
C22   C31   S    
C2    O4    A    
C28   H15   S    
C32   O16   S    
C3    C30   S    
C8    O8    A    
O12   H22   S    
C23   H12   S    
C34   O20   S    
C5    N1    D    
C33   O18   S    
C27   H18   S    
O3    Zn2   S    
C13   C19   T    
O4    Zn1   S    
C14   C20   T    
O6    Zn2   S    
O18   H25   S    
C9    H1    S    
C15   H4    S    
C10   H2    S    
C28   H14   S    
C4    C29   S    
C26   C27   S    
O5    Zn1   S    
C25   H7    S    
N1    C34   S    
C5    H6    S    
C4    C22   D    
C11   C16   S    
C6    H5    S    
C12   C15   S    
C29   O10   S    
C7    O7    A    
C24   H11   S    
C25   H8    S    
C10   C12   S    
C6    N2    D    
C9    C11   S    
C3    C21   D    
C26   H19   S    
C24   C25   S    
C3    C4    S    
C23   H13   S    
C12   C26   S    
C27   C28   S    
C28   H16   S    
C16   H3    S    
C15   C17   S    
C11   C17   S    
C8    C14   S    
C7    O5    A    
C9    C15   S    
O14   H23   S    
C10   C16   S    
O8    Zn1   S    
N1    Zn2   S    
C17   C19   S    
O1    Zn1   S    
N2    Zn1   S    
C11   C23   S    
C18   C20   S    
C24   H10   S    
O2    Zn2   S    
C29   O9    D    
C25   H9    S    
C27   H17   S    
O10   H21   S    
C9    C18   S    
C7    C13   S    
C16   C18   S    
C30   O11   D    
C12   C18   S    
C26   H20   S    
