data_mof_unit_22491.cif
_audit_creation_date              2012-12-11T17:37:44-0500
_audit_creation_method            fapswitch 2.2
_symmetry_space_group_name_H-M    P1
_symmetry_Int_Tables_number       1
_space_group_crystal_system       triclinic
_cell_length_a                    12.934066
_cell_length_b                    12.983835
_cell_length_c                    15.319417
_cell_angle_alpha                 116.259787
_cell_angle_beta                  64.176967
_cell_angle_gamma                 96.902534
_cell_volume                      2068.35759024

loop_
_atom_site_label
_atom_site_type_symbol
_atom_type_description
_atom_site_fract_x
_atom_site_fract_y
_atom_site_fract_z
_atom_type_partial_charge
C1    C     C_R   0.000617 0.832985 0.053439 -0.125099
C2    C     C_R   0.674030 0.533671 0.321847 0.053675
C3    C     C_R   0.662073 0.460037 0.926174 0.150163
C4    C     C_R   0.076874 0.790512 0.299989 0.055280
C5    C     C_R   0.338108 0.516365 0.950944 -0.079446
C6    C     C_R   0.964164 0.179301 0.781591 -0.106360
C7    C     C_R   0.199504 0.508155 0.695104 -0.117665
C8    C     C_R   0.054127 0.254527 0.086467 -0.129464
C9    C     C_R   0.953859 0.170716 0.991743 -0.106854
C10   C     C_R   0.298138 0.595884 0.792856 -0.163729
C11   C     C_R   0.259548 0.416665 0.048395 -0.174794
C12   C     C_R   0.679388 0.465355 0.220102 -0.150318
C13   C     C_R   0.046828 0.279679 0.684575 -0.127804
C14   C     C_R   0.361872 0.434944 0.975714 0.191681
C15   C     C_R   0.028197 0.171023 0.679474 0.059677
C16   C     C_R   0.294659 0.567252 0.696918 0.054314
C17   C     C_R   0.012197 0.150346 0.041049 0.041054
C18   C     C_R   0.420539 0.688942 0.219684 -0.124047
C19   C     C_R   0.309615 0.743537 0.292558 -0.124059
C20   C     C_R   0.288700 0.863833 0.335211 0.128554
C21   C     C_R   0.381557 0.928222 0.304325 -0.165387
C22   C     C_R   0.492434 0.873236 0.231441 -0.110557
C23   C     C_R   0.754972 0.520293 0.893355 -0.178779
C24   C     C_R   0.511877 0.753717 0.189057 -0.083852
C25   C     C_R   0.154400 0.019160 0.509331 -0.237464
C26   C     C_R   0.042702 0.070776 0.584179 0.057843
C27   C     C_R   0.945606 0.029113 0.565475 0.012785
C28   C     C_R   0.962141 0.935982 0.470327 -0.245374
C29   C     C_R   0.072557 0.883780 0.395599 0.062203
C30   C     C_R   0.170919 0.922601 0.413364 0.021413
C31   C     C_R   0.758262 0.042856 0.718844 -0.143880
C32   C     C_R   0.639883 0.074733 0.776443 -0.148201
C33   C     C_R   0.587566 0.141735 0.753729 -0.137123
C34   C     C_R   0.016929 0.697125 0.301316 -0.160470
C35   C     C_R   0.653866 0.180831 0.675233 -0.004487
C36   C     C_R   0.773654 0.150463 0.619150 -0.223799
C37   C     C_R   0.825836 0.080720 0.640090 0.132898
C38   C     C_R   0.859720 0.323981 0.373828 -0.081240
C39   C     C_R   0.756581 0.368439 0.389285 -0.052170
C40   C     C_R   0.700801 0.473837 0.478056 0.130337
C41   C     C_R   0.748181 0.531809 0.552471 -0.157111
C42   C     C_R   0.850494 0.486231 0.537281 -0.091950
C43   C     C_R   0.906558 0.382718 0.447721 -0.092100
C44   C     C_R   0.496601 0.539495 0.589086 -0.223045
C45   C     C_R   0.676334 0.422108 0.990851 -0.130271
C46   C     C_R   0.388968 0.576044 0.607429 0.053395
C47   C     C_R   0.374251 0.603336 0.534109 0.018464
C48   C     C_R   0.470613 0.588772 0.439576 -0.236658
C49   C     C_R   0.577659 0.548875 0.420446 0.061101
C50   C     C_R   0.591563 0.523262 0.495441 0.006637
C51   C     C_R   0.217883 0.595637 0.476959 -0.178113
C52   C     C_R   0.111822 0.637764 0.496187 -0.131558
C53   C     C_R   0.049118 0.733462 0.592279 -0.092227
C54   C     C_R   0.091825 0.786402 0.670015 -0.107219
C55   C     C_R   0.197413 0.743854 0.651606 -0.125314
C56   C     C_R   0.097484 0.798535 0.207668 -0.131888
C57   C     C_R   0.261418 0.648003 0.554758 0.126241
C58   C     C_2   0.475224 0.394889 0.948939 -0.204196
C59   C     C_2   0.567203 0.438993 0.897237 -0.186729
C60   C     C_2   0.833930 0.957448 0.087186 -0.225543
C61   C     C_2   0.819133 0.040096 0.184001 -0.166013
C62   C     C_R   0.783330 0.557669 0.313800 -0.125179
C63   C     C_R   0.901132 0.748056 0.955504 -0.156773
C64   C     C_R   0.913098 0.852564 0.031128 0.144527
H1    H     H_    0.029824 0.895087 0.111303 0.093620
H2    H     H_    0.928737 0.110311 0.803714 0.084413
H3    H     H_    0.166936 0.481309 0.634888 0.098501
H4    H     H_    0.092047 0.273492 0.141724 0.084996
H5    H     H_    0.899311 0.112152 0.959284 0.084084
H6    H     H_    0.355391 0.652032 0.823493 0.094850
H7    H     H_    0.249703 0.362898 0.088178 0.092570
H8    H     H_    0.086898 0.303482 0.618584 0.096410
H9    H     H_    0.597739 0.711389 0.132739 0.121209
H10   H     H_    0.435738 0.596415 0.187268 0.110475
H11   H     H_    0.240499 0.691885 0.316234 0.114634
H12   H     H_    0.609383 0.427816 0.199202 0.096206
H13   H     H_    0.367994 0.020833 0.335834 0.111654
H14   H     H_    0.563335 0.923353 0.207745 0.121956
H15   H     H_    0.227444 0.053180 0.526912 0.142440
H16   H     H_    0.887937 0.904095 0.453631 0.146216
H17   H     H_    0.587944 0.044634 0.836678 0.111409
H18   H     H_    0.495044 0.162200 0.797181 0.157059
H19   H     H_    0.825922 0.176607 0.555950 0.151763
H20   H     H_    0.986121 0.347859 0.435753 0.091698
H21   H     H_    0.777111 0.549006 0.831459 0.099830
H22   H     H_    0.903454 0.243916 0.304664 0.097951
H23   H     H_    0.720817 0.321518 0.331806 0.105308
H24   H     H_    0.706208 0.612682 0.621803 0.100114
H25   H     H_    0.886458 0.531337 0.594833 0.105227
H26   H     H_    0.505624 0.515184 0.644929 0.142146
H27   H     H_    0.462884 0.609484 0.381246 0.136971
H28   H     H_    0.265433 0.521489 0.401954 0.104840
H29   H     H_    0.078399 0.595960 0.436411 0.104884
H30   H     H_    0.967388 0.766361 0.606559 0.099674
H31   H     H_    0.043157 0.860467 0.744529 0.104977
H32   H     H_    0.991906 0.663498 0.360125 0.095146
H33   H     H_    0.229698 0.786143 0.712347 0.110964
H34   H     H_    0.478911 0.348600 0.991601 0.114540
H35   H     H_    0.780877 0.965208 0.051302 0.128740
H36   H     H_    0.866502 0.035898 0.226068 0.135003
H37   H     H_    0.630360 0.359239 0.018250 0.086156
H38   H     H_    0.148556 0.859224 0.179561 0.093075
H39   H     H_    0.809054 0.606454 0.378116 0.105216
H40   H     H_    0.837785 0.731740 0.923795 0.098304
H41   H     H_    0.396615 0.555271 0.900977 0.082101
N1    N     N_R   0.037320 0.720000 0.995830 -0.045532
N2    N     N_R   0.946240 0.290870 0.848020 -0.039665
N3    N     N_R   0.146160 0.501170 0.788610 -0.037996
N4    N     N_R   0.025750 0.332680 0.063570 -0.035405
N5    N     N_R   0.962680 0.280000 0.004170 -0.041706
N6    N     N_R   0.209230 0.553860 0.848010 -0.034993
N7    N     N_R   0.175100 0.482030 0.063570 -0.040145
N8    N     N_R   0.996810 0.351820 0.788610 -0.039089
N9    N     N_R   0.790770 0.446140 0.151990 -0.040781
N10   N     N_R   0.824900 0.517970 0.936430 -0.040671
N11   N     N_R   0.003190 0.648180 0.211390 -0.036085
N12   N     N_R   0.774330 0.457010 0.995830 -0.043489
N13   N     N_R   0.053760 0.709130 0.151980 -0.040197
N14   N     N_R   0.853840 0.498830 0.211390 -0.041978
N15   N     N_R   0.974250 0.667320 0.936430 -0.039555
N16   N     N_R   0.225670 0.542990 0.004170 -0.049272
Ni1   Ni    Ni4+2 0.130310 0.630310 0.000000 0.211149
Ni2   Ni    Ni4+2 0.869690 0.369690 0.000000 0.212673
Ni3   Ni    Ni4+2 0.985660 0.509480 0.863750 0.216825
Ni4   Ni    Ni4+2 0.014340 0.490520 0.136250 0.212089
H42   H     H_    0.796636 0.985482 0.732974 0.093497
C65   C     C_2   0.597462 0.250329 0.650179 0.966673
O1    O     O_2   0.655405 0.286466 0.583632 -0.660352
O2    O     O_R   0.477615 0.274932 0.702747 -0.813698
H43   H     H_    0.449673 0.324059 0.679684 0.321775
H44   H     H_    0.564888 0.480638 0.850415 0.130668

loop_
_geom_bond_atom_site_label_1
_geom_bond_atom_site_label_2
_ccdc_geom_bond_type
C41   C42   A    
C3    C23   A    
C35   C36   A    
C58   H34   S    
N2    Ni2   S    
C60   H35   S    
C2    C12   A    
C5    H41   S    
C53   C54   A    
C32   H17   S    
C59   H44   S    
C26   C27   A    
C38   H22   S    
C18   C24   A    
C36   C37   A    
C34   H32   S    
O2    H43   S    
C38   C39   A    
N5    Ni2   S    
C11   C14   A    
C11   H7    S    
C24   H9    S    
C36   H19   S    
C45   N12   A    
C5    N16   A    
C25   C30   A    
C18   C19   A    
N13   Ni1   S    
N2    N8    A    
C6    C15   A    
C54   C55   A    
C19   C20   A    
N10   N12   A    
C48   H27   S    
C54   H31   S    
C1    H1    S    
C6    N2    A    
C51   C57   A    
C39   H23   S    
C33   H18   S    
C4    C29   S    
C1    N1    A    
C11   N7    A    
C18   H10   S    
C21   C22   A    
C4    C56   A    
N6    Ni1   S    
C43   H20   S    
C55   H33   S    
N3    Ni3   S    
C44   C46   A    
C12   N9    A    
C14   C58   S    
C4    C34   A    
N16   Ni1   S    
C51   C52   A    
C52   H29   S    
C22   H14   S    
C16   C46   S    
C39   C40   A    
C15   C26   S    
C20   C30   S    
C25   C26   A    
C23   N10   A    
C3    C45   A    
C31   C37   A    
C60   C61   D    
C65   O2    S    
C29   C30   A    
C2    C49   S    
C51   H28   S    
C47   C57   S    
C47   C48   A    
N1    Ni1   S    
C62   N14   A    
C10   N6    A    
C40   C50   S    
C9    C17   A    
C35   C65   S    
C5    C14   A    
C45   H37   S    
N9    Ni2   S    
C10   H6    S    
N4    Ni4   S    
C40   C41   A    
C8    H4    S    
N11   Ni4   S    
C55   C57   A    
C12   H12   S    
C22   C24   A    
C61   H36   S    
C42   C43   A    
C65   O1    D    
C1    C64   A    
N14   Ni4   S    
C44   H26   S    
C52   C53   A    
C62   H39   S    
C44   C50   A    
C9    N5    A    
C41   H24   S    
C46   C47   A    
C28   C29   A    
N10   Ni3   S    
N7    N16   A    
N1    N15   A    
C53   H30   S    
C25   H15   S    
C56   N13   A    
C31   C32   A    
C7    C16   A    
N9    N14   A    
C9    H5    S    
C63   H40   S    
C13   H8    S    
C8    C17   A    
N3    N6    A    
C60   C64   S    
C42   H25   S    
C32   C33   A    
C13   C15   A    
C58   C59   D    
C56   H38   S    
C38   C43   A    
C10   C16   A    
N4    N5    A    
C63   N15   A    
N8    Ni3   S    
C27   C37   S    
C48   C49   A    
C19   H11   S    
C33   C35   A    
N11   N13   A    
N12   Ni2   S    
C28   H16   S    
C7    H3    S    
C63   C64   A    
C2    C62   A    
C6    H2    S    
C20   C21   A    
C49   C50   A    
C23   H21   S    
C21   H13   S    
C27   C28   A    
C7    N3    A    
C31   H42   S    
N7    Ni4   S    
C8    N4    A    
C34   N11   A    
C13   N8    A    
N15   Ni3   S    
C3    C59   S    
