data_mof_unit_68032.cif
_audit_creation_date              2012-12-11T14:32:55-0500
_audit_creation_method            fapswitch 2.2
_symmetry_space_group_name_H-M    P1
_symmetry_Int_Tables_number       1
_space_group_crystal_system       triclinic
_cell_length_a                    6.997869
_cell_length_b                    14.577121
_cell_length_c                    17.456673
_cell_angle_alpha                 113.917284
_cell_angle_beta                  97.255597
_cell_angle_gamma                 89.374534
_cell_volume                      1613.1964047

loop_
_atom_site_label
_atom_site_type_symbol
_atom_type_description
_atom_site_fract_x
_atom_site_fract_y
_atom_site_fract_z
_atom_type_partial_charge
O1    O     O_R   0.484560 0.544530 0.414330 -0.513981
O2    O     O_R   0.197040 0.638810 0.585080 -0.518790
O3    O     O_R   0.026800 0.455470 0.585670 -0.540725
C1    C     C_R   0.371177 0.683356 0.595774 0.747968
O4    O     O_R   0.155000 0.556150 0.414940 -0.544310
O5    O     O_R   0.984450 0.372220 0.414320 -0.501994
C2    C     C_R   0.316538 0.563540 0.385723 0.749495
O6    O     O_R   0.526900 0.627780 0.585680 -0.510743
O7    O     O_3   0.339170 0.439750 0.499990 -0.367146
V1    V     V_3+5 0.064350 0.511180 0.500000 1.558787
O8    O     O_R   0.654880 0.361190 0.414920 -0.520335
C3    C     C_R   0.817109 0.325506 0.386091 0.834335
O9    O     O_R   0.696930 0.443850 0.585060 -0.522980
C4    C     C_R   0.877753 0.437405 0.617668 0.780585
V2    V     V_3+5 0.564340 0.488820 0.500000 1.586941
O10   O     O_3   0.839390 0.560250 0.500010 -0.343624
C5    C     C_R   0.029695 0.889079 0.837132 -0.160558
C6    C     C_R   0.919801 0.403388 0.693075 -0.158944
C7    C     C_R   0.921081 0.864892 0.690480 0.156058
C8    C     C_R   0.969301 0.826981 0.752270 0.069691
C9    C     C_R   0.021160 0.995481 0.861780 0.149462
C10   C     C_R   0.965786 0.036491 0.798545 0.011713
C11   C     C_R   0.937304 0.967814 0.711461 -0.087706
C12   C     C_R   0.943376 0.141611 0.813638 -0.049780
C13   C     C_R   0.957287 0.171745 0.745506 -0.038563
C14   C     C_R   0.001279 0.101225 0.671189 -0.182024
C15   C     C_R   0.944057 0.003842 0.647090 0.480963
C16   C     C_R   0.897628 0.216517 0.889607 0.415428
C17   C     C_R   0.954073 0.317386 0.907245 0.305160
C18   C     C_R   0.975085 0.345349 0.837226 -0.163230
C19   C     C_R   0.940804 0.271942 0.753189 -0.036349
C20   C     C_R   0.033520 0.442475 0.846394 0.508776
C21   C     C_R   0.000304 0.469812 0.776201 -0.232563
C22   C     C_R   0.903211 0.301555 0.681146 0.127640
H1    H     H_    0.044694 0.544940 0.789172 0.166203
H2    H     H_    0.058489 0.123076 0.627321 0.144371
C23   C     C_2   0.132349 0.035753 0.183701 -0.310441
C24   C     C_2   0.976749 0.073667 0.224740 0.401168
H3    H     H_    0.686434 0.174634 0.306936 0.166100
C25   C     C_2   0.816308 0.221604 0.320387 -0.345718
C26   C     C_2   0.972615 0.183029 0.280127 0.405579
H4    H     H_    0.261220 0.083233 0.196566 0.165002
C27   C     C_R   0.403135 0.799172 0.654860 -0.118911
C28   C     C_R   0.526895 0.470813 0.812117 -0.067714
C29   C     C_R   0.482446 0.927074 0.799849 0.128425
C30   C     C_R   0.459531 0.826988 0.741521 0.105626
C31   C     C_R   0.397923 0.882516 0.628070 -0.191321
C32   C     C_R   0.429505 0.989477 0.687996 0.077618
C33   C     C_R   0.445916 0.004660 0.773870 0.031886
C34   C     C_R   0.437573 0.084386 0.673716 -0.007022
C35   C     C_R   0.456654 0.181911 0.747388 0.020810
C36   C     C_R   0.424105 0.183793 0.823677 -0.170604
C37   C     C_R   0.417843 0.098173 0.835925 -0.101551
C38   C     C_R   0.415416 0.091879 0.593835 0.155994
C39   C     C_R   0.382680 0.187650 0.590501 0.125896
C40   C     C_R   0.418617 0.279463 0.664619 0.025091
C41   C     C_R   0.474692 0.278171 0.743548 0.064680
C42   C     C_R   0.396363 0.373607 0.661797 -0.085677
C43   C     C_R   0.442260 0.464611 0.732534 -0.140971
C44   C     C_R   0.534222 0.374092 0.816670 -0.203014
H5    H     H_    0.386985 0.106635 0.896519 0.167797
H6    H     H_    0.586749 0.374278 0.877135 0.097959
H7    H     H_    0.402256 0.529504 0.722286 0.144114
H8    H     H_    0.369114 0.860358 0.561532 0.164209
H9    H     H_    0.393911 0.252052 0.874750 0.095961
H10   H     H_    0.337323 0.378515 0.604410 0.186716
C45   C     C_2   0.320689 0.613181 0.326704 -0.294548
C46   C     C_2   0.452261 0.593368 0.270898 0.060083
H11   H     H_    0.741745 0.596806 0.179023 0.139502
C47   C     C_2   0.630249 0.649001 0.179272 -0.410522
C48   C     C_2   0.481364 0.660621 0.225936 0.470360
H12   H     H_    0.229380 0.676439 0.338281 0.143056
O11   O     O_R   0.421600 0.630430 0.917010 -0.519263
O12   O     O_R   0.793840 0.702190 0.087630 -0.560344
O13   O     O_R   0.964010 0.886170 0.088190 -0.512050
C49   C     C_R   0.632725 0.695295 0.117395 0.740876
O14   O     O_R   0.751460 0.619510 0.917500 -0.507174
O15   O     O_R   0.921330 0.802900 0.916840 -0.511369
C50   C     C_R   0.572203 0.577815 0.888584 0.693333
O16   O     O_R   0.464290 0.713700 0.088350 -0.531079
O17   O     O_3   0.609200 0.818520 0.002630 -0.328310
V3    V     V_3+5 0.884140 0.747190 0.002530 1.569292
O18   O     O_R   0.251150 0.814630 0.917340 -0.515829
C51   C     C_R   0.072815 0.839648 0.899777 0.821902
O19   O     O_R   0.293530 0.897310 0.087470 -0.531317
C52   C     C_R   0.131687 0.932280 0.117309 0.756676
V4    V     V_3+5 0.384070 0.769710 0.002370 1.584600
O20   O     O_3   0.109180 0.698190 0.002460 -0.361024
O21   O     O_3   0.842004 0.958027 0.566881 -0.516703
C53   C     C_3   0.960554 0.939375 0.502826 -0.099815
H13   H     H_    0.083795 0.894787 0.510878 0.122598
H14   H     H_    0.008188 0.008824 0.498266 0.163431
H15   H     H_    0.875251 0.893087 0.441068 0.185027
O22   O     O_3   0.113208 0.516897 0.923076 -0.523559
C54   C     C_3   0.265128 0.485665 0.967774 0.004755
H16   H     H_    0.402585 0.525602 0.979316 0.075892
H17   H     H_    0.297254 0.405956 0.936932 0.052003
H18   H     H_    0.236599 0.510541 0.033639 0.147027
O23   O     O_3   0.136445 0.243189 0.293552 -0.535648
C55   C     C_3   0.113165 0.289804 0.236453 -0.212881
H19   H     H_    0.998265 0.345159 0.251495 0.149395
H20   H     H_    0.081103 0.233906 0.169990 0.150687
H21   H     H_    0.249833 0.331110 0.242238 0.180038
O24   O     O_3   0.815355 0.012468 0.212700 -0.547165
C56   C     C_3   0.839195 0.971440 0.273776 -0.196513
H22   H     H_    0.710246 0.922557 0.264412 0.179978
H23   H     H_    0.851244 0.031154 0.339154 0.170214
H24   H     H_    0.967045 0.924025 0.266621 0.118219
I1    I     I_    0.292761 0.193679 0.469595 -0.316363
I2    I     I_    0.597392 0.969177 0.930661 -0.262773
I3    I     I_    0.816249 0.204308 0.549714 -0.417662
I4    I     I_    0.512187 0.719387 0.787697 -0.335546
I5    I     I_    0.438014 0.967743 0.474943 -0.384636
O25   O     O_3   0.370578 0.744396 0.240458 -0.548670
C57   C     C_3   0.177760 0.716151 0.202268 -0.148822
H25   H     H_    0.079965 0.741628 0.251524 0.116673
H26   H     H_    0.148697 0.634248 0.162986 0.104855
H27   H     H_    0.139440 0.757156 0.161787 0.166258
I6    I     I_    0.605706 0.456961 0.236670 -0.568613
O26   O     O_3   0.972431 0.388384 0.990609 -0.550960
C58   C     C_3   0.107247 0.358246 0.043987 -0.255727
H28   H     H_    0.052661 0.297983 0.058605 0.190839
H29   H     H_    0.143491 0.423061 0.105821 0.156455
H30   H     H_    0.243041 0.331578 0.017054 0.115376
I7    I     I_    0.828557 0.766618 0.563668 -0.298336
I8    I     I_    0.960034 0.673396 0.717974 -0.352212
I9    I     I_    0.122128 0.082112 0.992938 -0.464327
O27   O     O_3   0.805017 0.187594 0.943716 -0.532805
C59   C     C_3   0.689471 0.260403 0.997755 -0.082827
H31   H     H_    0.557269 0.222938 0.001608 0.146155
H32   H     H_    0.645116 0.321284 0.978045 0.108177
H33   H     H_    0.758469 0.292695 0.064135 0.164740

loop_
_geom_bond_atom_site_label_1
_geom_bond_atom_site_label_2
_ccdc_geom_bond_type
C13   C19   A    
C20   O22   S    
V4    O20   S    
C30   I4    S    
C4    C6    S    
O18   V4    S    
C54   H16   S    
C1    O6    A    
O27   C59   S    
O25   C57   S    
C54   H18   S    
O19   C52   A    
C36   C37   A    
C56   H23   S    
C14   C15   A    
C17   C18   A    
O12   C49   A    
O18   C51   A    
C16   C17   A    
O16   V4    S    
C46   I6    S    
O5    C3    A    
C18   C19   A    
C33   C37   A    
C27   C30   A    
C28   C43   A    
V2    O10   S    
C38   I5    S    
C5    C8    A    
C40   C41   A    
C44   H6    S    
C45   H12   S    
C23   H4    S    
O11   V4    S    
C58   H30   S    
C24   O24   S    
O8    V2    S    
C42   H10   S    
O23   C55   S    
C57   H26   S    
C26   O23   S    
C47   C48   D    
C35   C41   A    
C11   C15   A    
C9    I9    S    
O7    V1    S    
C59   H33   S    
O19   V4    S    
C16   O27   S    
O9    C4    A    
C39   I1    S    
C22   I3    S    
H11   C47   S    
C37   H5    S    
O12   V3    S    
O24   C56   S    
C17   O26   S    
O17   V3    S    
O14   C50   A    
C56   H24   S    
C45   C46   D    
C49   O16   A    
C23   C52   S    
C12   C13   A    
C24   C26   S    
C31   H8    S    
O4    C2    A    
C29   I2    S    
C41   C44   A    
C13   C14   A    
C29   C30   A    
C7    I7    S    
C55   H21   S    
C5    C9    A    
C35   C36   A    
C48   O25   S    
C3    C25   S    
O2    C1    A    
C8    I8    S    
C23   C24   D    
O15   V3    S    
O13   C52   A    
C53   H14   S    
C31   C32   A    
C29   C33   A    
C57   H27   S    
C39   C40   A    
C55   H20   S    
C34   C35   A    
O11   C50   A    
C19   C22   A    
C34   C38   A    
C6    C22   A    
C58   H28   S    
O17   V4    S    
O3    C4    A    
O1    V2    S    
C14   H2    S    
C32   C33   A    
O6    V2    S    
O9    V2    S    
C47   C49   S    
C10   C12   A    
O2    V1    S    
H3    C25   S    
O26   C58   S    
C7    C11   A    
C53   H15   S    
C59   H31   S    
C38   C39   A    
C25   C26   D    
O1    C2    A    
C28   C50   S    
C12   C16   A    
O5    V1    S    
O8    C3    A    
C54   H17   S    
O13   V3    S    
C1    C27   S    
C56   H22   S    
C43   H7    S    
C5    C51   S    
C20   C21   A    
C7    C8    A    
C42   C43   A    
O4    V1    S    
O3    V1    S    
V1    O10   S    
C18   C20   A    
C53   H13   S    
O14   V3    S    
C28   C44   A    
C46   C48   S    
V3    O20   S    
C32   C34   A    
C55   H19   S    
C21   H1    S    
C40   C42   A    
C15   O21   S    
O7    V2    S    
O22   C54   S    
C6    C21   A    
C58   H29   S    
C2    C45   S    
O15   C51   A    
C10   C11   A    
O21   C53   S    
C9    C10   A    
C27   C31   A    
C36   H9    S    
C57   H25   S    
C59   H32   S    
