data_mof_unit_38126.cif
_audit_creation_date              2012-12-10T16:50:14-0500
_audit_creation_method            fapswitch 2.2
_symmetry_space_group_name_H-M    P1
_symmetry_Int_Tables_number       1
_space_group_crystal_system       triclinic
_cell_length_a                    23.330483
_cell_length_b                    8.843932
_cell_length_c                    7.65579
_cell_angle_alpha                 102.960422
_cell_angle_beta                  95.800404
_cell_angle_gamma                 94.309218
_cell_volume                      1523.70818081

loop_
_atom_site_label
_atom_site_type_symbol
_atom_type_description
_atom_site_fract_x
_atom_site_fract_y
_atom_site_fract_z
_atom_type_partial_charge
C1    C     C_R   0.497330 0.201317 0.455421 0.820137
C2    C     C_R   0.502690 0.799042 0.545186 0.803922
C3    C     C_R   0.249956 0.676754 0.576487 -0.165200
C4    C     C_R   0.764689 0.447350 0.402347 -0.190578
C5    C     C_R   0.309458 0.666720 0.574296 0.112304
C6    C     C_R   0.704928 0.408290 0.393336 0.127306
C7    C     C_R   0.329438 0.520892 0.504548 -0.071340
C8    C     C_R   0.672223 0.517000 0.499425 -0.046657
C9    C     C_R   0.289584 0.388417 0.444806 -0.319300
C10   C     C_R   0.700286 0.661803 0.599121 -0.300873
C11   C     C_R   0.230083 0.398238 0.448333 0.154512
C12   C     C_R   0.759831 0.699808 0.601703 0.143440
C13   C     C_R   0.210362 0.544659 0.513670 0.317455
C14   C     C_R   0.792148 0.588840 0.506151 0.323179
C15   C     C_2   0.484918 0.035489 0.440761 -0.088892
C16   C     C_2   0.513410 0.965977 0.562931 -0.096657
C17   C     C_R   0.391489 0.503968 0.500588 0.780089
C18   C     C_R   0.608832 0.496371 0.498943 0.792504
C19   C     C_R   0.881193 0.660492 0.394660 0.527872
C20   C     C_R   0.124303 0.532687 0.663384 0.532101
C21   C     C_R   0.884431 0.559281 0.659662 0.515098
C22   C     C_R   0.119449 0.608407 0.382019 0.502096
C23   C     C_R   0.944591 0.557146 0.667118 -0.014729
C24   C     C_R   0.060712 0.630865 0.387653 -0.013777
C25   C     C_R   0.972951 0.603833 0.531144 -0.017737
C26   C     C_R   0.032889 0.592732 0.529189 -0.016664
C27   C     C_R   0.941264 0.657687 0.394550 -0.008903
C28   C     C_R   0.064704 0.541280 0.667368 -0.013043
C29   C     C_R   0.976610 0.504427 0.803163 -0.196454
C30   C     C_R   0.029142 0.688777 0.255119 -0.203152
C31   C     C_R   0.036201 0.498270 0.804446 -0.176283
C32   C     C_R   0.970047 0.702836 0.258991 -0.175433
Cu1   Cu    Cu3+1 0.506340 0.517380 0.684380 0.903546
Cu2   Cu    Cu3+1 0.493660 0.482620 0.315620 0.894683
H1    H     H_    0.955704 0.466987 0.908500 0.193230
H2    H     H_    0.049982 0.723152 0.147960 0.192030
H3    H     H_    0.059624 0.456915 0.911145 0.201741
H4    H     H_    0.946807 0.746018 0.153438 0.187779
H5    H     H_    0.234012 0.787879 0.629097 0.138687
H6    H     H_    0.791509 0.364222 0.332782 0.139574
H7    H     H_    0.304687 0.276435 0.396858 0.150589
H8    H     H_    0.675303 0.747995 0.672174 0.149016
N1    N     N_R   0.854146 0.610177 0.524843 -0.463313
N2    N     N_R   0.149918 0.561345 0.519374 -0.468355
N3    N     N_2   0.484110 0.456420 0.038520 -0.119514
N4    N     N_2   0.515890 0.543580 0.961480 -0.108679
O1    O     O_R   0.504120 0.286130 0.619770 -0.603619
O2    O     O_R   0.495880 0.713870 0.380230 -0.617073
O3    O     O_R   0.493410 0.256770 0.308360 -0.601044
O4    O     O_R   0.506590 0.743230 0.691640 -0.600274
O5    O     O_R   0.423230 0.514630 0.655730 -0.599547
O6    O     O_R   0.576770 0.485370 0.344270 -0.613871
O7    O     O_R   0.412530 0.485280 0.344320 -0.583659
O8    O     O_R   0.587470 0.514720 0.655680 -0.587769
O9    O     O_2   0.849829 0.709557 0.263912 -0.553901
O10   O     O_2   0.156437 0.496333 0.802004 -0.534489
O11   O     O_2   0.856097 0.506957 0.783212 -0.544648
O12   O     O_2   0.145894 0.632397 0.240368 -0.532315
C33   C     C_3   0.349736 0.813732 0.647112 -0.399355
C34   C     C_3   0.372783 0.831156 0.844279 -0.849554
H9    H     H_    0.339494 0.783601 0.916604 0.262857
H10   H     H_    0.411905 0.769257 0.857828 0.284685
H11   H     H_    0.384736 0.956827 0.907247 0.235391
H12   H     H_    0.386295 0.815928 0.566723 0.204625
H13   H     H_    0.326047 0.916463 0.636894 0.199507
C35   C     C_3   0.683608 0.242097 0.288858 -0.446975
C36   C     C_3   0.624876 0.217700 0.176405 -0.807075
H14   H     H_    0.590306 0.207750 0.260914 0.262288
H15   H     H_    0.619396 0.310614 0.103804 0.264247
H16   H     H_    0.620393 0.106380 0.075168 0.237173
H17   H     H_    0.714588 0.199488 0.192179 0.209831
H18   H     H_    0.684874 0.163107 0.381610 0.207677
C37   C     C_3   0.188949 0.251567 0.382339 -0.387734
C38   C     C_3   0.188801 0.155197 0.525766 -0.372677
C39   C     C_3   0.148263 0.005655 0.458365 -0.812355
H19   H     H_    0.162524 0.934033 0.334999 0.288894
H20   H     H_    0.148965 0.938096 0.564362 0.239821
H21   H     H_    0.103194 0.032892 0.427023 0.257054
H22   H     H_    0.233169 0.125038 0.561358 0.208071
H23   H     H_    0.174260 0.223464 0.650421 0.269172
H24   H     H_    0.144217 0.279550 0.347495 0.205107
H25   H     H_    0.202329 0.181436 0.256072 0.201597
C40   C     C_3   0.787410 0.860488 0.699975 -0.433949
C41   C     C_3   0.803890 0.870581 0.901375 -0.285887
C42   C     C_3   0.824198 0.037893 0.003960 -0.840203
H26   H     H_    0.863363 0.081605 0.951767 0.263165
H27   H     H_    0.789525 0.115141 0.989319 0.250475
H28   H     H_    0.835081 0.041806 0.149620 0.258688
H29   H     H_    0.766231 0.827402 0.960175 0.238545
H30   H     H_    0.839369 0.796643 0.919344 0.271153
H31   H     H_    0.826637 0.892483 0.639787 0.213688
H32   H     H_    0.756681 0.947247 0.681881 0.202070
C43   C     C_3   0.431895 0.959545 0.306668 -0.414969
C44   C     C_3   0.378829 0.048553 0.349278 -0.395240
C45   C     C_3   0.321213 0.957656 0.256408 -0.858148
H33   H     H_    0.321672 0.830145 0.243585 0.267828
H34   H     H_    0.285799 0.996017 0.336722 0.243955
H35   H     H_    0.310743 0.982354 0.121702 0.258248
H36   H     H_    0.377346 0.078589 0.497512 0.204717
H37   H     H_    0.383837 0.159874 0.306388 0.223095
H38   H     H_    0.442086 0.962842 0.169358 0.207520
H39   H     H_    0.419671 0.836563 0.304646 0.226441
C46   C     C_3   0.563791 0.047996 0.705616 -0.408813
C47   C     C_3   0.616872 0.094451 0.619830 -0.364423
C48   C     C_3   0.668964 0.165054 0.758903 -0.849092
H40   H     H_    0.680326 0.083411 0.844557 0.247569
H41   H     H_    0.707078 0.188424 0.689828 0.245836
H42   H     H_    0.659799 0.277990 0.842712 0.273598
H43   H     H_    0.606383 0.182601 0.543810 0.229615
H44   H     H_    0.628975 0.989745 0.526483 0.204017
H45   H     H_    0.550616 0.147922 0.803439 0.235133
H46   H     H_    0.577918 0.968315 0.789368 0.191265
C49   C     C_3   0.431127 0.363041 0.943561 -0.039564
C50   C     C_3   0.375632 0.448552 0.969959 -0.334219
C51   C     C_3   0.324501 0.339972 0.994592 -0.868187
H47   H     H_    0.312811 0.244964 0.870748 0.235354
H48   H     H_    0.335356 0.287233 0.110023 0.259067
H49   H     H_    0.286446 0.406533 0.019712 0.281356
H50   H     H_    0.383235 0.554784 0.080978 0.237236
H51   H     H_    0.360256 0.491978 0.852162 0.232064
H52   H     H_    0.433287 0.313262 0.800717 0.170090
H53   H     H_    0.427245 0.258289 0.000501 0.148593
C52   C     C_3   0.570702 0.619692 0.062148 -0.032984
C53   C     C_3   0.595245 0.764280 0.006447 -0.421032
C54   C     C_3   0.656439 0.816765 0.104491 -0.936708
H54   H     H_    0.655121 0.859239 0.251493 0.258471
H55   H     H_    0.683974 0.718624 0.082462 0.276225
H56   H     H_    0.677062 0.911081 0.051422 0.251387
H57   H     H_    0.599036 0.743091 0.862260 0.269615
H58   H     H_    0.566799 0.859182 0.041855 0.209787
H59   H     H_    0.565339 0.669928 0.201542 0.220237
H60   H     H_    0.603106 0.534182 0.049725 0.159897

loop_
_geom_bond_atom_site_label_1
_geom_bond_atom_site_label_2
_ccdc_geom_bond_type
C47   H44   S    
C43   C44   S    
C52   H60   S    
C10   H8    S    
C51   H48   S    
C37   C38   S    
C45   H33   S    
C20   O10   S    
C17   O5    A    
C50   C51   S    
C45   H35   S    
C18   O6    A    
C52   C53   S    
C42   H26   S    
C40   H32   S    
C48   H41   S    
C33   H12   S    
C34   H11   S    
C23   C29   A    
C46   H45   S    
C24   C26   A    
C47   H43   S    
C15   C16   D    
C34   H10   S    
C2    O4    A    
C21   N1    A    
C35   H18   S    
C49   H53   S    
C4    H6    S    
C7    C17   S    
C54   H56   S    
C1    C15   S    
C32   H4    S    
C19   C27   A    
C50   H50   S    
C3    C13   A    
C35   C36   S    
C3    H5    S    
C33   C34   S    
C38   H23   S    
Cu1   N4    S    
C41   H30   S    
C37   H24   S    
C47   C48   S    
C20   N2    A    
C19   N1    A    
C42   H27   S    
C48   H42   S    
C22   N2    A    
C53   C54   S    
C38   C39   S    
C5    C33   S    
C36   H14   S    
C41   C42   S    
C4    C6    A    
C11   C37   S    
C43   H38   S    
C5    C7    A    
C1    O1    A    
C6    C8    A    
C20   C28   A    
C2    O2    A    
Cu1   O4    S    
N3    N4    D    
C8    C18   S    
C31   H3    S    
C12   C40   S    
C34   H9    S    
C36   H15   S    
C39   H19   S    
C21   O11   S    
C39   H20   S    
C16   C46   S    
C35   H17   S    
C44   H37   S    
C51   H49   S    
Cu1   Cu2   S    
C53   H58   S    
Cu2   N3    S    
C9    C11   A    
C10   C12   A    
C12   C14   A    
C38   H22   S    
C21   C23   A    
C54   H54   S    
Cu1   O1    S    
C22   C24   A    
N4    C52   S    
C40   C41   S    
Cu2   O2    S    
C41   H29   S    
C15   C43   S    
C17   O7    A    
C37   H25   S    
C2    C16   S    
C49   C50   S    
C42   H28   S    
C19   O9    S    
Cu1   O8    S    
C7    C9    A    
Cu2   O3    S    
C52   H59   S    
C27   C32   A    
Cu2   O6    S    
C28   C31   A    
C3    C5    A    
C43   H39   S    
C22   O12   S    
C45   H34   S    
C9    H7    S    
Cu1   O5    S    
C40   H31   S    
C48   H40   S    
C29   H1    S    
C26   C28   A    
C30   H2    S    
C36   H16   S    
C25   C26   A    
C29   C31   A    
C33   H13   S    
C30   C32   A    
C11   C13   A    
C44   H36   S    
C53   H57   S    
C23   C25   A    
C4    C14   A    
C44   C45   S    
C39   H21   S    
C24   C30   A    
C18   O8    A    
N3    C49   S    
C6    C35   S    
C49   H52   S    
Cu2   O7    S    
C8    C10   A    
C46   C47   S    
C54   H55   S    
C46   H46   S    
C1    O3    A    
C13   N2    S    
C50   H51   S    
C51   H47   S    
C14   N1    S    
C25   C27   A    
