data_mof_unit_18714.cif
_audit_creation_date              2012-12-11T17:36:09-0500
_audit_creation_method            fapswitch 2.2
_symmetry_space_group_name_H-M    P1
_symmetry_Int_Tables_number       1
_space_group_crystal_system       triclinic
_cell_length_a                    26.166673
_cell_length_b                    6.965238
_cell_length_c                    21.356856
_cell_angle_alpha                 90.000167
_cell_angle_beta                  95.75071
_cell_angle_gamma                 90.000125
_cell_volume                      3872.84918151

loop_
_atom_site_label
_atom_site_type_symbol
_atom_type_description
_atom_site_fract_x
_atom_site_fract_y
_atom_site_fract_z
_atom_type_partial_charge
O1    O     O_R   0.208650 0.594520 0.175450 -0.525398
O2    O     O_R   0.791350 0.405480 0.824550 -0.534563
O3    O     O_R   0.291350 0.094520 0.324550 -0.525397
O4    O     O_R   0.708650 0.905480 0.675450 -0.534555
O5    O     O_R   0.192980 0.260780 0.300160 -0.560574
O6    O     O_R   0.807020 0.739220 0.699840 -0.546314
O7    O     O_R   0.307020 0.760780 0.199840 -0.560574
O8    O     O_R   0.692980 0.239220 0.800160 -0.546306
C1    C     C_R   0.178674 0.433213 0.318045 0.730959
C2    C     C_R   0.822197 0.566566 0.682965 0.731546
C3    C     C_R   0.321326 0.933213 0.181955 0.730960
C4    C     C_R   0.677803 0.066567 0.817035 0.731559
O9    O     O_R   0.202550 0.264660 0.174420 -0.552821
O10   O     O_R   0.797450 0.735340 0.825580 -0.545891
O11   O     O_R   0.297450 0.764660 0.325580 -0.552820
O12   O     O_R   0.702550 0.235340 0.674420 -0.545880
O13   O     O_R   0.300990 0.096480 0.197920 -0.514263
O14   O     O_R   0.699010 0.903520 0.802080 -0.510137
O15   O     O_R   0.199010 0.596480 0.302080 -0.514263
O16   O     O_R   0.800990 0.403520 0.697920 -0.510135
C5    C     C_R   0.191550 0.433157 0.150913 0.769483
C6    C     C_R   0.810326 0.566946 0.847891 0.771787
C7    C     C_R   0.308451 0.933157 0.349087 0.769480
C8    C     C_R   0.689675 0.066945 0.652108 0.771817
O17   O     O_3   0.282290 0.427760 0.257860 -0.370407
O18   O     O_3   0.717710 0.572240 0.742140 -0.368866
O19   O     O_3   0.217710 0.927760 0.242140 -0.370407
O20   O     O_3   0.782290 0.072240 0.757860 -0.368870
V1    V     V_3+5 0.244010 0.152080 0.248540 1.394147
V2    V     V_3+5 0.755990 0.847920 0.751460 1.435880
V3    V     V_3+5 0.255990 0.652080 0.251460 1.394146
V4    V     V_3+5 0.744010 0.347920 0.748540 1.435897
C9    C     C_R   0.653800 0.068004 0.593443 -0.193529
C10   C     C_R   0.341850 0.938350 0.408917 -0.187744
C11   C     C_R   0.846202 0.568006 0.906555 -0.193502
C12   C     C_R   0.158150 0.438348 0.091083 -0.187743
C13   C     C_R   0.636133 0.201764 0.488715 0.430652
C14   C     C_R   0.351092 0.873385 0.520881 0.424401
C15   C     C_R   0.863868 0.701764 0.011284 0.430649
C16   C     C_R   0.148909 0.373387 0.979119 0.424401
C17   C     C_R   0.668410 0.175622 0.543378 -0.323425
C18   C     C_R   0.320335 0.893396 0.464080 -0.327212
C19   C     C_R   0.831592 0.675621 0.956621 -0.323416
C20   C     C_R   0.179666 0.393397 0.035920 -0.327213
C21   C     C_R   0.603047 0.994938 0.590614 0.317733
C22   C     C_R   0.395267 0.969997 0.410429 0.341696
C23   C     C_R   0.896955 0.494943 0.909384 0.317746
C24   C     C_R   0.104733 0.469992 0.089571 0.341693
C25   C     C_R   0.565876 0.044767 0.538140 -0.067450
C26   C     C_R   0.426512 0.977964 0.469669 -0.059622
C27   C     C_R   0.934125 0.544768 0.961858 -0.067495
C28   C     C_R   0.073488 0.477959 0.030331 -0.059622
C29   C     C_R   0.584488 0.143926 0.486480 -0.001589
C30   C     C_R   0.403904 0.919909 0.524414 -0.014613
C31   C     C_R   0.915513 0.643926 0.013519 -0.001593
C32   C     C_R   0.096097 0.419907 0.975586 -0.014608
C33   C     C_R   0.511235 0.005860 0.534466 0.084365
C34   C     C_R   0.479355 0.037957 0.476619 0.093868
C35   C     C_R   0.988766 0.505858 0.965533 0.084381
C36   C     C_R   0.020645 0.537952 0.023381 0.093871
C37   C     C_R   0.499843 0.145748 0.429630 -0.184460
C38   C     C_R   0.486185 0.953126 0.587283 -0.198579
C39   C     C_R   0.000157 0.645742 0.070370 -0.184462
C40   C     C_R   0.013816 0.453128 0.912716 -0.198565
C41   C     C_R   0.550946 0.196611 0.434333 -0.205450
C42   C     C_R   0.433926 0.912738 0.582401 -0.193065
C43   C     C_R   0.949055 0.696608 0.065666 -0.205445
C44   C     C_R   0.066075 0.412740 0.917598 -0.193079
H1    H     H_    0.563950 0.281493 0.396509 0.158735
H2    H     H_    0.416965 0.875818 0.625045 0.155935
H3    H     H_    0.936051 0.781488 0.103491 0.158734
H4    H     H_    0.083037 0.375823 0.874954 0.155929
H5    H     H_    0.279400 0.867119 0.462653 0.134868
H6    H     H_    0.705129 0.245206 0.547042 0.149783
H7    H     H_    0.220601 0.367123 0.037347 0.134867
H8    H     H_    0.794872 0.745201 0.952957 0.149781
H9    H     H_    0.476315 0.204529 0.390081 0.184516
H10   H     H_    0.504935 0.955420 0.634315 0.187177
H11   H     H_    0.023686 0.704520 0.109920 0.184516
H12   H     H_    0.995067 0.455432 0.865684 0.187169
C45   C     C_R   0.409861 0.831463 0.053714 -0.165428
C46   C     C_R   0.551508 0.193981 0.882796 -0.209053
C47   C     C_R   0.090138 0.331463 0.446286 -0.165428
C48   C     C_R   0.948493 0.693976 0.617207 -0.209052
H13   H     H_    0.419331 0.717283 0.023103 0.145913
H14   H     H_    0.522525 0.304213 0.875233 0.133415
H15   H     H_    0.080668 0.217282 0.476896 0.145914
H16   H     H_    0.977478 0.804204 0.624772 0.133413
C49   C     C_R   0.371400 0.807831 0.094621 -0.247162
C50   C     C_R   0.594994 0.201728 0.849328 -0.232048
C51   C     C_R   0.128599 0.307830 0.405378 -0.247163
C52   C     C_R   0.905008 0.701723 0.650676 -0.232051
H17   H     H_    0.348605 0.678659 0.091920 0.155916
H18   H     H_    0.598939 0.321496 0.817870 0.147423
H19   H     H_    0.151394 0.178659 0.408079 0.155916
H20   H     H_    0.901064 0.821488 0.682136 0.147428
C53   C     C_R   0.362962 0.950483 0.138888 -0.156133
C54   C     C_R   0.632083 0.054451 0.854618 -0.128813
C55   C     C_R   0.137038 0.450483 0.361113 -0.156132
C56   C     C_R   0.867917 0.554450 0.645383 -0.128818
C57   C     C_R   0.391500 0.122019 0.137532 0.262743
C58   C     C_R   0.623507 0.895355 0.894143 0.240512
C59   C     C_R   0.108500 0.622018 0.362468 0.262744
C60   C     C_R   0.876493 0.395354 0.605857 0.240513
C61   C     C_R   0.419252 0.161809 0.085399 0.259962
C62   C     C_R   0.581904 0.897025 0.931864 0.257316
C63   C     C_R   0.080748 0.661808 0.414602 0.259961
C64   C     C_R   0.918097 0.397024 0.568137 0.257318
C65   C     C_R   0.433703 0.008733 0.048211 0.014757
C66   C     C_R   0.545836 0.047268 0.926333 0.027519
C67   C     C_R   0.066297 0.508733 0.451790 0.014757
C68   C     C_R   0.954165 0.547266 0.573668 0.027518
C69   C     C_1   0.470747 0.034652 0.002220 -0.054470
C70   C     C_1   0.503645 0.047918 0.966116 -0.021650
C71   C     C_1   0.029254 0.534651 0.497781 -0.054471
C72   C     C_1   0.996356 0.547917 0.533885 -0.021654
O21   O     O_3   0.416189 0.989767 0.353713 -0.587832
C73   C     C_3   0.424929 0.807334 0.327401 0.069586
H21   H     H_    0.413734 0.817745 0.275947 0.137159
H22   H     H_    0.401498 0.688922 0.345233 0.107994
C74   C     C_3   0.481977 0.755313 0.338152 -0.301850
H23   H     H_    0.505494 0.877585 0.323808 0.205837
H24   H     H_    0.492503 0.726111 0.388953 0.197636
C75   C     C_3   0.494218 0.578332 0.300307 -0.861713
H25   H     H_    0.470007 0.455268 0.312092 0.236560
H26   H     H_    0.535238 0.539042 0.311458 0.233288
H27   H     H_    0.487247 0.608663 0.249114 0.234096
O22   O     O_3   0.589730 0.897071 0.642762 -0.589210
C76   C     C_3   0.589910 0.697857 0.630844 0.080678
H28   H     H_    0.629947 0.646591 0.628121 0.141404
H29   H     H_    0.566167 0.661513 0.586094 0.125611
C77   C     C_3   0.567266 0.595795 0.685194 -0.311056
H30   H     H_    0.591674 0.624713 0.729876 0.200303
H31   H     H_    0.528161 0.652697 0.689896 0.191000
C78   C     C_3   0.563490 0.379846 0.674640 -0.802210
H32   H     H_    0.540900 0.347829 0.629025 0.235928
H33   H     H_    0.544021 0.312201 0.712882 0.226701
H34   H     H_    0.602479 0.317838 0.675116 0.243841
O23   O     O_3   0.083811 0.489758 0.146287 -0.587832
C79   C     C_3   0.075071 0.307325 0.172598 0.069588
H35   H     H_    0.086266 0.317732 0.224051 0.137160
H36   H     H_    0.098501 0.188913 0.154764 0.107993
C80   C     C_3   0.018023 0.255307 0.161848 -0.301848
H37   H     H_    0.994507 0.377581 0.176192 0.205837
H38   H     H_    0.007495 0.226106 0.111047 0.197637
C81   C     C_3   0.005781 0.078328 0.199693 -0.861712
H39   H     H_    0.029991 0.955262 0.187908 0.236559
H40   H     H_    0.964761 0.039039 0.188542 0.233288
H41   H     H_    0.012753 0.108659 0.250885 0.234096
O24   O     O_3   0.910274 0.397076 0.857236 -0.589210
C82   C     C_3   0.910085 0.197860 0.869150 0.080703
H42   H     H_    0.870041 0.146604 0.871838 0.141435
H43   H     H_    0.933804 0.161499 0.913918 0.125571
C83   C     C_3   0.932762 0.095801 0.814820 -0.311053
H44   H     H_    0.908395 0.124820 0.770113 0.200284
H45   H     H_    0.971886 0.152621 0.810179 0.190959
C84   C     C_3   0.936491 0.879830 0.825352 -0.802056
H46   H     H_    0.959028 0.847714 0.871002 0.235912
H47   H     H_    0.956001 0.812197 0.787137 0.226679
H48   H     H_    0.897484 0.817890 0.824797 0.243804
O25   O     O_3   0.654098 0.307204 0.440478 -0.576772
C85   C     C_3   0.668803 0.181218 0.393399 0.064305
H49   H     H_    0.664093 0.260133 0.347977 0.142265
H50   H     H_    0.643955 0.050915 0.386854 0.109565
C86   C     C_3   0.725282 0.122873 0.407131 -0.316066
H51   H     H_    0.749430 0.253755 0.414583 0.202391
H52   H     H_    0.730162 0.034353 0.450555 0.188786
C87   C     C_3   0.743501 0.006550 0.353052 -0.831144
H53   H     H_    0.720249 0.873642 0.345315 0.235501
H54   H     H_    0.784364 0.965599 0.364683 0.230901
H55   H     H_    0.740213 0.092969 0.309113 0.230204
O26   O     O_3   0.328047 0.822609 0.574056 -0.573603
C88   C     C_3   0.330932 0.621068 0.582480 0.077036
H56   H     H_    0.331292 0.592582 0.633707 0.145334
H57   H     H_    0.367111 0.557329 0.567942 0.106610
C89   C     C_3   0.283893 0.521401 0.548060 -0.347210
H58   H     H_    0.248193 0.591577 0.560757 0.207111
H59   H     H_    0.285170 0.533554 0.496406 0.187328
C90   C     C_3   0.282540 0.308943 0.565002 -0.768216
H60   H     H_    0.318531 0.238231 0.553911 0.246449
H61   H     H_    0.249508 0.238556 0.537351 0.227794
H62   H     H_    0.278299 0.290999 0.615897 0.232652
O27   O     O_3   0.845904 0.807210 0.059520 -0.576772
C91   C     C_3   0.831197 0.681229 0.106600 0.064301
H63   H     H_    0.835905 0.760152 0.152021 0.142271
H64   H     H_    0.856047 0.550931 0.113148 0.109561
C92   C     C_3   0.774720 0.622872 0.092866 -0.316060
H65   H     H_    0.750571 0.753749 0.085402 0.202391
H66   H     H_    0.769844 0.534323 0.049446 0.188780
C93   C     C_3   0.756497 0.506581 0.146950 -0.831123
H67   H     H_    0.779751 0.373686 0.154702 0.235495
H68   H     H_    0.715636 0.465608 0.135314 0.230899
H69   H     H_    0.759776 0.593036 0.190882 0.230201
O28   O     O_3   0.171955 0.322612 0.925944 -0.573602
C94   C     C_3   0.169068 0.121072 0.917518 0.077033
H70   H     H_    0.168709 0.092589 0.866291 0.145332
H71   H     H_    0.132889 0.057334 0.932055 0.106612
C95   C     C_3   0.216107 0.021402 0.951937 -0.347212
H72   H     H_    0.251807 0.091575 0.939240 0.207111
H73   H     H_    0.214831 0.033557 0.003591 0.187330
C96   C     C_3   0.217458 0.808944 0.934994 -0.768216
H74   H     H_    0.181467 0.738235 0.946087 0.246450
H75   H     H_    0.250490 0.738555 0.962645 0.227796
H76   H     H_    0.221698 0.790999 0.884099 0.232652
N1    N     N_2   0.399945 0.232545 0.193617 -0.524690
H77   H     H_    0.436456 0.215902 0.216029 0.246469
C97   C     C_3   0.383869 0.429828 0.189914 -0.406190
H78   H     H_    0.412223 0.516680 0.166995 0.188403
H79   H     H_    0.382054 0.486087 0.238204 0.185250
H80   H     H_    0.345068 0.440375 0.163979 0.207432
N2    N     N_2   0.655618 0.730730 0.894922 -0.487831
H81   H     H_    0.635298 0.604865 0.886662 0.269993
C98   C     C_3   0.692806 0.716396 0.949298 -0.532879
H82   H     H_    0.718789 0.594014 0.942478 0.178924
H83   H     H_    0.673879 0.687715 0.992533 0.211112
H84   H     H_    0.715023 0.852044 0.955619 0.184614
N3    N     N_2   0.100055 0.732543 0.306383 -0.524690
H85   H     H_    0.063543 0.715899 0.283972 0.246468
C99   C     C_3   0.116131 0.929825 0.310085 -0.406193
H86   H     H_    0.087777 0.016679 0.333004 0.188403
H87   H     H_    0.117946 0.986081 0.261795 0.185250
H88   H     H_    0.154932 0.940373 0.336020 0.207432
N4    N     N_2   0.844382 0.230728 0.605079 -0.487819
H89   H     H_    0.864703 0.104861 0.613343 0.269983
C100  C     C_3   0.807195 0.216379 0.550700 -0.532824
H90   H     H_    0.781210 0.094005 0.557527 0.178915
H91   H     H_    0.826124 0.187660 0.507464 0.211102
H92   H     H_    0.784981 0.352041 0.544369 0.184603
N5    N     N_2   0.414416 0.346684 0.057472 -0.527206
H93   H     H_    0.446514 0.389187 0.036789 0.251534
C101  C     C_3   0.367660 0.360913 0.014533 -0.574293
H94   H     H_    0.364303 0.502224 0.991052 0.188941
H95   H     H_    0.333303 0.340630 0.040515 0.193022
H96   H     H_    0.367362 0.250867 0.976776 0.202446
N6    N     N_2   0.578313 0.750584 0.977747 -0.524384
H97   H     H_    0.580632 0.800414 0.023429 0.254849
C102  C     C_3   0.538258 0.609658 0.963776 -0.556481
H98   H     H_    0.553596 0.465979 0.977772 0.215550
H99   H     H_    0.524284 0.609352 0.912904 0.191904
H100  H     H_    0.505389 0.640188 0.991238 0.186184
N7    N     N_2   0.085584 0.846684 0.442529 -0.527205
H101  H     H_    0.053486 0.889187 0.463212 0.251534
C103  C     C_3   0.132340 0.860915 0.485468 -0.574295
H102  H     H_    0.135697 0.002227 0.508949 0.188942
H103  H     H_    0.166697 0.840630 0.459486 0.193022
H104  H     H_    0.132637 0.750871 0.523225 0.202446
N8    N     N_2   0.921689 0.250580 0.522255 -0.524383
H105  H     H_    0.919374 0.300407 0.476573 0.254849
C104  C     C_3   0.961742 0.109651 0.536231 -0.556480
H106  H     H_    0.946404 0.965974 0.522231 0.215550
H107  H     H_    0.975711 0.109342 0.587104 0.191903
H108  H     H_    0.994615 0.140182 0.508774 0.186183

loop_
_geom_bond_atom_site_label_1
_geom_bond_atom_site_label_2
_ccdc_geom_bond_type
O17   V3    S    
C80   C81   S    
C55   C59   A    
O1    C5    A    
C86   H51   S    
C94   H71   S    
O19   V1    S    
C9    C21   A    
C96   H74   S    
O3    C7    A    
N4    H89   S    
C10   C18   A    
C79   C80   S    
C56   C60   A    
C11   C23   A    
O22   C76   S    
C73   H22   S    
O25   C85   S    
C25   C33   A    
C78   H32   S    
C5    C12   S    
C16   O28   S    
C98   H82   S    
O7    C3    A    
C6    C11   S    
C64   N8    S    
C104  H106  S    
C48   C68   A    
C36   C39   A    
C46   C66   A    
O9    V1    S    
C79   H36   S    
C14   C18   A    
C75   H26   S    
C13   C17   A    
O16   V4    S    
O4    C8    A    
C92   H66   S    
C25   C29   A    
C58   N2    S    
C88   C89   S    
C43   H3    S    
C21   O22   S    
C80   H37   S    
C81   H41   S    
C80   H38   S    
C60   C64   A    
O1    V3    S    
C100  H92   S    
O13   V1    S    
C91   H63   S    
O2    V4    S    
N7    H101  S    
C82   C83   S    
O3    V1    S    
C73   H21   S    
C92   C93   S    
C61   C65   A    
C28   C36   A    
C93   H69   S    
C100  H91   S    
C17   H6    S    
C40   H12   S    
C1    O15   A    
C87   H55   S    
C15   C31   A    
C37   H9    S    
C77   H30   S    
C103  H103  S    
C103  H102  S    
O2    C6    A    
C97   H80   S    
N6    H97   S    
C89   H58   S    
C95   H72   S    
C10   C22   A    
C11   C19   A    
C66   C70   S    
C60   N4    S    
C85   H50   S    
C65   C69   S    
C76   C77   S    
C13   C29   A    
O11   C7    A    
C7    C10   S    
C34   C37   A    
C87   H54   S    
O28   C94   S    
C82   H42   S    
O15   V3    S    
C35   C36   A    
O12   C8    A    
C16   C32   A    
C102  H98   S    
C90   H61   S    
C57   C61   A    
C96   H75   S    
O10   V2    S    
C50   H18   S    
C81   H40   S    
N8    C104  S    
C52   H20   S    
O17   V1    S    
C39   C43   A    
C104  H107  S    
O7    V3    S    
C62   N6    S    
C38   C42   A    
O19   V3    S    
C97   H78   S    
C26   C34   A    
O20   V4    S    
C79   H35   S    
C83   C84   S    
C69   C70   T    
C102  H100  S    
C2    O16   A    
C99   H86   S    
C1    C55   S    
O18   V4    S    
C15   C19   A    
C94   H70   S    
C33   C38   A    
N3    H85   S    
C88   H56   S    
O11   V3    S    
O4    V2    S    
C81   H39   S    
C64   C68   A    
C84   H46   S    
C49   C53   A    
C44   H4    S    
N7    C103  S    
C73   C74   S    
O8    V4    S    
C83   H45   S    
C84   H47   S    
C20   H7    S    
O27   C91   S    
C93   H67   S    
O5    C1    A    
N5    H93   S    
C37   C41   A    
C99   H87   S    
C85   C86   S    
C31   C43   A    
N2    H81   S    
C14   C30   A    
C23   O24   S    
C21   C25   A    
O8    C4    A    
C103  H104  S    
C95   C96   S    
C100  H90   S    
C35   C40   A    
O9    C5    A    
C101  H95   S    
C15   O27   S    
C2    C56   S    
C88   H57   S    
C83   H44   S    
C74   H23   S    
C78   H34   S    
C57   N1    S    
C59   N3    S    
C75   H27   S    
O14   V2    S    
C77   H31   S    
C87   H53   S    
N2    C98   S    
C45   C65   A    
O18   V2    S    
C84   H48   S    
C102  H99   S    
N6    C102  S    
C39   H11   S    
N5    C101  S    
C96   H76   S    
C47   C67   A    
C12   C20   A    
C27   C35   A    
C16   C20   A    
O5    V1    S    
C40   C44   A    
C68   C72   S    
C4    C54   S    
C29   C41   A    
O26   C88   S    
C52   C56   A    
C13   O25   S    
C85   H49   S    
C62   C66   A    
C98   H84   S    
C19   H8    S    
C78   H33   S    
N1    H77   S    
C3    O13   A    
C104  H108  S    
C93   H68   S    
C24   O23   S    
O6    V2    S    
C63   C67   A    
C38   H10   S    
C48   H16   S    
C97   H79   S    
C47   H15   S    
O6    C2    A    
C90   H62   S    
C23   C27   A    
O23   C79   S    
N4    C100  S    
C14   O26   S    
C86   C87   S    
C30   C42   A    
O12   V4    S    
C47   C51   A    
C22   C26   A    
C8    C9    S    
C46   C50   A    
C91   C92   S    
C3    C53   S    
C59   C63   A    
C32   C44   A    
C89   C90   S    
C95   H73   S    
C76   H28   S    
C98   H83   S    
C9    C17   A    
O20   V2    S    
C26   C30   A    
C54   C58   A    
O21   C73   S    
C99   H88   S    
C46   H14   S    
O10   C6    A    
C33   C34   A    
C42   H2    S    
C77   C78   S    
C41   H1    S    
C89   H59   S    
C18   H5    S    
C22   O21   S    
C91   H64   S    
C12   C24   A    
C101  H96   S    
C27   C31   A    
C82   H43   S    
C45   C49   A    
C49   H17   S    
N3    C99   S    
C53   C57   A    
C74   H24   S    
C51   H19   S    
C90   H60   S    
C94   C95   S    
C28   C32   A    
C24   C28   A    
C92   H65   S    
C86   H52   S    
C58   C62   A    
C4    O14   A    
C101  H94   S    
C74   C75   S    
O24   C82   S    
C63   N7    S    
C67   C71   S    
C48   C52   A    
C51   C55   A    
N1    C97   S    
C50   C54   A    
C45   H13   S    
C71   C72   T    
N8    H105  S    
C61   N5    S    
C75   H25   S    
C76   H29   S    
