data_mof_unit_29815.cif
_audit_creation_date              2012-12-11T14:42:04-0500
_audit_creation_method            fapswitch 2.2
_symmetry_space_group_name_H-M    P1
_symmetry_Int_Tables_number       1
_space_group_crystal_system       triclinic
_cell_length_a                    19.09296
_cell_length_b                    11.149631
_cell_length_c                    18.631516
_cell_angle_alpha                 90.430181
_cell_angle_beta                  90.421249
_cell_angle_gamma                 90.814539
_cell_volume                      3965.64411895

loop_
_atom_site_label
_atom_site_type_symbol
_atom_type_description
_atom_site_fract_x
_atom_site_fract_y
_atom_site_fract_z
_atom_type_partial_charge
C1    C     C_R   0.728795 0.951495 0.851282 0.581677
C2    C     C_R   0.271654 0.954205 0.147039 0.550529
C3    C     C_R   0.228915 0.451245 0.851106 0.565427
C4    C     C_R   0.771607 0.454061 0.147107 0.560429
C5    C     C_R   0.687029 0.445164 0.042701 0.203147
C6    C     C_R   0.314458 0.434134 0.953228 0.272817
C7    C     C_R   0.187299 0.946121 0.042408 0.204473
C8    C     C_R   0.813789 0.935521 0.953891 0.273568
C9    C     C_R   0.742900 0.394362 0.082071 -0.032441
C10   C     C_R   0.252460 0.395325 0.917931 -0.038858
C11   C     C_R   0.243204 0.895321 0.081657 -0.030843
C12   C     C_R   0.751763 0.896782 0.918647 -0.040162
C13   C     C_R   0.777433 0.293710 0.053688 0.222485
C14   C     C_R   0.202819 0.324438 0.954661 0.262414
C15   C     C_R   0.277680 0.794773 0.053172 0.223360
C16   C     C_R   0.701572 0.827538 0.955735 0.259924
C17   C     C_R   0.772139 0.270197 0.980592 0.356115
C18   C     C_R   0.201181 0.331546 0.028213 0.432298
C19   C     C_R   0.272085 0.770635 0.980275 0.354437
C20   C     C_R   0.699931 0.835488 0.029223 0.432759
C21   C     C_R   0.724178 0.331269 0.937855 -0.064540
C22   C     C_R   0.258812 0.379290 0.066666 -0.086689
C23   C     C_R   0.224295 0.831989 0.937608 -0.066297
C24   C     C_R   0.757827 0.882658 0.067509 -0.084392
C25   C     C_R   0.446813 0.260573 0.560531 0.215567
C26   C     C_R   0.445865 0.270152 0.486098 0.210848
C27   C     C_R   0.947442 0.725386 0.552304 0.222467
C28   C     C_R   0.945677 0.745145 0.479486 0.204299
C29   C     C_R   0.444064 0.166947 0.442517 -0.081522
C30   C     C_R   0.475993 0.157948 0.587842 -0.075295
C31   C     C_R   0.982179 0.668775 0.432139 -0.032421
C32   C     C_R   0.996125 0.646121 0.577569 -0.064107
C33   C     C_R   0.444991 0.053754 0.477213 0.215971
C34   C     C_R   0.462693 0.049065 0.550896 0.264949
C35   C     C_R   0.021157 0.572895 0.457523 0.281480
C36   C     C_R   0.024829 0.556724 0.531521 0.245896
C37   C     C_R   0.823941 0.424172 0.554169 -0.223155
C38   C     C_R   0.200595 0.354796 0.467792 -0.131409
C39   C     C_R   0.279382 0.785811 0.518825 -0.168576
C40   C     C_R   0.674152 0.919002 0.446221 -0.216148
C41   C     C_R   0.834165 0.439618 0.481130 0.173760
C42   C     C_R   0.207482 0.337905 0.539838 0.230891
C43   C     C_R   0.281761 0.798082 0.444489 0.248790
C44   C     C_R   0.664693 0.934605 0.519547 0.175114
C45   C     C_R   0.529368 0.176534 0.850245 0.532555
C46   C     C_R   0.470395 0.177840 0.149550 0.565769
C47   C     C_R   0.029467 0.676515 0.850320 0.545854
C48   C     C_R   0.970457 0.677844 0.149608 0.563077
C49   C     C_R   0.777957 0.476177 0.437280 -0.007674
C50   C     C_R   0.252640 0.415669 0.577464 -0.017302
C51   C     C_R   0.241683 0.887569 0.413428 -0.004762
C52   C     C_R   0.721537 0.975729 0.562627 -0.033152
C53   C     C_R   0.712059 0.495299 0.467921 0.227403
C54   C     C_R   0.307689 0.478373 0.540926 0.274773
C55   C     C_R   0.180924 0.922539 0.448583 0.220852
C56   C     C_R   0.786452 0.003390 0.530462 0.241638
C57   C     C_R   0.702410 0.477735 0.541204 0.331007
C58   C     C_R   0.309160 0.466346 0.465203 0.384945
C59   C     C_R   0.172096 0.894256 0.522019 0.321928
C60   C     C_R   0.792255 0.994189 0.455954 0.387177
C61   C     C_R   0.756964 0.432284 0.583070 -0.056602
C62   C     C_R   0.254530 0.404663 0.428771 -0.062511
C63   C     C_R   0.226349 0.835972 0.559437 -0.075897
C64   C     C_R   0.740113 0.936519 0.415803 -0.036786
C65   C     C_R   0.723351 0.311810 0.859625 0.591538
C66   C     C_R   0.264104 0.354109 0.143514 0.549111
C67   C     C_R   0.223355 0.811921 0.859574 0.592874
C68   C     C_R   0.763589 0.855983 0.144096 0.547210
C69   C     C_R   0.710490 0.997615 0.639337 0.588864
C70   C     C_R   0.270286 0.951863 0.350659 0.556713
C71   C     C_R   0.229055 0.454840 0.648066 0.552734
C72   C     C_R   0.789380 0.497360 0.360551 0.596958
C73   C     C_R   0.526932 0.173916 0.646802 0.549970
C74   C     C_R   0.436392 0.179452 0.363149 0.593046
C75   C     C_R   0.029648 0.672641 0.645518 0.586004
C76   C     C_R   0.967305 0.677477 0.356794 0.595787
C77   C     C_R   0.740958 0.366814 0.648852 0.559496
C78   C     C_R   0.261340 0.362365 0.354452 0.536007
C79   C     C_R   0.225172 0.813572 0.638244 0.574839
C80   C     C_R   0.758476 0.868928 0.350619 0.570328
C81   C     C_2   0.495048 0.162284 0.920101 -0.146066
C82   C     C_2   0.500191 0.169588 0.077365 -0.099746
C83   C     C_2   0.995343 0.662135 0.920276 -0.143549
C84   C     C_2   0.000413 0.669628 0.077519 -0.098869
C85   C     C_2   0.501222 0.064681 0.040785 0.252164
C86   C     C_2   0.503095 0.061186 0.960236 0.235422
C87   C     C_2   0.001704 0.564705 0.041015 0.252365
C88   C     C_2   0.003720 0.561161 0.960488 0.233602
C89   C     C_R   0.676861 0.408825 0.970771 -0.222869
C90   C     C_R   0.316834 0.424959 0.029063 -0.187667
C91   C     C_R   0.177212 0.910122 0.970429 -0.223074
C92   C     C_R   0.815953 0.927575 0.029770 -0.185766
Cr1   Cr    Cr6+3 0.769270 0.163730 0.750710 1.044562
Cr2   Cr    Cr6+3 0.230730 0.163730 0.249290 1.071777
Cr3   Cr    Cr6+3 0.269270 0.663730 0.750710 1.058817
Cr4   Cr    Cr6+3 0.730730 0.663730 0.249290 1.070468
Cr5   Cr    Cr6+3 0.612620 0.009790 0.748780 1.041222
Cr6   Cr    Cr6+3 0.387380 0.009790 0.251220 1.035143
Cr7   Cr    Cr6+3 0.112620 0.509790 0.748780 1.037337
Cr8   Cr    Cr6+3 0.887380 0.509790 0.251220 1.019013
Cr9   Cr    Cr6+3 0.614160 0.322500 0.747710 1.040418
Cr10  Cr    Cr6+3 0.385840 0.322500 0.252290 1.033352
Cr11  Cr    Cr6+3 0.114160 0.822500 0.747710 1.037401
Cr12  Cr    Cr6+3 0.885840 0.822500 0.252290 1.047804
H1    H     H_    0.507640 0.254181 0.050516 0.027134
H2    H     H_    0.473512 0.242598 0.942961 0.052459
H3    H     H_    0.007760 0.754194 0.050631 0.026701
H4    H     H_    0.973604 0.742314 0.943094 0.052984
H5    H     H_    0.636060 0.448614 0.938886 0.140351
H6    H     H_    0.362429 0.454085 0.059539 0.151659
H7    H     H_    0.136502 0.950197 0.938546 0.141493
H8    H     H_    0.861643 0.956520 0.060151 0.151431
H9    H     H_    0.866664 0.391678 0.586451 0.130803
H10   H     H_    0.156483 0.315995 0.441417 0.149726
H11   H     H_    0.317925 0.737620 0.546148 0.194723
H12   H     H_    0.631769 0.881308 0.414398 0.127441
O1    O     O_R   0.784320 0.290430 0.830510 -0.466806
O2    O     O_R   0.215680 0.290430 0.169490 -0.409733
O3    O     O_R   0.284320 0.790430 0.830510 -0.464288
O4    O     O_R   0.715680 0.790430 0.169490 -0.413521
O5    O     O_R   0.554640 0.080370 0.673500 -0.480193
O6    O     O_R   0.445360 0.080370 0.326500 -0.492126
O7    O     O_R   0.054640 0.580370 0.673500 -0.504142
O8    O     O_R   0.945360 0.580370 0.326500 -0.508762
O9    O     O_R   0.543920 0.282180 0.666790 -0.445466
O10   O     O_R   0.456080 0.282180 0.333210 -0.467383
O11   O     O_R   0.043920 0.782180 0.666790 -0.422864
O12   O     O_R   0.956080 0.782180 0.333210 -0.470088
O13   O     O_R   0.679040 0.374160 0.674430 -0.416560
O14   O     O_R   0.320960 0.374160 0.325570 -0.448643
O15   O     O_R   0.179040 0.874160 0.674430 -0.456875
O16   O     O_R   0.820960 0.874160 0.325570 -0.411019
O17   O     O_3   0.665350 0.165340 0.749070 -0.319789
O18   O     O_3   0.334650 0.165340 0.250930 -0.307252
O19   O     O_3   0.165350 0.665340 0.749070 -0.317236
O20   O     O_3   0.834650 0.665340 0.250930 -0.307972
O21   O     O_R   0.762640 0.040960 0.825200 -0.429032
O22   O     O_R   0.237360 0.040960 0.174800 -0.439114
O23   O     O_R   0.262640 0.540960 0.825200 -0.438470
O24   O     O_R   0.737360 0.540960 0.174800 -0.437308
O25   O     O_R   0.667400 0.923970 0.829950 -0.468424
O26   O     O_R   0.332600 0.923970 0.170050 -0.516110
O27   O     O_R   0.167400 0.423970 0.829950 -0.471596
O28   O     O_R   0.832600 0.423970 0.170050 -0.512511
O29   O     O_R   0.553960 0.081340 0.821780 -0.463183
O30   O     O_R   0.446040 0.081340 0.178220 -0.461230
O31   O     O_R   0.053960 0.581340 0.821780 -0.462918
O32   O     O_R   0.946040 0.581340 0.178220 -0.464204
O33   O     O_R   0.543180 0.283240 0.826740 -0.534843
O34   O     O_R   0.456820 0.283240 0.173260 -0.531003
O35   O     O_R   0.043180 0.783240 0.826740 -0.527177
O36   O     O_R   0.956820 0.783240 0.173260 -0.532085
O37   O     O_R   0.678360 0.375140 0.822710 -0.540813
O38   O     O_R   0.321640 0.375140 0.177290 -0.544883
O39   O     O_R   0.178360 0.875140 0.822710 -0.542315
O40   O     O_R   0.821640 0.875140 0.177290 -0.543232
O41   O     O_R   0.785050 0.289380 0.670560 -0.580546
O42   O     O_R   0.214950 0.289380 0.329440 -0.555882
O43   O     O_R   0.285050 0.789380 0.670560 -0.549751
O44   O     O_R   0.714950 0.789380 0.329440 -0.573511
O45   O     O_R   0.763320 0.039990 0.676930 -0.490466
O46   O     O_R   0.236680 0.039990 0.323070 -0.490245
O47   O     O_R   0.263320 0.539990 0.676930 -0.491333
O48   O     O_R   0.736680 0.539990 0.323070 -0.466509
O49   O     O_R   0.668130 0.922920 0.670000 -0.520256
O50   O     O_R   0.331870 0.922920 0.330000 -0.461684
O51   O     O_R   0.168130 0.422920 0.670000 -0.464067
O52   O     O_R   0.831870 0.422920 0.330000 -0.512207
O53   O     O_3   0.513873 0.961292 0.079999 -0.497908
C93   C     C_3   0.461971 0.872637 0.066959 0.026169
H13   H     H_    0.480393 0.807325 0.026347 0.168948
H14   H     H_    0.410450 0.910196 0.051132 0.110705
H15   H     H_    0.453994 0.821873 0.117267 0.170690
O54   O     O_3   0.521213 0.953030 0.928355 -0.481209
C94   C     C_3   0.462078 0.903766 0.891650 -0.060270
H16   H     H_    0.414483 0.901120 0.925670 0.102491
H17   H     H_    0.473799 0.810062 0.875878 0.157922
H18   H     H_    0.449966 0.953730 0.841878 0.111375
O55   O     O_3   0.014573 0.461459 0.080283 -0.499642
C95   C     C_3   0.962655 0.372704 0.067550 0.025134
H19   H     H_    0.981031 0.307144 0.027059 0.168649
H20   H     H_    0.911080 0.410083 0.051723 0.112638
H21   H     H_    0.954773 0.322275 0.117996 0.169519
O56   O     O_3   0.022256 0.453136 0.928726 -0.482143
C96   C     C_3   0.963230 0.402885 0.892314 -0.060241
H22   H     H_    0.915663 0.400179 0.926368 0.104014
H23   H     H_    0.975244 0.309134 0.876912 0.156688
H24   H     H_    0.950891 0.452175 0.842371 0.117306
O57   O     O_3   0.897269 0.405866 0.451952 -0.593396
C97   C     C_3   0.893043 0.283313 0.430845 -0.073132
H25   H     H_    0.909712 0.272689 0.374394 0.154661
H26   H     H_    0.839589 0.242420 0.434363 0.176779
H27   H     H_    0.930773 0.230943 0.461973 0.096270
O58   O     O_3   0.161341 0.259393 0.572827 -0.561783
C98   C     C_3   0.199467 0.170801 0.609281 -0.111685
H28   H     H_    0.226995 0.208274 0.657259 0.094814
H29   H     H_    0.237110 0.125162 0.573132 0.093121
H30   H     H_    0.161883 0.102441 0.629112 0.210058
O59   O     O_3   0.326993 0.729877 0.403818 -0.502257
C99   C     C_3   0.289056 0.673158 0.346538 -0.023783
H31   H     H_    0.269348 0.736313 0.306081 0.080818
H32   H     H_    0.243565 0.620403 0.366625 0.120077
H33   H     H_    0.324515 0.612771 0.317011 0.182185
O60   O     O_3   0.599362 0.910331 0.548243 -0.522748
C100  C     C_3   0.595169 0.790930 0.574218 -0.013333
H34   H     H_    0.577269 0.792077 0.630688 0.182380
H35   H     H_    0.644934 0.739922 0.571601 0.127039
H36   H     H_    0.552935 0.741113 0.546399 0.092733
O61   O     O_3   0.654620 0.509685 0.423919 -0.574932
C101  C     C_3   0.632461 0.629093 0.426751 -0.086136
H37   H     H_    0.673019 0.692357 0.447994 0.123698
H38   H     H_    0.584783 0.633722 0.459173 0.098643
H39   H     H_    0.617068 0.656689 0.371914 0.155952
O62   O     O_3   0.354205 0.549185 0.582924 -0.548217
C102  C     C_3   0.415095 0.599577 0.551108 -0.004681
H40   H     H_    0.406074 0.650477 0.501541 0.199841
H41   H     H_    0.456602 0.534651 0.543764 0.221070
H42   H     H_    0.437376 0.665879 0.589819 0.099433
O63   O     O_3   0.129402 0.976452 0.408736 -0.581875
C103  C     C_3   0.125110 0.096175 0.430306 -0.091634
H43   H     H_    0.178644 0.134555 0.437238 0.148762
H44   H     H_    0.094596 0.105273 0.480476 0.171532
H45   H     H_    0.097670 0.146184 0.387545 0.112769
O64   O     O_3   0.847073 0.005946 0.571734 -0.483182
C104  C     C_3   0.872827 0.123530 0.581959 -0.030535
H46   H     H_    0.839525 0.192975 0.557651 0.104377
H47   H     H_    0.926521 0.130034 0.560849 0.090477
H48   H     H_    0.878234 0.141519 0.640296 0.162887
F1    F     F_    0.638369 0.495930 0.569937 -0.661877
F2    F     F_    0.361123 0.514466 0.425918 -0.604772
F3    F     F_    0.112459 0.925038 0.556102 -0.663441
F4    F     F_    0.850387 0.033578 0.422756 -0.661415
O65   O     O_3   0.650775 0.540854 0.072249 -0.478408
C105  C     C_3   0.578674 0.535822 0.055481 -0.047308
H49   H     H_    0.568817 0.577360 0.002491 0.141792
H50   H     H_    0.550312 0.589573 0.095993 0.164211
H51   H     H_    0.556924 0.443034 0.057490 0.074716
O66   O     O_3   0.368439 0.480628 0.910734 -0.498052
C106  C     C_3   0.430863 0.508920 0.948515 -0.069501
H52   H     H_    0.423691 0.585918 0.985783 0.177425
H53   H     H_    0.471331 0.535890 0.909144 0.132283
H54   H     H_    0.450970 0.430299 0.977777 0.060410
O67   O     O_3   0.150630 0.040972 0.072334 -0.475207
C107  C     C_3   0.078577 0.035405 0.055364 -0.045491
H55   H     H_    0.068702 0.077517 0.002540 0.143213
H56   H     H_    0.049921 0.088317 0.096050 0.163227
H57   H     H_    0.057160 0.942379 0.056880 0.073319
O68   O     O_3   0.868065 0.980681 0.911286 -0.490731
C108  C     C_3   0.930688 0.007859 0.948997 -0.066762
H58   H     H_    0.924179 0.085697 0.985779 0.175716
H59   H     H_    0.971456 0.033017 0.909532 0.133085
H60   H     H_    0.950005 0.929194 0.978792 0.059714
O69   O     O_3   0.823397 0.226501 0.094076 -0.565915
C109  C     C_3   0.785419 0.164470 0.147281 -0.093846
H61   H     H_    0.741765 0.109990 0.123451 0.121557
H62   H     H_    0.764239 0.225803 0.188708 0.131002
H63   H     H_    0.821716 0.103744 0.175328 0.156881
O70   O     O_3   0.149341 0.260763 0.920111 -0.485282
C110  C     C_3   0.178756 0.171194 0.876027 -0.094484
H64   H     H_    0.135951 0.110890 0.856494 0.141547
H65   H     H_    0.217519 0.116743 0.905900 0.107615
H66   H     H_    0.204229 0.209626 0.827853 0.105903
O71   O     O_3   0.322739 0.726546 0.093858 -0.561480
C111  C     C_3   0.283018 0.662482 0.144733 -0.099187
H67   H     H_    0.242492 0.604681 0.118170 0.129728
H68   H     H_    0.256971 0.722879 0.183440 0.100539
H69   H     H_    0.318863 0.605206 0.175890 0.143685
O72   O     O_3   0.647848 0.764033 0.921495 -0.484772
C112  C     C_3   0.676908 0.672457 0.878685 -0.090853
H70   H     H_    0.633829 0.612309 0.859622 0.140883
H71   H     H_    0.715181 0.618358 0.909437 0.108801
H72   H     H_    0.702890 0.708853 0.830237 0.116957
F5    F     F_    0.815685 0.190031 0.950947 -0.610097
F6    F     F_    0.143176 0.287985 0.061419 -0.548039
F7    F     F_    0.314891 0.689088 0.950827 -0.609210
F8    F     F_    0.641909 0.792179 0.062568 -0.548018
O73   O     O_3   0.433658 0.358160 0.604540 -0.510752
C113  C     C_3   0.390657 0.323036 0.662870 -0.063862
H73   H     H_    0.419586 0.272872 0.704427 0.108980
H74   H     H_    0.344778 0.268334 0.644573 0.047073
H75   H     H_    0.371637 0.404488 0.690345 0.186040
O74   O     O_3   0.451576 0.380308 0.455746 -0.499830
C114  C     C_3   0.522636 0.405407 0.443837 -0.028012
H76   H     H_    0.552716 0.327971 0.422501 0.138954
H77   H     H_    0.547239 0.436457 0.494407 0.211148
H78   H     H_    0.524984 0.476783 0.402940 0.181903
O75   O     O_3   0.913022 0.801248 0.598618 -0.481065
C115  C     C_3   0.854037 0.738905 0.625288 -0.060903
H79   H     H_    0.869391 0.657383 0.655435 0.073946
H80   H     H_    0.816670 0.714575 0.581149 0.108254
H81   H     H_    0.826302 0.798530 0.663211 0.174931
O76   O     O_3   0.921361 0.853673 0.456362 -0.463972
C116  C     C_3   0.977838 0.936576 0.462929 0.043894
H82   H     H_    0.027325 0.896092 0.445836 0.179824
H83   H     H_    0.983592 0.968343 0.519181 0.197712
H84   H     H_    0.970033 0.014427 0.427438 0.166888
O77   O     O_3   0.421080 0.951546 0.441962 -0.516189
C117  C     C_3   0.478130 0.883846 0.417987 -0.003500
H85   H     H_    0.495284 0.822956 0.460541 0.138536
H86   H     H_    0.522397 0.940513 0.398662 0.106898
H87   H     H_    0.460437 0.826886 0.372104 0.160146
O78   O     O_3   0.465978 0.939418 0.584782 -0.528496
C118  C     C_3   0.415693 0.934923 0.639743 -0.099319
H88   H     H_    0.362558 0.955517 0.618632 0.126376
H89   H     H_    0.429205 0.996753 0.684901 0.100142
H90   H     H_    0.414804 0.843092 0.661995 0.156548
O79   O     O_3   0.069480 0.519421 0.412611 -0.560401
C119  C     C_3   0.045693 0.404867 0.390254 -0.076073
H91   H     H_    0.996712 0.407082 0.359278 0.173583
H92   H     H_    0.040154 0.342818 0.436015 0.128643
H93   H     H_    0.084280 0.367707 0.352304 0.127344
O80   O     O_3   0.064255 0.463467 0.557873 -0.494445
C120  C     C_3   0.018646 0.378325 0.589904 -0.029844
H94   H     H_    0.978080 0.419173 0.624478 0.070905
H95   H     H_    0.049089 0.319213 0.625486 0.187246
H96   H     H_    0.993331 0.321091 0.548550 0.097434

loop_
_geom_bond_atom_site_label_1
_geom_bond_atom_site_label_2
_ccdc_geom_bond_type
C36   O80   S    
C55   C59   A    
C32   C75   S    
C118  H89   S    
O68   C108  S    
C6    O66   S    
O74   C114  S    
C71   O47   A    
C80   O16   A    
Cr7   O27   S    
C38   H10   S    
C29   C33   A    
C104  H48   S    
C107  H55   S    
C82   H1    S    
C9    C13   A    
C109  H62   S    
C11   C15   A    
C12   C16   A    
C8    C92   A    
C47   C83   S    
C81   C86   D    
C119  H93   S    
C98   H30   S    
C33   O77   S    
C83   C88   D    
O59   C99   S    
C105  H50   S    
C70   O46   A    
C41   C49   A    
C95   H20   S    
Cr7   O51   S    
C2    O22   A    
C115  H81   S    
C3    O27   A    
C28   O76   S    
C88   O56   S    
C94   H17   S    
Cr8   O28   S    
Cr3   O3    S    
C85   O53   S    
Cr8   O8    S    
C105  H51   S    
C19   C23   A    
C102  H40   S    
C20   F8    S    
Cr3   O47   S    
C118  H88   S    
Cr12  O12   S    
Cr1   O45   S    
C16   C20   A    
C77   O13   A    
C73   O5    A    
C112  H71   S    
C59   C63   A    
C117  H85   S    
C54   O62   S    
Cr7   O31   S    
Cr5   O29   S    
C45   C81   S    
Cr10  O14   S    
C110  H65   S    
C4    O28   A    
C17   F5    S    
C57   C61   A    
Cr9   O17   S    
C82   C85   D    
Cr3   O23   S    
C107  H57   S    
C41   O57   S    
C60   C64   A    
Cr12  O36   S    
C94   H16   S    
C35   O79   S    
C31   C76   S    
C46   O30   A    
C49   C53   A    
C51   C55   A    
C15   O71   S    
C98   H28   S    
C99   H32   S    
C5    C89   A    
C38   C62   A    
C97   H25   S    
Cr5   O17   S    
C59   F3    S    
C96   H22   S    
C85   C86   S    
C108  H58   S    
C45   O29   A    
C32   C36   A    
Cr1   O17   S    
O69   C109  S    
C120  H95   S    
C93   H13   S    
C84   H3    S    
O56   C96   S    
C23   C67   S    
O54   C94   S    
Cr5   O5    S    
C46   C82   S    
C78   O42   A    
C61   C77   S    
C111  H67   S    
Cr9   O9    S    
Cr11  O11   S    
O65   C105  S    
C44   C52   A    
C71   O51   A    
O73   C113  S    
Cr6   O26   S    
C114  H78   S    
C72   O52   A    
C1    C12   S    
Cr1   O1    S    
C2    C11   S    
C24   C92   A    
C103  H43   S    
C119  H92   S    
C33   C34   A    
C100  H35   S    
C47   O31   A    
C30   C34   A    
C76   O8    A    
C45   O33   A    
C10   C14   A    
C102  H42   S    
C55   O63   S    
C29   C74   S    
C109  H63   S    
C25   C26   A    
C6    C90   A    
Cr4   O48   S    
C115  H80   S    
C5    C9    A    
C116  H82   S    
C58   F2    S    
C8    C12   A    
C79   O15   A    
O61   C101  S    
C106  H53   S    
Cr6   O50   S    
C42   C50   A    
C111  H68   S    
C101  H38   S    
C2    O26   A    
C3    O23   A    
C1    O21   A    
Cr6   O6    S    
C108  H60   S    
Cr12  O20   S    
C46   O34   A    
C18   C22   A    
C62   C78   S    
Cr10  O10   S    
Cr4   O24   S    
C101  H39   S    
C13   C17   A    
O70   C110  S    
C78   O14   A    
C68   O4    A    
Cr2   O2    S    
C111  H69   S    
C73   O9    A    
C104  H47   S    
C107  H56   S    
C113  H74   S    
C37   C41   A    
C69   O49   A    
C26   O74   S    
C27   O75   S    
C40   C44   A    
O60   C100  S    
C114  H76   S    
C44   O60   S    
C65   O1    A    
C113  H73   S    
C4    C9    S    
Cr11  O15   S    
C103  H45   S    
Cr8   O20   S    
C98   H29   S    
Cr9   O13   S    
C58   C62   A    
C87   C88   S    
C106  H52   S    
O64   C104  S    
C96   H23   S    
O71   C111  S    
Cr4   O20   S    
C21   C89   A    
C15   C19   A    
C50   C54   A    
C116  H84   S    
C79   O43   A    
C80   O44   A    
C37   H9    S    
O67   C107  S    
C83   H4    S    
C67   O39   A    
O53   C93   S    
C52   C69   S    
C97   H27   S    
O78   C118  S    
C113  H75   S    
C118  H90   S    
Cr10  O38   S    
Cr11  O35   S    
O58   C98   S    
Cr2   O42   S    
C112  H70   S    
C64   C80   S    
C117  H86   S    
C94   H18   S    
O79   C119  S    
C14   O70   S    
O63   C103  S    
C66   O38   A    
C53   C57   A    
C92   H8    S    
C56   C60   A    
C117  H87   S    
C50   C71   S    
C109  H61   S    
C57   F1    S    
O75   C115  S    
C7    C91   A    
C22   C90   A    
Cr7   O19   S    
Cr5   O25   S    
Cr10  O34   S    
Cr11  O39   S    
C74   O6    A    
C47   O35   A    
C48   O36   A    
C76   O12   A    
Cr3   O43   S    
C105  H49   S    
C95   H19   S    
C25   C30   A    
O66   C106  S    
C97   H26   S    
C21   C65   S    
C27   C32   A    
C60   F4    S    
C28   C31   A    
C6    C10   A    
C34   O78   S    
C102  H41   S    
C43   C51   A    
C120  H94   S    
C93   H14   S    
Cr5   O49   S    
O57   C97   S    
C17   C21   A    
C1    O25   A    
C24   C68   S    
O55   C95   S    
O72   C112  S    
C8    O68   S    
C53   O61   S    
Cr12  O16   S    
C112  H72   S    
C86   O54   S    
C93   H15   S    
C114  H77   S    
O77   C117  S    
C14   C18   A    
C84   C87   D    
C110  H66   S    
C103  H44   S    
C63   C79   S    
C100  H34   S    
O80   C120  S    
C7    C11   A    
C75   O7    A    
O76   C116  S    
C69   O45   A    
C38   C42   A    
C70   O50   A    
C89   H5    S    
C91   H7    S    
C42   O58   S    
Cr11  O19   S    
C22   C66   S    
C19   F7    S    
C20   C24   A    
C99   H31   S    
C49   C72   S    
C65   O37   A    
C51   C70   S    
Cr2   O46   S    
C75   O11   A    
C95   H21   S    
C5    O65   S    
C72   O48   A    
C108  H59   S    
C25   O73   S    
C56   O64   S    
C30   C73   S    
O62   C102  S    
C96   H24   S    
C39   C43   A    
Cr6   O30   S    
C48   C84   S    
Cr10  O18   S    
C4    O24   A    
Cr9   O37   S    
C13   O69   S    
Cr3   O19   S    
C104  H46   S    
Cr12  O40   S    
Cr1   O41   S    
C16   O72   S    
Cr4   O44   S    
C74   O10   A    
C23   C91   A    
C90   H6    S    
C110  H64   S    
C119  H91   S    
Cr7   O7    S    
C54   C58   A    
C100  H36   S    
C81   H2    S    
Cr4   O4    S    
C68   O40   A    
C37   C61   A    
C39   C63   A    
Cr6   O18   S    
C39   H11   S    
C40   C64   A    
Cr8   O52   S    
C115  H79   S    
C116  H83   S    
C3    C10   S    
C120  H96   S    
C40   H12   S    
C67   O3    A    
Cr8   O32   S    
C99   H33   S    
Cr2   O22   S    
C48   O32   A    
Cr9   O33   S    
Cr2   O18   S    
C106  H54   S    
C31   C35   A    
Cr1   O21   S    
C87   O55   S    
C26   C29   A    
C101  H37   S    
C66   O2    A    
C7    O67   S    
C27   C28   A    
C43   O59   S    
C35   C36   A    
C18   F6    S    
C52   C56   A    
C77   O41   A    
