data_mof_unit_14427.cif
_audit_creation_date              2012-12-10T19:45:47-0500
_audit_creation_method            fapswitch 2.2
_symmetry_space_group_name_H-M    P1
_symmetry_Int_Tables_number       1
_space_group_crystal_system       triclinic
_cell_length_a                    10.841172
_cell_length_b                    14.764156
_cell_length_c                    14.508414
_cell_angle_alpha                 64.789257
_cell_angle_beta                  104.012573
_cell_angle_gamma                 103.368932
_cell_volume                      2016.69150681

loop_
_atom_site_label
_atom_site_type_symbol
_atom_type_description
_atom_site_fract_x
_atom_site_fract_y
_atom_site_fract_z
_atom_type_partial_charge
C1    C     C_R   0.477353 0.119928 0.310462 0.850181
C2    C     C_R   0.548625 0.779942 0.982050 -0.073059
C3    C     C_R   0.374958 0.152544 0.123070 0.320791
C4    C     C_R   0.559036 0.847146 0.880804 0.308531
C5    C     C_R   0.489587 0.292876 0.170665 0.385884
C6    C     C_R   0.507919 0.704835 0.828529 0.362283
C7    C     C_R   0.429605 0.362323 0.076609 -0.102831
C8    C     C_R   0.477233 0.638809 0.927875 -0.088669
C9    C     C_R   0.359672 0.326207 0.000115 -0.065004
C10   C     C_R   0.507451 0.676204 0.006886 -0.043253
C11   C     C_R   0.440480 0.466899 0.055551 -0.121349
C12   C     C_R   0.524508 0.879722 0.689589 0.842404
C13   C     C_R   0.422361 0.535732 0.951599 -0.115333
C14   C     C_R   0.344498 0.499490 0.876320 0.342269
C15   C     C_R   0.461254 0.505046 0.134193 0.345854
C16   C     C_R   0.262726 0.999575 0.501233 0.885576
C17   C     C_R   0.737270 0.000291 0.499134 0.892705
C18   C     C_R   0.314909 0.394388 0.900652 0.417435
C19   C     C_R   0.495730 0.610016 0.109466 0.436646
C20   C     C_R   0.742779 0.305382 0.639635 -0.169127
C21   C     C_R   0.256881 0.694948 0.360313 -0.157369
C22   C     C_R   0.699990 0.216863 0.623012 0.570958
C23   C     C_R   0.871134 0.999723 0.499069 -0.167306
C24   C     C_R   0.299876 0.783401 0.377145 0.555196
C25   C     C_R   0.510234 0.280710 0.515957 0.079162
C26   C     C_R   0.490307 0.719762 0.483021 0.069737
C27   C     C_R   0.549141 0.372737 0.533164 -0.042383
C28   C     C_R   0.450969 0.627673 0.466043 -0.052129
C29   C     C_R   0.668976 0.383250 0.595958 -0.094050
C30   C     C_R   0.330839 0.617103 0.403602 -0.086154
C31   C     C_R   0.475506 0.454827 0.489841 -0.003104
C32   C     C_R   0.524478 0.545542 0.509444 -0.010168
C33   C     C_R   0.645219 0.551168 0.571683 -0.203419
C34   C     C_R   0.128879 0.000784 0.501008 -0.178168
C35   C     C_R   0.354392 0.448994 0.428160 -0.174850
C36   C     C_R   0.715646 0.471575 0.614435 0.644411
C37   C     C_R   0.284019 0.528673 0.385311 0.646256
C38   C     C_R   0.282150 0.935985 0.856974 0.496966
C39   C     C_R   0.688716 0.072109 0.152796 0.463635
C40   C     C_R   0.210783 0.926457 0.766123 0.364467
C41   C     C_R   0.773001 0.078689 0.240685 0.380233
C42   C     C_R   0.190267 0.014782 0.674642 -0.198503
C43   C     C_R   0.808660 0.988705 0.324840 -0.199747
C44   C     C_R   0.248438 0.111518 0.675242 0.460428
C45   C     C_R   0.907255 0.994643 0.414482 -0.195523
C46   C     C_R   0.755210 0.892971 0.319815 0.465049
C47   C     C_R   0.324519 0.118150 0.765393 -0.157660
C48   C     C_R   0.670525 0.888897 0.231847 -0.165980
C49   C     C_R   0.340126 0.031935 0.855631 -0.338748
C50   C     C_R   0.638400 0.976973 0.148840 -0.431339
C51   C     C_R   0.962047 0.005086 0.584411 0.427349
C52   C     C_R   0.037919 0.996481 0.415089 0.415690
C53   C     C_R   0.092767 0.007288 0.585019 -0.182274
C54   C     C_R   0.450074 0.187927 0.199326 -0.165170
C55   C     C_R   0.533011 0.810596 0.801149 -0.179828
C56   C     C_R   0.333573 0.221668 0.024680 -0.101015
Cu1   Cu    Cu3+1 0.466270 0.918260 0.475690 0.997560
Cu2   Cu    Cu3+1 0.533730 0.081740 0.524310 1.003650
F1    F     F_    0.831494 0.481600 0.674261 -0.635231
F2    F     F_    0.168046 0.518582 0.325689 -0.635788
H1    H     H_    0.396600 0.040160 0.924942 0.169817
H2    H     H_    0.310592 0.383250 0.411413 0.175845
H3    H     H_    0.369204 0.191499 0.766242 0.193249
H4    H     H_    0.629591 0.816334 0.227665 0.220999
H5    H     H_    0.273039 0.623935 0.790595 0.367027
H6    H     H_    0.370262 0.386201 0.229795 0.341261
H7    H     H_    0.270809 0.921441 0.317116 0.401638
H8    H     H_    0.730471 0.079655 0.678247 0.376417
H9    H     H_    0.341940 0.869348 0.004080 0.323862
H10   H     H_    0.596659 0.143225 0.016128 0.318864
H11   H     H_    0.124276 0.831267 0.701398 0.331358
H12   H     H_    0.573140 0.970917 0.081556 0.183209
H13   H     H_    0.872760 0.170379 0.306734 0.335322
H14   H     H_    0.181278 0.188128 0.530515 0.338119
H15   H     H_    0.836333 0.812748 0.458980 0.342593
H16   H     H_    0.989506 0.014997 0.719561 0.353391
H17   H     H_    0.010664 0.997643 0.275191 0.356911
H18   H     H_    0.225183 0.411585 0.760757 0.390707
H19   H     H_    0.514983 0.595394 0.252973 0.372942
H20   H     H_    0.551386 0.600458 0.799060 0.338658
H21   H     H_    0.637653 0.389976 0.189899 0.354858
H22   H     H_    0.672533 0.969182 0.826987 0.344398
H23   H     H_    0.278768 0.192222 0.967688 0.217207
H24   H     H_    0.416956 0.018250 0.175773 0.335018
H25   H     H_    0.572005 0.810324 0.041242 0.194169
H26   H     H_    0.578126 0.732171 0.532489 0.165196
H27   H     H_    0.423250 0.268867 0.465396 0.155810
H28   H     H_    0.835063 0.312302 0.687913 0.233672
H29   H     H_    0.164435 0.688046 0.312246 0.230511
H30   H     H_    0.688776 0.616644 0.588969 0.172768
N1    N     N_R   0.584450 0.204570 0.560790 -0.244200
N2    N     N_R   0.415550 0.795430 0.439210 -0.249600
O1    O     O_R   0.455540 0.022090 0.338120 -0.632062
O2    O     O_3   0.437702 0.443396 0.233057 -0.726222
O3    O     O_3   0.218663 0.854891 0.331372 -0.665650
O4    O     O_3   0.781472 0.145651 0.669326 -0.693098
O5    O     O_3   0.291707 0.849949 0.946659 -0.659564
O6    O     O_3   0.657367 0.160405 0.071531 -0.668397
O7    O     O_3   0.158438 0.829880 0.771591 -0.667076
O8    O     O_3   0.819247 0.174565 0.239801 -0.649442
O9    O     O_3   0.230952 0.201523 0.591312 -0.721479
O10   O     O_3   0.783126 0.801734 0.397889 -0.708984
O11   O     O_3   0.917785 0.003933 0.666935 -0.705962
O12   O     O_R   0.544460 0.977910 0.661880 -0.613165
O13   O     O_3   0.081928 0.998044 0.332272 -0.687557
O14   O     O_3   0.242278 0.355963 0.829075 -0.714212
O15   O     O_3   0.518508 0.650205 0.183649 -0.748444
O16   O     O_3   0.522810 0.667724 0.759585 -0.683256
O17   O     O_3   0.591778 0.324908 0.233276 -0.647292
O18   O     O_3   0.598217 0.947537 0.863573 -0.719342
O19   O     O_3   0.339605 0.051630 0.140627 -0.714635
O20   O     O_R   0.512510 0.160150 0.379180 -0.522566
O21   O     O_R   0.487490 0.839850 0.620820 -0.515222
O22   O     O_R   0.291160 0.930970 0.479480 -0.536243
O23   O     O_R   0.708840 0.069030 0.520520 -0.539367
O24   O     O_R   0.348130 0.069020 0.520540 -0.608160
O25   O     O_R   0.651870 0.930980 0.479460 -0.609106
O26   O     O_3   0.286510 0.563771 0.782459 -0.682271

loop_
_geom_bond_atom_site_label_1
_geom_bond_atom_site_label_2
_ccdc_geom_bond_type
H13   O8    S    
Cu2   O24   S    
C8    C13   A    
C23   C45   A    
Cu1   N2    S    
C27   C29   A    
C14   C18   A    
C6    C55   A    
C36   F1    S    
C15   O2    S    
C39   C41   A    
C38   C49   A    
C21   H29   S    
C7    C11   A    
C46   O10   S    
C29   C36   A    
H8    O4    S    
Cu2   O20   S    
H22   O18   S    
C35   C37   A    
C12   O12   A    
C1    O20   A    
C47   H3    S    
C3    C54   A    
C48   H4    S    
C26   N2    A    
C16   O24   A    
C25   H27   S    
C33   C36   A    
C2    H25   S    
C50   H12   S    
C16   C34   S    
C15   C19   A    
C11   C15   A    
C3    O19   S    
C14   O26   S    
H15   O10   S    
C22   N1    A    
Cu2   N1    S    
C44   C47   A    
C17   O25   A    
H6    O2    S    
H16   O11   S    
C40   C42   A    
Cu1   O1    S    
C13   C14   A    
H7    O3    S    
C41   C43   A    
C42   C44   A    
C40   O7    S    
C38   O5    S    
C24   N2    A    
C26   C28   A    
C20   C29   A    
C46   C48   A    
C25   N1    A    
H24   O19   S    
C49   H1    S    
C27   C31   A    
C12   C55   S    
C5    C54   A    
C28   C32   A    
C47   C49   A    
C24   O3    S    
C5    C7    A    
C39   O6    S    
Cu1   O21   S    
C45   C52   A    
H11   O7    S    
C30   C37   A    
C51   C53   A    
C2    C4    A    
C1    C54   S    
C18   O14   S    
C3    C56   A    
C23   C51   A    
C31   C32   A    
C10   C19   A    
C26   H26   S    
C41   O8    S    
H19   O15   S    
C9    C56   A    
C17   C23   S    
C48   C50   A    
C43   C45   S    
H14   O9    S    
C8    C10   A    
H21   O17   S    
C52   O13   S    
H5    O26   S    
C4    C55   A    
Cu2   O23   S    
C31   C35   A    
Cu2   O12   S    
C2    C10   A    
C17   O23   A    
C56   H23   S    
Cu1   O25   S    
C12   O21   A    
C7    C9    A    
C4    O18   S    
C22   O4    S    
C20   C22   A    
C16   O22   A    
C6    C8    A    
C44   O9    S    
Cu1   O22   S    
C25   C27   A    
C21   C30   A    
H20   O16   S    
C34   C52   A    
H18   O14   S    
C32   C33   A    
H17   O13   S    
C42   C53   S    
C33   H30   S    
C38   C40   A    
C11   C13   A    
Cu1   Cu2   S    
C5    O17   S    
C20   H28   S    
C28   C30   A    
C35   H2    S    
C43   C46   A    
C37   F2    S    
C9    C18   A    
C39   C50   A    
C34   C53   A    
C1    O1    A    
C21   C24   A    
C6    O16   S    
C51   O11   S    
H10   O6    S    
C19   O15   S    
H9    O5    S    
