data_mof_unit_6060.cif
_audit_creation_date              2012-12-11T17:06:26-0500
_audit_creation_method            fapswitch 2.2
_symmetry_space_group_name_H-M    P1
_symmetry_Int_Tables_number       1
_space_group_crystal_system       triclinic
_cell_length_a                    6.948886
_cell_length_b                    14.694574
_cell_length_c                    15.852047
_cell_angle_alpha                 90.439526
_cell_angle_beta                  90.275939
_cell_angle_gamma                 89.864613
_cell_volume                      1618.59631903

loop_
_atom_site_label
_atom_site_type_symbol
_atom_type_description
_atom_site_fract_x
_atom_site_fract_y
_atom_site_fract_z
_atom_type_partial_charge
O1    O     O_R   0.494400 0.415450 0.412630 -0.548542
O2    O     O_R   0.823940 0.405730 0.586760 -0.557528
O3    O     O_R   0.994240 0.584550 0.587370 -0.551372
C1    C     C_R   0.655313 0.383413 0.615126 0.734869
O4    O     O_R   0.824110 0.404430 0.413240 -0.520345
O5    O     O_R   0.994420 0.583240 0.412620 -0.512815
C2    C     C_R   0.654954 0.383049 0.383811 0.775650
O6    O     O_R   0.494230 0.416760 0.587380 -0.529491
O7    O     O_3   0.660800 0.558670 0.500000 -0.371094
V1    V     V_3+5 0.935650 0.489120 0.500000 1.510311
O8    O     O_R   0.324140 0.594270 0.413240 -0.550235
C3    C     C_R   0.154699 0.615273 0.383849 0.756049
O9    O     O_R   0.323960 0.595570 0.586760 -0.524562
C4    C     C_R   0.155313 0.617035 0.616170 0.709724
V2    V     V_3+5 0.435660 0.510880 0.500000 1.509225
O10   O     O_3   0.160640 0.441330 0.500000 -0.379022
C5    C     C_3   0.957771 0.714109 0.732514 -0.147241
C6    C     C_3   0.063556 0.708313 0.818889 -0.197483
H1    H     H_    0.006164 0.676070 0.876644 0.131764
H2    H     H_    0.811938 0.686721 0.719007 0.141413
C7    C     C_3   0.122187 0.808871 0.810544 -0.014098
C8    C     C_3   0.016314 0.815499 0.725145 -0.120328
C9    C     C_3   0.203812 0.786740 0.679213 -0.141165
C10   C     C_3   0.309949 0.781139 0.765461 -0.165521
C11   C     C_3   0.249815 0.680570 0.772518 0.050250
C12   C     C_3   0.145283 0.685984 0.687015 -0.021202
H3    H     H_    0.918748 0.871486 0.705654 0.122035
H4    H     H_    0.261623 0.819016 0.621577 0.131704
H5    H     H_    0.455832 0.808390 0.779178 0.111195
C13   C     C_R   0.264572 0.743212 0.182146 0.033167
C14   C     C_R   0.121088 0.810518 0.179969 -0.079582
C15   C     C_R   0.987661 0.811141 0.246240 -0.094464
H6    H     H_    0.887875 0.866614 0.251932 0.158220
C16   C     C_R   0.993687 0.745466 0.310380 -0.118392
H7    H     H_    0.890396 0.750007 0.361198 0.125999
C17   C     C_R   0.140778 0.679452 0.312648 -0.035147
C18   C     C_R   0.270905 0.676694 0.245238 0.014186
C19   C     C_3   0.485879 0.677256 0.249534 -0.293898
C20   C     C_3   0.478445 0.756200 0.186198 -0.154816
H8    H     H_    0.541745 0.695730 0.313303 0.187284
C21   C     C_R   0.509523 0.318587 0.746480 0.145333
C22   C     C_R   0.647920 0.314757 0.682812 -0.147770
C23   C     C_R   0.783431 0.243535 0.685797 -0.183119
H9    H     H_    0.891866 0.239476 0.637011 0.169424
C24   C     C_R   0.768964 0.172706 0.745771 -0.023171
C25   C     C_R   0.623901 0.177300 0.809277 -0.214791
C26   C     C_R   0.500519 0.252916 0.809131 0.157167
C27   C     C_3   0.284895 0.255394 0.809404 -0.209977
C28   C     C_3   0.295522 0.326781 0.740445 -0.439513
H10   H     H_    0.220110 0.190198 0.788207 0.156943
H11   H     H_    0.243290 0.395379 0.759654 0.197386
H12   H     H_    0.238389 0.302121 0.678761 0.180060
C29   C     C_R   0.512585 0.322419 0.248076 0.051703
C30   C     C_R   0.646810 0.315978 0.313983 -0.094196
C31   C     C_R   0.780475 0.244388 0.310867 -0.181312
H13   H     H_    0.886494 0.238573 0.361006 0.137503
C32   C     C_R   0.770496 0.175656 0.248190 -0.018349
C33   C     C_R   0.628742 0.181228 0.182540 -0.184563
C34   C     C_R   0.505295 0.256867 0.183817 0.103459
C35   C     C_3   0.290755 0.257799 0.181996 -0.433808
C36   C     C_3   0.297774 0.328602 0.252121 -0.212886
H14   H     H_    0.230595 0.192566 0.203363 0.208683
H15   H     H_    0.232540 0.282289 0.120784 0.210875
H16   H     H_    0.238007 0.304077 0.312882 0.159675
O11   O     O_R   0.771650 0.079500 0.908680 -0.559617
O12   O     O_R   0.441690 0.091800 0.082800 -0.523384
O13   O     O_R   0.271460 0.912980 0.083410 -0.523502
C37   C     C_R   0.611744 0.113004 0.112898 0.747229
O14   O     O_R   0.441930 0.090510 0.909280 -0.533773
O15   O     O_R   0.271690 0.911670 0.908660 -0.541786
C38   C     C_R   0.610518 0.109831 0.878347 0.683866
O16   O     O_R   0.771410 0.080810 0.083440 -0.510677
O17   O     O_3   0.605100 0.937580 0.996050 -0.350728
V3    V     V_3+5 0.330220 0.007110 0.996030 1.528000
O18   O     O_R   0.941980 0.900620 0.909250 -0.555034
C39   C     C_R   0.110885 0.878660 0.880367 0.686546
O19   O     O_R   0.941740 0.901920 0.082770 -0.500609
C40   C     C_R   0.111304 0.879363 0.111437 0.759263
V4    V     V_3+5 0.830220 0.985300 0.996000 1.518231
O20   O     O_3   0.105210 0.054870 0.996020 -0.363897
C41   C     C_2   0.574450 0.739969 0.101657 0.783503
O21   O     O_2   0.748043 0.727085 0.098561 -0.558794
O22   O     O_R   0.465018 0.739171 0.027334 -0.666886
H17   H     H_    0.546504 0.729015 0.975214 0.273394
C42   C     C_2   0.525296 0.847472 0.226747 0.713276
O23   O     O_2   0.489873 0.861491 0.301368 -0.559093
O24   O     O_R   0.599683 0.917494 0.178288 -0.637598
H18   H     H_    0.619736 0.974309 0.213504 0.271060
C43   C     C_2   0.891700 0.090373 0.734544 0.346355
H19   H     H_    0.864372 0.028997 0.769797 0.040951
O25   O     O_2   0.022447 0.088929 0.683321 -0.541225
C44   C     C_2   0.199141 0.291247 0.890178 0.413435
H20   H     H_    0.047143 0.308201 0.891911 0.050573
O26   O     O_2   0.296923 0.300784 0.953841 -0.539084
C45   C     C_2   0.892401 0.094336 0.262859 0.701189
O27   O     O_2   0.887204 0.056983 0.331519 -0.545883
O28   O     O_R   0.021159 0.063380 0.201891 -0.656427
H21   H     H_    0.111198 0.015055 0.224712 0.274256
C46   C     C_2   0.220335 0.419019 0.224613 0.436345
H22   H     H_    0.275198 0.451354 0.168393 0.046240
O29   O     O_2   0.090664 0.455397 0.263989 -0.509957
C47   C     C_2   0.384936 0.608325 0.803060 0.291827
H23   H     H_    0.434534 0.609726 0.867996 0.071005
O30   O     O_2   0.441349 0.548464 0.755540 -0.543471
C48   C     C_2   0.570040 0.589214 0.217246 0.441636
H24   H     H_    0.524061 0.560933 0.157040 0.042125
O31   O     O_2   0.692547 0.549493 0.258310 -0.508338

loop_
_geom_bond_atom_site_label_1
_geom_bond_atom_site_label_2
_ccdc_geom_bond_type
O12   C37   A    
O24   H18   S    
O11   V4    S    
C6    C7    S    
C21   C22   A    
C45   O27   D    
C1    O6    A    
O28   H21   S    
C29   C34   A    
O19   C40   A    
C48   O31   D    
C7    C39   S    
O22   H17   S    
C5    C12   S    
C17   C18   A    
C19   H8    S    
C16   H7    S    
O16   V4    S    
C42   O23   D    
C13   C14   A    
C11   C47   S    
V2    O10   S    
O12   V3    S    
C5    H2    S    
C35   H14   S    
C6    H1    S    
O17   V3    S    
C9    C12   S    
O14   C38   A    
C10   H5    S    
C30   C31   A    
O8    V2    S    
C26   C27   S    
C28   H11   S    
O15   V3    S    
C9    C10   S    
O1    V2    S    
C3    C17   S    
C24   C43   S    
O7    V1    S    
C27   H10   S    
C34   C35   S    
V3    O20   S    
C7    C8    S    
C36   C46   S    
O13   C40   A    
C29   C36   S    
C21   C28   S    
C41   O22   S    
C41   O21   D    
C42   O24   S    
O17   V4    S    
C10   C11   S    
C20   C41   S    
O4    C2    A    
C11   C12   S    
O11   C38   A    
C13   C18   A    
C35   C36   S    
C15   C16   A    
C36   H16   S    
O2    C1    A    
O18   C39   A    
C18   C19   S    
C46   H22   S    
C37   O16   A    
C28   H12   S    
C31   H13   S    
C44   O26   D    
C5    C6    S    
C21   C26   A    
O19   V4    S    
O14   V3    S    
O13   V3    S    
C9    H4    S    
C4    C12   S    
C47   O30   D    
C23   C24   A    
C25   C38   S    
O3    C4    A    
C33   C37   S    
C27   C28   S    
C46   O29   D    
O6    V2    S    
C8    H3    S    
C31   C32   A    
C23   H9    S    
O15   C39   A    
C35   H15   S    
C43   O25   D    
C22   C23   A    
C20   C42   S    
O2    V1    S    
C14   C40   S    
C32   C45   S    
C25   C26   A    
O1    C2    A    
C14   C15   A    
O5    V1    S    
O8    C3    A    
C45   O28   S    
C29   C30   A    
C48   H24   S    
C5    C8    S    
C15   H6    S    
C19   C48   S    
O9    V2    S    
C33   C34   A    
O4    V1    S    
O3    V1    S    
C6    C11   S    
O5    C3    A    
C32   C33   A    
C19   C20   S    
C1    C22   S    
C44   H20   S    
C13   C20   S    
C16   C17   A    
O7    V2    S    
C47   H23   S    
V4    O20   S    
C24   C25   A    
C27   C44   S    
C7    C10   S    
C8    C9    S    
V1    O10   S    
C2    C30   S    
C43   H19   S    
O9    C4    A    
O18   V4    S    
