data_mof_unit_67126.cif
_audit_creation_date              2012-12-11T17:44:47-0500
_audit_creation_method            fapswitch 2.2
_symmetry_space_group_name_H-M    P1
_symmetry_Int_Tables_number       1
_space_group_crystal_system       triclinic
_cell_length_a                    8.213557
_cell_length_b                    12.866265
_cell_length_c                    14.954539
_cell_angle_alpha                 96.56557
_cell_angle_beta                  97.336918
_cell_angle_gamma                 99.037945
_cell_volume                      1533.32151402

loop_
_atom_site_label
_atom_site_type_symbol
_atom_type_description
_atom_site_fract_x
_atom_site_fract_y
_atom_site_fract_z
_atom_type_partial_charge
Ba1   Ba    Ba6+2 0.843760 0.550230 0.455610 1.666410
Ba2   Ba    Ba6+2 0.346080 0.449860 0.544400 1.665181
C1    C     C_3   0.692948 0.916118 0.146333 -0.353348
C2    C     C_R   0.111940 0.471697 0.206130 0.040439
C3    C     C_R   0.918313 0.474792 0.765535 -0.264189
C4    C     C_3   0.084565 0.759095 0.207566 0.394042
C5    C     C_R   0.823557 0.429685 0.826781 -0.013239
C6    C     C_R   0.893372 0.432833 0.917812 -0.166379
C7    C     C_R   0.057349 0.488091 0.951276 0.011264
C8    C     C_R   0.148254 0.538149 0.887738 -0.037364
C9    C     C_R   0.131002 0.499810 0.045974 -0.021051
C10   C     C_R   0.297580 0.558607 0.074081 -0.008370
C11   C     C_R   0.383631 0.603365 0.006929 0.139269
C12   C     C_3   0.611776 0.827430 0.194505 0.333481
C13   C     C_R   0.304832 0.598090 0.918798 -0.016545
C14   C     C_R   0.043985 0.455114 0.113409 -0.140912
C15   C     C_R   0.269398 0.534355 0.232485 -0.301192
C16   C     C_3   0.081036 0.786622 0.111409 -0.365251
C17   C     C_R   0.079512 0.530019 0.794214 0.033928
C18   C     C_R   0.769182 0.178367 0.533614 -0.285550
C19   C     C_R   0.415256 0.809436 0.469004 -0.326115
C20   C     C_R   0.390630 0.980776 0.423475 0.133064
C21   C     C_R   0.318650 0.876905 0.429821 -0.019698
C22   C     C_R   0.578458 0.847240 0.512504 0.080654
C23   C     C_3   0.366996 0.273126 0.264526 0.274155
C24   C     C_R   0.645182 0.958400 0.518968 -0.037188
C25   C     C_R   0.548765 0.026398 0.474008 -0.058752
C26   C     C_R   0.613667 0.137578 0.481694 0.041177
C27   C     C_R   0.869302 0.112168 0.571679 -0.044467
C28   C     C_3   0.264284 0.781409 0.654879 0.270242
C29   C     C_R   0.806531 0.003338 0.566257 -0.005922
C30   C     C_3   0.252692 0.898401 0.673537 -0.274857
C31   C     C_3   0.853092 0.217288 0.319031 0.292840
C32   C     C_3   0.907368 0.115512 0.343962 -0.401086
C33   C     C_3   0.832471 0.741424 0.737095 0.290903
C34   C     C_3   0.247223 0.209808 0.182270 -0.301530
C35   C     C_3   0.896235 0.816991 0.825451 -0.226379
C36   C     C_2   0.020426 0.774437 0.886166 0.434130
C37   C     C_2   0.481450 0.358143 0.233852 0.459559
C38   C     C_2   0.586044 0.106308 0.735722 0.405573
C39   C     C_3   0.671325 0.600267 0.992226 -0.130122
C40   C     C_3   0.376487 0.991422 0.265948 -0.147971
C41   C     C_3   0.052113 0.175528 0.787340 0.289060
C42   C     C_3   0.124153 0.169634 0.885164 -0.333221
C43   C     C_3   0.621714 0.183151 0.822304 0.363029
C44   C     C_3   0.597389 0.124777 0.904489 -0.286993
C45   C     C_R   0.367232 0.573775 0.168516 0.009985
H1    H     H_    0.616525 0.857587 0.267592 0.011005
H2    H     H_    0.937063 0.733156 0.698961 0.023412
H3    H     H_    0.776166 0.662318 0.752364 -0.034346
H4    H     H_    0.823794 0.943870 0.178307 0.144222
H5    H     H_    0.952622 0.895736 0.809160 0.121792
H6    H     H_    0.790012 0.828405 0.862567 0.075853
H7    H     H_    0.480920 0.800812 0.160409 -0.030674
H8    H     H_    0.625091 0.983903 0.148358 0.064575
H9    H     H_    0.292613 0.309937 0.311966 0.012373
H10   H     H_    0.156048 0.149236 0.204799 0.119574
H11   H     H_    0.177453 0.263075 0.145376 0.070755
H12   H     H_    0.329520 0.934541 0.739423 0.173961
H13   H     H_    0.316398 0.169043 0.133782 0.126496
H14   H     H_    0.694444 0.887649 0.073842 0.103419
H15   H     H_    0.179466 0.855295 0.108824 0.124012
H16   H     H_    0.032570 0.258550 0.782541 0.004904
H17   H     H_    0.932154 0.119698 0.770501 0.031938
H18   H     H_    0.242968 0.226732 0.905392 0.162113
H19   H     H_    0.034864 0.190249 0.931353 0.061538
H20   H     H_    0.147170 0.087973 0.892297 0.126943
H21   H     H_    0.754018 0.222234 0.832627 -0.134923
H22   H     H_    0.688165 0.069711 0.912707 0.098111
H23   H     H_    0.296448 0.940855 0.618253 0.077461
H24   H     H_    0.468773 0.078787 0.896319 0.123119
H25   H     H_    0.989742 0.687076 0.206389 0.103840
H26   H     H_    0.618188 0.183191 0.967340 0.107498
H27   H     H_    0.321306 0.546297 0.303829 0.056915
H28   H     H_    0.922359 0.406371 0.096170 0.100480
H29   H     H_    0.863067 0.471175 0.695352 0.072458
H30   H     H_    0.814876 0.393710 0.960676 0.068827
H31   H     H_    0.372999 0.642644 0.874597 0.123591
H32   H     H_    0.885230 0.955298 0.599287 0.080421
H33   H     H_    0.817804 0.262471 0.539648 0.063244
H34   H     H_    0.121815 0.907288 0.677789 0.084408
H35   H     H_    0.209705 0.740606 0.230193 -0.110807
H36   H     H_    0.361062 0.726904 0.467714 0.069593
H37   H     H_    0.103541 0.717774 0.066223 0.074608
H38   H     H_    0.958199 0.806245 0.086208 0.129826
H39   H     H_    0.390622 0.773812 0.641211 0.041304
H40   H     H_    0.171046 0.745702 0.594439 0.045795
H41   H     H_    0.982233 0.700801 0.912147 -0.049890
H42   H     H_    0.530938 0.428821 0.281610 0.035859
H43   H     H_    0.520510 0.127480 0.674585 0.046220
H44   H     H_    0.561348 0.732601 0.004512 0.184158
H45   H     H_    0.732721 0.195609 0.273679 0.081940
H46   H     H_    0.679034 0.609895 0.919979 0.071141
H47   H     H_    0.639129 0.514828 0.999519 0.141998
H48   H     H_    0.795537 0.631792 0.032396 0.105019
H49   H     H_    0.195588 0.027231 0.344722 0.207805
H50   H     H_    0.510847 0.022898 0.270023 0.100416
H51   H     H_    0.305516 0.017014 0.207321 0.109571
H52   H     H_    0.357833 0.904493 0.254632 0.045725
H53   H     H_    0.842074 0.268445 0.382112 0.005975
H54   H     H_    0.951355 0.073959 0.285388 0.121237
H55   H     H_    0.802163 0.061038 0.362084 0.067929
H56   H     H_    0.010310 0.134503 0.401978 0.137862
N1    N     N_2   0.549836 0.658721 0.025590 -0.414243
N2    N     N_2   0.321441 0.027823 0.350106 -0.390695
O1    O     O_2   0.827930 0.435360 0.277760 -0.450098
O2    O     O_2   0.207246 0.121705 0.561172 -0.483050
O3    O     O_3   0.161225 0.144651 0.728751 -0.573014
O4    O     O_3   0.100310 0.439010 0.391180 -0.490403
O5    O     O_3   0.587770 0.631830 0.546230 -0.477574
O6    O     O_2   0.332600 0.233710 0.456170 -0.437914
O7    O     O_3   0.464472 0.205826 0.304539 -0.657637
O8    O     O_2   0.494658 0.453342 0.821020 -0.472958
O9    O     O_3   0.509994 0.255420 0.817956 -0.588685
O10   O     O_3   0.625610 0.634200 0.333270 -0.485475
O11   O     O_2   0.694903 0.547022 0.181086 -0.440236
O12   O     O_3   0.709183 0.785578 0.689461 -0.603355
O13   O     O_3   0.967408 0.265379 0.268691 -0.648428
O14   O     O_3   0.703390 0.745115 0.188182 -0.562713
O15   O     O_2   0.857120 0.766320 0.543890 -0.500114
O16   O     O_3   0.056570 0.691100 0.379020 -0.485517
O17   O     O_2   0.973788 0.876202 0.428914 -0.482234
O18   O     O_2   0.162746 0.822984 0.908190 -0.574602
O19   O     O_2   0.525471 0.346912 0.158772 -0.587325
O20   O     O_2   0.634610 0.021187 0.732388 -0.637640
O21   O     O_3   0.049186 0.845049 0.264507 -0.595704
O22   O     O_2   0.361790 0.564680 0.722290 -0.446002
O23   O     O_3   0.089410 0.561080 0.608830 -0.510468
O24   O     O_3   0.564100 0.365890 0.666740 -0.466479
O25   O     O_3   0.237107 0.735071 0.732924 -0.617242
O26   O     O_3   0.601940 0.368260 0.453780 -0.496604
O27   O     O_3   0.133140 0.308990 0.620990 -0.458850
P1    P     P_3+3 0.998770 0.403620 0.291990 0.985386
P2    P     P_3+3 0.687370 0.751000 0.571300 1.002347
P3    P     P_3+3 0.100268 0.825423 0.377909 0.968022
P4    P     P_3+3 0.190950 0.596470 0.708020 0.977643
P5    P     P_3+3 0.089111 0.170479 0.619711 0.967456
P6    P     P_3+3 0.591180 0.628822 0.215637 0.979743
P7    P     P_3+3 0.506826 0.234862 0.423762 0.945941
P8    P     P_3+3 0.602066 0.374724 0.785108 0.965433

loop_
_geom_bond_atom_site_label_1
_geom_bond_atom_site_label_2
_ccdc_geom_bond_type
H49   N2    S    
Ba2   O4    S    
C2    C14   A    
C4    H35   S    
C14   H28   S    
C42   H19   S    
Ba1   O23   S    
H44   N1    S    
O6    P7    D    
C5    C6    A    
C39   H48   S    
C43   C44   S    
C4    H25   S    
C30   H34   S    
C24   C25   A    
C32   H55   S    
C33   C35   S    
C22   C24   A    
C34   H11   S    
C8    C13   A    
C40   H51   S    
O3    P5    S    
C13   H31   S    
Ba2   O24   S    
Ba1   Ba2   S    
C44   H22   S    
C23   O7    S    
Ba1   O4    S    
C1    H8    S    
C43   O9    S    
O1    P1    D    
C39   H46   S    
C19   H36   S    
C6    C7    A    
C33   H2    S    
C16   H37   S    
C23   H9    S    
O9    P8    S    
C28   H39   S    
C7    C8    A    
C36   O18   D    
Ba1   O1    S    
C35   H6    S    
Ba2   O22   S    
C31   O13   S    
O7    P7    S    
C42   H18   S    
C26   P7    S    
C43   H21   S    
C10   C45   A    
Ba1   P1    S    
O12   P2    S    
C41   H17   S    
Ba2   O26   S    
O11   P6    D    
C18   C27   A    
C1    H14   S    
C38   C43   S    
C4    C16   S    
Ba2   O6    S    
C32   H54   S    
C18   H33   S    
O4    P1    S    
C16   H38   S    
O26   P7    S    
O22   P4    D    
C4    O21   S    
C34   H10   S    
C31   H45   S    
C3    C5    A    
C35   H5    S    
C1    H4    S    
C16   H15   S    
C12   H1    S    
C18   C26   A    
C34   H13   S    
O27   P5    S    
C28   O25   S    
Ba2   P4    S    
C37   O19   D    
C36   H41   S    
Ba1   O15   S    
O2    P5    D    
C41   C42   S    
C35   C36   S    
Ba1   O5    S    
C9    C14   A    
Ba2   O27   S    
C39   H47   S    
O10   P6    S    
C8    C17   A    
C33   H3    S    
C31   C32   S    
O8    P8    D    
O16   P3    S    
C11   N1    S    
C7    C9    A    
C44   H24   S    
O13   P1    S    
C2    C15   A    
C12   H7    S    
O23   P4    S    
O21   P3    S    
C20   C25   A    
C19   C21   A    
C6    H30   S    
C33   O12   S    
Ba1   P2    S    
C40   H50   S    
C22   P2    S    
Ba2   O5    S    
O14   P6    S    
O25   P4    S    
C15   C45   A    
Ba1   O26   S    
C30   H23   S    
C9    C10   A    
C29   H32   S    
C3    C17   A    
C1    C12   S    
C20   N2    S    
C27   P5    S    
C32   H56   S    
C39   N1    S    
C21   P3    S    
C31   H53   S    
C3    H29   S    
C11   C13   A    
C17   P4    S    
C27   C29   A    
C40   H52   S    
C23   C37   S    
C28   C30   S    
C15   H27   S    
O24   P8    S    
C38   O20   D    
C45   P6    S    
O15   P2    D    
C41   O3    S    
C40   N2    S    
Ba1   O16   S    
O17   P3    D    
O5    P2    S    
C23   C34   S    
C5    P8    S    
C24   C29   A    
C10   C11   A    
C12   O14   S    
C41   H16   S    
C19   C22   A    
C25   C26   A    
C20   C21   A    
C42   H20   S    
Ba1   O10   S    
C30   H12   S    
C38   H43   S    
C28   H40   S    
C37   H42   S    
C44   H26   S    
C2    P1    S    
Ba2   O23   S    
