data_mof_unit_28046.cif
_audit_creation_date              2012-12-10T18:33:42-0500
_audit_creation_method            fapswitch 2.2
_symmetry_space_group_name_H-M    P1
_symmetry_Int_Tables_number       1
_space_group_crystal_system       triclinic
_cell_length_a                    10.498421
_cell_length_b                    15.015764
_cell_length_c                    15.223268
_cell_angle_alpha                 82.447071
_cell_angle_beta                  89.759417
_cell_angle_gamma                 104.474058
_cell_volume                      2301.77816397

loop_
_atom_site_label
_atom_site_type_symbol
_atom_type_description
_atom_site_fract_x
_atom_site_fract_y
_atom_site_fract_z
_atom_type_partial_charge
C1    C     C_R   0.485823 0.442163 0.662877 0.891094
C2    C     C_R   0.522263 0.557990 0.337020 0.889713
C3    C     C_R   0.551693 0.474300 0.812087 -0.192611
C4    C     C_R   0.561923 0.527720 0.186317 -0.192668
C5    C     C_R   0.591855 0.448848 0.896806 0.018303
C6    C     C_R   0.621257 0.554351 0.101627 0.019779
C7    C     C_R   0.570802 0.353152 0.928833 -0.044534
C8    C     C_R   0.664079 0.650364 0.069432 -0.040391
C9    C     C_R   0.639272 0.516460 0.953373 -0.091161
C10   C     C_R   0.627124 0.487333 0.045483 -0.093330
C11   C     C_R   0.618239 0.392103 0.076880 0.503217
C12   C     C_R   0.694739 0.612270 0.922208 0.508347
C13   C     C_R   0.591576 0.326506 0.018005 -0.270276
C14   C     C_R   0.707188 0.677796 0.980719 -0.275095
C15   C     C_R   0.689804 0.840963 0.642408 -0.297202
C16   C     C_R   0.309591 0.158723 0.358176 -0.297450
C17   C     C_R   0.659954 0.752668 0.617717 0.030918
C18   C     C_R   0.340326 0.247302 0.382151 0.041285
C19   C     C_R   0.515445 0.794130 0.509336 -0.062997
C20   C     C_R   0.483780 0.205716 0.491287 -0.056555
C21   C     C_R   0.541664 0.885376 0.530976 -0.001332
C22   C     C_R   0.456721 0.114201 0.470303 -0.004175
C23   C     C_R   0.742622 0.500883 0.500240 0.858430
C24   C     C_R   0.257324 0.499085 0.499867 0.854747
C25   C     C_R   0.630753 0.907661 0.599365 0.168520
C26   C     C_R   0.367652 0.091852 0.401919 0.177455
C27   C     C_R   0.482949 0.954360 0.487740 0.083857
C28   C     C_R   0.514762 0.045050 0.514010 0.085671
C29   C     C_R   0.603331 0.063529 0.582989 -0.236845
C30   C     C_R   0.393703 0.935685 0.419179 -0.239375
C31   C     C_R   0.660072 0.996035 0.624526 -0.210340
C32   C     C_R   0.337300 0.003217 0.377430 -0.203153
C33   C     C_3   0.931897 0.431475 0.561114 -0.178497
C34   C     C_3   0.067883 0.568485 0.439184 -0.176270
C35   C     C_3   0.046828 0.512165 0.580871 -0.180520
C36   C     C_3   0.952970 0.487799 0.419419 -0.176239
C37   C     C_3   0.121549 0.497882 0.499657 0.030648
C38   C     C_3   0.878287 0.502068 0.500621 0.032947
C39   C     C_3   0.009256 0.417154 0.479888 -0.141242
C40   C     C_3   0.990522 0.582794 0.520405 -0.138319
C41   C     C_R   0.505891 0.408703 0.755307 -0.169507
C42   C     C_R   0.561404 0.592556 0.243795 -0.172821
C43   C     C_R   0.527525 0.286112 0.871264 0.567137
C44   C     C_R   0.659813 0.716975 0.126065 0.563184
C45   C     C_R   0.494613 0.314546 0.784673 -0.298828
C46   C     C_R   0.612477 0.687269 0.214100 -0.296251
H1    H     H_    0.089566 0.521771 0.646608 0.131238
H2    H     H_    0.910080 0.478359 0.353706 0.128280
H3    H     H_    0.550335 0.230046 0.541470 0.123777
H4    H     H_    0.448977 0.769858 0.459105 0.127425
H5    H     H_    0.296534 0.299860 0.348767 0.126751
H6    H     H_    0.704456 0.700240 0.650519 0.167063
H7    H     H_    0.758060 0.856887 0.694756 0.160860
H8    H     H_    0.241382 0.142682 0.305833 0.146258
H9    H     H_    0.631352 0.129691 0.607016 0.129457
H10   H     H_    0.364765 0.869312 0.395659 0.135413
H11   H     H_    0.871740 0.376023 0.610871 0.127924
H12   H     H_    0.127932 0.623996 0.389443 0.129374
H13   H     H_    0.020845 0.349691 0.463353 0.142497
H14   H     H_    0.978821 0.650216 0.536989 0.142099
H15   H     H_    0.581961 0.254199 0.043527 0.210837
H16   H     H_    0.745738 0.750534 0.955167 0.208159
H17   H     H_    0.512573 0.455948 0.207801 0.220974
H18   H     H_    0.550795 0.545523 0.790631 0.219346
H19   H     H_    0.615933 0.738251 0.258783 0.176156
H20   H     H_    0.459647 0.262967 0.740944 0.173384
H21   H     H_    0.727620 0.013275 0.677028 0.141233
H22   H     H_    0.269351 0.985843 0.325174 0.147903
N1    N     N_R   0.574200 0.731700 0.552740 -0.106765
N2    N     N_R   0.425800 0.268300 0.447260 -0.098719
O1    O     O_R   0.462600 0.383110 0.605620 -0.617042
O2    O     O_R   0.537400 0.616890 0.394380 -0.615970
O3    O     O_R   0.510210 0.531900 0.639510 -0.615665
O4    O     O_R   0.489790 0.468100 0.360490 -0.611267
O5    O     O_R   0.662240 0.425610 0.483080 -0.615942
O6    O     O_R   0.337760 0.574390 0.516920 -0.617774
O7    O     O_R   0.709860 0.574400 0.516970 -0.626822
O8    O     O_R   0.290140 0.425600 0.483030 -0.627602
Zn1   Zn    Zn3+2 0.468210 0.400660 0.477370 0.942876
Zn2   Zn    Zn3+2 0.531790 0.599340 0.522630 0.938216
O9    O     O_3   0.507698 0.192538 0.901735 -0.609807
C47   C     C_3   0.608714 0.160245 0.865359 -0.350198
H23   H     H_    0.707863 0.200820 0.881659 0.157470
H24   H     H_    0.601237 0.161553 0.792348 0.160592
H25   H     H_    0.597986 0.087016 0.894800 0.200028
O10   O     O_3   0.709768 0.810636 0.097035 -0.614663
C48   C     C_3   0.603806 0.852186 0.082477 -0.334223
H26   H     H_    0.549946 0.851585 0.145726 0.166036
H27   H     H_    0.534989 0.817952 0.034332 0.160560
H28   H     H_    0.643668 0.925806 0.053509 0.201154
O11   O     O_3   0.637279 0.361164 0.164313 -0.614212
C49   C     C_3   0.773319 0.385007 0.179249 -0.315918
H29   H     H_    0.813700 0.461592 0.172390 0.164116
H30   H     H_    0.828694 0.354206 0.134038 0.157998
H31   H     H_    0.788579 0.356393 0.248245 0.194835
O12   O     O_3   0.739096 0.643951 0.835256 -0.636023
C50   C     C_3   0.860518 0.622536 0.822040 -0.348926
H32   H     H_    0.849139 0.546239 0.829266 0.172458
H33   H     H_    0.935030 0.654752 0.868010 0.171025
H34   H     H_    0.898284 0.651423 0.753323 0.186496

loop_
_geom_bond_atom_site_label_1
_geom_bond_atom_site_label_2
_ccdc_geom_bond_type
C18   N2    A    
C38   C40   S    
C48   H26   S    
C17   N1    A    
C40   H14   S    
C34   C37   S    
C35   H1    S    
O1    Zn1   S    
O9    C47   S    
C3    H18   S    
C31   H21   S    
C4    H17   S    
C1    O1    A    
C34   C40   S    
C15   H7    S    
C28   C29   A    
C35   C37   S    
C2    O2    A    
C15   C25   A    
C14   H16   S    
C42   C46   A    
C8    C14   A    
C7    C43   A    
C9    C10   A    
C2    O4    A    
C32   H22   S    
C21   C27   A    
C22   C28   A    
C27   C30   A    
C20   N2    A    
C44   O10   S    
C17   H6    S    
C50   H33   S    
C44   C46   A    
C18   H5    S    
C50   H32   S    
C16   C26   A    
C37   C39   S    
O6    Zn2   S    
C46   H19   S    
C4    C6    A    
O11   C49   S    
C5    C7    A    
O8    Zn1   S    
C24   O6    A    
C6    C8    A    
C29   H9    S    
C30   H10   S    
C49   H31   S    
C5    C9    A    
C20   H3    S    
C29   C31   A    
C39   H13   S    
O12   C50   S    
C49   H30   S    
C24   C37   S    
C33   C39   S    
C23   O7    A    
C43   C45   A    
C24   O8    A    
C20   C22   A    
C47   H24   S    
O4    Zn1   S    
C48   H27   S    
C43   O9    S    
C19   N1    A    
C23   C38   S    
C45   H20   S    
C50   H34   S    
O7    Zn2   S    
C1    C41   S    
C15   C17   A    
C21   C25   A    
C3    C41   A    
C33   H11   S    
C19   C21   A    
N2    Zn1   S    
O10   C48   S    
C25   C31   A    
C36   C39   S    
C8    C44   A    
C23   O5    A    
C3    C5    A    
C6    C10   A    
C26   C32   A    
C47   H25   S    
C33   C38   S    
C1    O3    A    
C36   C38   S    
C35   C40   S    
C12   C14   A    
O2    Zn2   S    
C30   C32   A    
C11   C13   A    
C19   H4    S    
C4    C42   A    
C2    C42   S    
C49   H29   S    
C33   C35   S    
O3    Zn2   S    
C36   H2    S    
C34   C36   S    
C9    C12   A    
C16   H8    S    
C10   C11   A    
C11   O11   S    
C7    C13   A    
C13   H15   S    
C16   C18   A    
C47   H23   S    
C22   C26   A    
C48   H28   S    
C27   C28   A    
C34   H12   S    
C41   C45   A    
C12   O12   S    
N1    Zn2   S    
O5    Zn1   S    
