data_mof_unit_30985.cif
_audit_creation_date              2012-12-11T17:23:06-0500
_audit_creation_method            fapswitch 2.2
_symmetry_space_group_name_H-M    P1
_symmetry_Int_Tables_number       1
_space_group_crystal_system       triclinic
_cell_length_a                    22.43094
_cell_length_b                    7.082201
_cell_length_c                    19.476319
_cell_angle_alpha                 90.045994
_cell_angle_beta                  99.139864
_cell_angle_gamma                 90.015137
_cell_volume                      3054.73201112

loop_
_atom_site_label
_atom_site_type_symbol
_atom_type_description
_atom_site_fract_x
_atom_site_fract_y
_atom_site_fract_z
_atom_type_partial_charge
O1    O     O_R   0.443980 0.494320 0.557430 -0.541340
O2    O     O_R   0.556020 0.994320 0.442570 -0.541496
O3    O     O_R   0.441210 0.822520 0.414610 -0.545831
O4    O     O_R   0.558790 0.322520 0.585390 -0.546223
C1    C     C_R   0.425710 0.654633 0.389874 0.773893
C2    C     C_R   0.574336 0.154825 0.610088 0.773819
O5    O     O_R   0.436920 0.823940 0.555180 -0.530765
O6    O     O_R   0.563080 0.323940 0.444820 -0.530731
O7    O     O_R   0.551700 0.995760 0.584140 -0.525918
O8    O     O_R   0.448300 0.495760 0.415860 -0.525753
C3    C     C_R   0.421890 0.655457 0.575260 0.697139
C4    C     C_R   0.578089 0.155402 0.424719 0.697644
O9    O     O_3   0.537660 0.661290 0.509340 -0.375194
O10   O     O_3   0.462340 0.161290 0.490660 -0.374856
V1    V     V_3+5 0.493010 0.935560 0.498270 1.456427
V2    V     V_3+5 0.506990 0.435560 0.501730 1.456127
H1    H     H_    0.693170 0.825770 0.275801 0.187261
H2    H     H_    0.306922 0.326389 0.724226 0.187054
C5    C     C_R   0.761764 0.935928 0.221114 -0.131281
C6    C     C_R   0.238237 0.436363 0.778835 -0.124384
H3    H     H_    0.769802 0.800186 0.198576 0.144478
H4    H     H_    0.230339 0.300743 0.801487 0.144333
C7    C     C_R   0.794219 0.095643 0.205727 0.064597
C8    C     C_R   0.205622 0.595870 0.794097 0.066655
C9    C     C_R   0.782830 0.269836 0.235605 -0.229810
C10   C     C_R   0.216819 0.769896 0.764063 -0.239311
H5    H     H_    0.806824 0.394767 0.223059 0.129721
H6    H     H_    0.192685 0.894652 0.776514 0.124014
C11   C     C_R   0.740143 0.284442 0.281531 0.490544
C12   C     C_R   0.259518 0.784560 0.718143 0.494674
C13   C     C_R   0.706917 0.123994 0.295635 0.023575
C14   C     C_R   0.292918 0.624324 0.704185 0.023062
C15   C     C_R   0.718244 0.950341 0.265347 -0.218532
C16   C     C_R   0.281737 0.450818 0.734589 -0.220122
C17   C     C_1   0.838937 0.081524 0.159243 -0.021711
C18   C     C_1   0.160959 0.581691 0.840640 -0.023085
C19   C     C_1   0.661572 0.136221 0.341474 0.025084
C20   C     C_1   0.338308 0.636554 0.658397 0.025017
C21   C     C_1   0.623680 0.145835 0.379591 -0.167350
C22   C     C_1   0.376247 0.646045 0.620333 -0.167514
C23   C     C_1   0.876557 0.071480 0.120766 -0.163961
C24   C     C_1   0.123394 0.571510 0.879177 -0.162878
C25   C     C_R   0.627573 0.047583 0.798243 0.227659
C26   C     C_R   0.372473 0.541485 0.202145 0.227978
H7    H     H_    0.707639 0.994717 0.913733 0.189306
H8    H     H_    0.292407 0.484028 0.086922 0.188940
C27   C     C_R   0.616493 0.140179 0.676584 -0.313425
C28   C     C_R   0.383600 0.639110 0.323355 -0.312233
C29   C     C_R   0.910763 0.078625 0.762508 0.368995
C30   C     C_R   0.089720 0.595429 0.237067 0.361083
C31   C     C_R   0.874884 0.064711 0.697381 -0.281314
C32   C     C_R   0.125042 0.574314 0.302227 -0.285885
C33   C     C_R   0.812372 0.046803 0.691022 0.484635
C34   C     C_R   0.187388 0.550960 0.308839 0.486773
C35   C     C_R   0.782982 0.071314 0.749952 -0.026777
C36   C     C_R   0.217038 0.571862 0.249980 -0.028974
C37   C     C_R   0.819562 0.055589 0.817111 -0.156769
C38   C     C_R   0.180506 0.554172 0.182875 -0.157754
C39   C     C_R   0.718349 0.090928 0.743964 -0.017746
C40   C     C_R   0.281714 0.589156 0.256080 -0.018595
C41   C     C_R   0.691011 0.052767 0.803399 -0.134058
C42   C     C_R   0.309038 0.547431 0.196903 -0.133270
C43   C     C_R   0.727443 0.019532 0.867479 -0.157829
C44   C     C_R   0.272587 0.511659 0.132977 -0.157711
C45   C     C_R   0.790389 0.017284 0.874957 0.423335
C46   C     C_R   0.209613 0.511375 0.125359 0.422908
C47   C     C_R   0.680804 0.154023 0.681656 0.397325
C48   C     C_R   0.319317 0.653470 0.318224 0.395885
C49   C     C_R   0.590821 0.089176 0.735230 0.358310
C50   C     C_R   0.409239 0.585441 0.264945 0.358171
C51   C     C_R   0.884038 0.068880 0.822959 -0.197823
C52   C     C_R   0.116117 0.571330 0.176884 -0.196927
H9    H     H_    0.896014 0.058202 0.651151 0.152943
H10   H     H_    0.103416 0.566203 0.348068 0.155333
O11   O     O_R   0.051730 0.724670 0.084120 -0.545350
O12   O     O_R   0.948270 0.224670 0.915880 -0.536445
O13   O     O_R   0.063080 0.393540 0.944820 -0.533529
O14   O     O_R   0.936920 0.893540 0.055180 -0.538011
C53   C     C_R   0.078008 0.562059 0.924607 0.767007
C54   C     C_R   0.921996 0.062075 0.075400 0.764175
O15   O     O_R   0.058800 0.395030 0.085390 -0.536254
O16   O     O_R   0.941200 0.895030 0.914610 -0.543465
O17   O     O_R   0.943980 0.223310 0.057440 -0.534643
O18   O     O_R   0.056020 0.723310 0.942560 -0.542601
C55   C     C_R   0.074274 0.563833 0.109925 0.875247
C56   C     C_R   0.925776 0.063508 0.890025 0.869549
O19   O     O_3   0.962360 0.556290 0.990650 -0.385790
O20   O     O_3   0.037640 0.056290 0.009350 -0.388788
V3    V     V_3+5 0.006980 0.281990 0.001730 1.455729
V4    V     V_3+5 0.993020 0.781990 0.998270 1.430451
O21   O     O_3   0.781829 0.986215 0.627722 -0.550855
C57   C     C_3   0.771971 0.789859 0.631165 -0.248473
H11   H     H_    0.741594 0.755294 0.669333 0.151387
H12   H     H_    0.815330 0.711377 0.643902 0.141389
H13   H     H_    0.749419 0.740633 0.579413 0.164030
O22   O     O_3   0.217268 0.488238 0.372136 -0.551182
C58   C     C_3   0.226422 0.291632 0.368138 -0.246082
H14   H     H_    0.257344 0.256800 0.330591 0.151166
H15   H     H_    0.182843 0.214793 0.354240 0.139817
H16   H     H_    0.248031 0.240688 0.420006 0.163456
O23   O     O_3   0.822690 0.968438 0.938999 -0.575006
C59   C     C_3   0.815767 0.772150 0.949002 -0.194202
H17   H     H_    0.832426 0.688841 0.907379 0.133569
H18   H     H_    0.768196 0.733703 0.952016 0.134794
H19   H     H_    0.842697 0.730362 0.999282 0.173039
O24   O     O_3   0.177167 0.462261 0.061386 -0.575321
C60   C     C_3   0.183559 0.265675 0.051556 -0.194090
H20   H     H_    0.167049 0.183406 0.093497 0.131906
H21   H     H_    0.230950 0.226159 0.048099 0.134246
H22   H     H_    0.156160 0.223728 0.001533 0.172747
O25   O     O_3   0.727433 0.457724 0.308648 -0.554308
C61   C     C_3   0.776238 0.511635 0.359756 -0.291540
H23   H     H_    0.816934 0.545628 0.336135 0.142565
H24   H     H_    0.786843 0.401097 0.400543 0.135021
H25   H     H_    0.763393 0.641502 0.385745 0.170928
O26   O     O_3   0.272101 0.957749 0.690928 -0.553983
C62   C     C_3   0.223148 0.011325 0.640009 -0.291693
H26   H     H_    0.182550 0.045317 0.663813 0.141192
H27   H     H_    0.212427 0.900587 0.599244 0.133989
H28   H     H_    0.235887 0.141128 0.613954 0.171600
O27   O     O_3   0.528757 0.070929 0.730074 -0.531847
C63   C     C_3   0.504193 0.248297 0.743328 -0.107785
H29   H     H_    0.512479 0.355390 0.704207 0.110299
H30   H     H_    0.522216 0.299727 0.796587 0.173403
H31   H     H_    0.454575 0.232893 0.739778 0.162579
O28   O     O_3   0.471286 0.566591 0.270191 -0.531852
C64   C     C_3   0.496017 0.743301 0.256445 -0.107611
H32   H     H_    0.487928 0.851415 0.295355 0.110194
H33   H     H_    0.477957 0.793667 0.203085 0.173325
H34   H     H_    0.545607 0.727329 0.259909 0.162894
Br1   Br    Br    0.588192 0.971758 0.875225 -0.475634
Br2   Br    Br    0.411848 0.461927 0.125584 -0.475886
O29   O     O_3   0.707712 0.269251 0.637114 -0.544773
C65   C     C_3   0.690414 0.226071 0.565945 -0.135575
H35   H     H_    0.730477 0.242232 0.539584 0.165322
H36   H     H_    0.657196 0.331296 0.541722 0.125714
H37   H     H_    0.673697 0.078868 0.556013 0.107018
O30   O     O_3   0.292558 0.769630 0.362643 -0.545650
C66   C     C_3   0.309488 0.726083 0.433812 -0.137459
H38   H     H_    0.269321 0.742809 0.459957 0.165344
H39   H     H_    0.342809 0.830795 0.458320 0.126521
H40   H     H_    0.325959 0.578662 0.443685 0.107461
O31   O     O_3   0.972710 0.099388 0.767481 -0.552152
C67   C     C_3   0.998373 0.922840 0.755505 -0.242880
H41   H     H_    0.985512 0.878039 0.700417 0.134960
H42   H     H_    0.985656 0.811962 0.791045 0.132091
H43   H     H_    0.048270 0.936636 0.765952 0.158203
O32   O     O_3   0.027637 0.609620 0.231878 -0.554505
C68   C     C_3   0.013062 0.796269 0.248207 -0.229320
H44   H     H_    0.030645 0.900232 0.213453 0.130865
H45   H     H_    0.030094 0.830008 0.303654 0.133215
H46   H     H_    0.963179 0.810482 0.240080 0.156574

loop_
_geom_bond_atom_site_label_1
_geom_bond_atom_site_label_2
_ccdc_geom_bond_type
C12   C14   A    
C43   C45   A    
O28   C64   S    
C35   C39   A    
C18   C24   T    
O25   C61   S    
O1    C3    A    
C45   O23   S    
O2    C4    A    
C65   H37   S    
C61   H24   S    
C58   H14   S    
C12   O26   S    
O14   V4    S    
O5    C3    A    
O13   V3    S    
C8    C18   S    
H1    C15   S    
C5    H3    S    
C8    C10   A    
C32   H10   S    
C62   H27   S    
C53   O18   A    
C66   H40   S    
O14   C54   A    
O24   C60   S    
O31   C67   S    
O26   C62   S    
C59   H19   S    
C40   C42   A    
O6    V2    S    
C41   C43   A    
C30   C52   A    
C27   C49   A    
C42   C44   A    
O11   V4    S    
C39   C47   A    
O19   V4    S    
C48   O30   S    
C38   C46   A    
C6    C8    A    
C29   C31   A    
C33   O21   S    
C30   C32   A    
C60   H20   S    
C13   C15   A    
C26   C50   A    
C14   C20   S    
C34   O22   S    
O12   V3    S    
C6    C16   A    
C50   O28   S    
O5    V1    S    
C24   C53   S    
C25   C49   A    
C60   H21   S    
C59   H17   S    
O18   V4    S    
C2    O7    A    
C67   H43   S    
C27   C47   A    
C61   H23   S    
C58   H15   S    
C32   C34   A    
C52   C55   S    
C33   C35   A    
C9    C11   A    
O17   V3    S    
C1    C28   S    
C34   C36   A    
C39   C41   A    
C2    C27   S    
O23   C59   S    
O32   C68   S    
C67   H42   S    
C5    C15   A    
C68   H46   S    
C37   C45   A    
O21   C57   S    
C65   H36   S    
C26   C42   A    
O16   C56   A    
H7    C43   S    
C57   H13   S    
C37   C51   A    
C36   C40   A    
H8    C44   S    
C31   C33   A    
C44   C46   A    
O4    V2    S    
C5    C7    A    
C64   H33   S    
C51   C56   S    
C49   O27   S    
O6    C4    A    
O22   C58   S    
C57   H12   S    
O13   C53   A    
O1    V2    S    
C28   C48   A    
C59   H18   S    
O2    V1    S    
H2    C16   S    
O27   C63   S    
O4    C2    A    
O20   V4    S    
C10   C12   A    
C7    C17   S    
C35   C37   A    
O29   C65   S    
C60   H22   S    
C62   H28   S    
C26   Br2   S    
C6    H4    S    
C63   H30   S    
C64   H32   S    
O12   C56   A    
C58   H16   S    
O3    V1    S    
C25   C41   A    
C54   O17   A    
C30   O32   S    
C47   O29   S    
C11   O25   S    
C31   H9    S    
C28   C50   A    
C67   H41   S    
O3    C1    A    
C66   H38   S    
C65   H35   S    
C9    H5    S    
C10   H6    S    
O16   V4    S    
C63   H31   S    
C68   H45   S    
O7    V1    S    
C64   H34   S    
O15   V3    S    
C1    O8    A    
C11   C13   A    
O8    V2    S    
C62   H26   S    
O11   C55   A    
C20   C22   T    
C66   H39   S    
C38   C52   A    
C46   O24   S    
C4    C21   S    
C29   O31   S    
C25   Br1   S    
C57   H11   S    
C36   C38   A    
C7    C9    A    
C3    C22   S    
C17   C23   T    
O30   C66   S    
C13   C19   S    
O20   V3    S    
C40   C48   A    
C19   C21   T    
C29   C51   A    
O9    V2    S    
O19   V3    S    
O10   V1    S    
C23   C54   S    
C63   H29   S    
C68   H44   S    
C61   H25   S    
O15   C55   A    
C14   C16   A    
