data_mof_unit_48286.cif
_audit_creation_date              2013-03-05T15:58:06-0500
_audit_creation_method            fapswitch 2.2
_symmetry_space_group_name_H-M    P1
_symmetry_Int_Tables_number       1
_space_group_crystal_system       triclinic
_cell_length_a                    12.669905
_cell_length_b                    13.150605
_cell_length_c                    14.887224
_cell_angle_alpha                 91.978905
_cell_angle_beta                  102.587558
_cell_angle_gamma                 82.360953
_cell_volume                      2399.31899421

loop_
_atom_site_label
_atom_site_type_symbol
_atom_site_description
_atom_site_fract_x
_atom_site_fract_y
_atom_site_fract_z
_atom_type_partial_charge
O1    O     O_R   0.366740 0.627160 0.477250 -0.544888
O2    O     O_R   0.544830 0.662520 0.507680 -0.552801
C1    C     C_R   0.440057 0.689852 0.478711 1.033788
O3    O     O_R   0.410940 0.482340 0.616930 -0.578751
O4    O     O_R   0.589030 0.517700 0.647360 -0.586861
C2    C     C_R   0.500437 0.502055 0.672490 1.039421
Zn1   Zn    Zn3+2 0.381090 0.476390 0.479680 1.141331
Zn2   Zn    Zn3+2 0.618910 0.523610 0.520320 1.048779
O5    O     O_R   0.455170 0.337480 0.492320 -0.504784
O6    O     O_R   0.633260 0.372840 0.522750 -0.673088
O7    O     O_R   0.410970 0.482300 0.352640 -0.579357
O8    O     O_R   0.589060 0.517660 0.383070 -0.608459
C3    C     C_R   0.560575 0.308775 0.506597 0.942725
C4    C     C_R   0.499123 0.499255 0.327497 0.844837
C5    C     C_R   0.506123 0.409088 0.184304 -0.220812
C6    C     C_R   0.496159 0.501103 0.231840 -0.048068
C7    C     C_R   0.488335 0.595196 0.189809 -0.108208
C8    C     C_R   0.489356 0.599113 0.096676 -0.059340
C9    C     C_R   0.500946 0.505811 0.047601 0.085787
C10   C     C_R   0.510032 0.410517 0.092176 0.144386
C11   C     C_R   0.484235 0.693525 0.053202 0.212103
C12   C     C_R   0.487741 0.695299 0.959672 0.243745
C13   C     C_R   0.491097 0.602183 0.908401 -0.143672
C14   C     C_R   0.503885 0.507140 0.954442 -0.086100
C15   C     C_R   0.518666 0.412701 0.907202 0.016403
C16   C     C_R   0.529582 0.319161 0.952715 -0.077197
C17   C     C_R   0.524309 0.318138 0.044614 -0.195343
C18   C     C_R   0.481288 0.600318 0.812284 0.252234
C19   C     C_R   0.502394 0.505852 0.768541 -0.286112
C20   C     C_R   0.521962 0.413211 0.814967 0.538295
H1    H     H_    0.513373 0.336897 0.219770 0.163854
H2    H     H_    0.482130 0.664461 0.230804 0.216564
H3    H     H_    0.540989 0.246578 0.917166 0.228620
H4    H     H_    0.531986 0.245139 0.078658 0.187070
C21   C     C_R   0.734763 0.050149 0.520144 0.376905
H5    H     H_    0.765772 0.204228 0.562960 0.225435
C22   C     C_R   0.596398 0.199381 0.499690 -0.267342
C23   C     C_R   0.295581 0.839399 0.443767 0.543178
C24   C     C_R   0.267578 0.944754 0.455369 0.099149
C25   C     C_R   0.350699 0.007763 0.472033 0.632748
C26   C     C_R   0.457356 0.969259 0.460408 -0.115267
C27   C     C_R   0.483158 0.863684 0.446112 -0.206723
C28   C     C_R   0.541566 0.031561 0.469495 -0.060674
C29   C     C_R   0.651981 0.987844 0.482024 -0.228361
C30   C     C_R   0.672911 0.886859 0.449141 0.251581
C31   C     C_R   0.586439 0.827607 0.426585 0.668950
C32   C     C_R   0.518167 0.136714 0.461252 0.727765
C33   C     C_R   0.704824 0.156021 0.531037 -0.317859
C34   C     C_R   0.405063 0.797918 0.451932 -0.266141
C35   C     C_R   0.089848 0.340431 0.374296 -0.275867
H6    H     H_    0.882214 0.309033 0.349846 0.172714
H7    H     H_    0.068587 0.280516 0.324365 0.211541
N1    N     N_R   0.222190 0.444670 0.452360 -0.216029
C36   C     C_R   0.805957 0.619848 0.619531 0.438444
C37   C     C_R   0.915169 0.627876 0.655995 -0.192762
C38   C     C_R   0.994101 0.574481 0.615298 -0.143465
C39   C     C_R   0.964674 0.517134 0.534234 0.078003
C40   C     C_R   0.854184 0.500459 0.506217 0.197738
C41   C     C_R   0.042269 0.470392 0.484254 -0.074660
C42   C     C_R   0.012819 0.392063 0.419801 0.034189
C43   C     C_R   0.905831 0.368659 0.399421 -0.139947
C44   C     C_R   0.826986 0.424196 0.440101 -0.146567
C45   C     C_R   0.146759 0.501777 0.492747 0.242401
C46   C     C_R   0.195083 0.367082 0.392710 0.805189
N2    N     N_R   0.776970 0.554790 0.547140 -0.178098
H8    H     H_    0.077808 0.576312 0.650018 0.211440
H9    H     H_    0.938892 0.674105 0.716884 0.214565
H10   H     H_    0.746301 0.403478 0.420781 0.192294
N3    N     N_R   0.775667 0.848832 0.426324 0.269608
O9    O     O_R   0.814668 0.752389 0.437583 -0.283960
O10   O     O_R   0.823488 0.907305 0.383384 -0.278815
N4    N     N_R   0.845544 0.006841 0.556881 0.263593
O11   O     O_R   0.865788 0.920330 0.601108 -0.285967
O12   O     O_R   0.924756 0.061440 0.560049 -0.285917
F1    F     F_    0.423027 0.176866 0.405707 -0.561299
F2    F     F_    0.216667 0.777231 0.425059 -0.541718
F3    F     F_    0.328835 0.102906 0.507475 -0.557821
N5    N     N_R   0.156585 0.986963 0.455678 0.279638
O13   O     O_R   0.086400 0.928500 0.469243 -0.163898
O14   O     O_R   0.124045 0.084164 0.440521 -0.289189
F4    F     F_    0.600974 0.738588 0.379128 -0.637950
F5    F     F_    0.268396 0.320002 0.346055 -0.564405
N6    N     N_R   0.165424 0.602907 0.525848 0.240172
O15   O     O_R   0.240209 0.615613 0.598777 -0.332365
O16   O     O_R   0.092489 0.680318 0.495468 -0.218909
N7    N     N_R   0.726365 0.674229 0.664010 0.242340
O17   O     O_R   0.682142 0.765224 0.634521 -0.323354
O18   O     O_R   0.727749 0.650832 0.748501 -0.331666
N8    N     N_R   0.480393 0.787742 0.104722 0.233240
O19   O     O_R   0.561490 0.841603 0.117265 -0.283684
O20   O     O_R   0.393672 0.822197 0.135375 -0.332143
N9    N     N_R   0.496620 0.790874 0.919786 0.260628
O21   O     O_R   0.582062 0.800687 0.887256 -0.255514
O22   O     O_R   0.425812 0.871016 0.924824 -0.250527
N10   N     N_R   0.435971 0.690230 0.757703 0.242651
O23   O     O_R   0.485645 0.721262 0.697988 -0.305653
O24   O     O_R   0.340193 0.736778 0.762879 -0.280828
F6    F     F_    0.539743 0.323532 0.768790 -0.646854

loop_
_geom_bond_atom_site_label_1
_geom_bond_atom_site_label_2
_geom_bond_distance
_ccdc_geom_bond_type
C40   C44   1.403306 A    
C37   C38   1.381399 A    
C8    C11   1.407263 A    
C35   C46   1.390692 A    
C26   C27   1.403215 A    
N10   O23   1.300049 A    
H6    C43   1.084079 S    
C1    C34   1.472987 S    
C36   N2    1.369540 A    
C23   F2    1.351241 S    
C30   C31   1.403131 A    
Zn1   O7    2.014031 S    
C16   C17   1.384833 A    
C18   N10   1.438914 S    
C18   C19   1.403778 A    
C23   C24   1.398131 A    
O7    C4    1.300554 A    
N5    O14   1.301572 A    
C39   C41   1.422866 A    
C5    C6    1.385698 A    
C38   C39   1.407104 A    
C8    C9    1.413407 A    
C27   C31   1.418846 A    
N3    O10   1.301411 A    
O5    C3    1.311094 A    
C40   N2    1.372069 A    
C9    C10   1.417690 A    
C6    C7    1.387907 A    
C35   H7    1.083797 S    
C13   C14   1.419559 A    
H5    C33   1.083257 S    
N8    O20   1.301025 A    
C3    C22   1.456937 S    
C41   C42   1.413816 A    
O1    Zn1   1.967683 S    
C11   C12   1.403831 A    
C26   C28   1.410578 A    
C43   C44   1.391857 A    
O3    Zn1   1.996027 S    
C21   C33   1.406937 A    
C17   H4    1.084054 S    
C5    C10   1.384024 A    
C30   N3    1.438172 S    
C24   N5    1.442510 S    
C14   C15   1.416796 A    
N4    O12   1.301385 A    
C24   C25   1.400417 A    
C36   N7    1.425983 S    
N5    O13   1.301286 A    
C11   N8    1.435410 S    
C15   C16   1.401025 A    
C45   N6    1.433523 S    
C42   C43   1.396217 A    
O1    C1    1.317810 A    
C28   C29   1.414997 A    
C19   C20   1.387996 A    
C31   F4    1.358592 S    
C16   H3    1.083441 S    
N6    O15   1.298342 A    
Zn2   O8    1.996027 S    
N9    O22   1.301422 A    
C7    C8    1.392160 A    
C13   C18   1.408709 A    
C22   C33   1.400286 A    
C21   C29   1.424911 A    
C46   F5    1.351721 S    
O3    C2    1.300653 A    
C25   C26   1.423520 A    
N6    O16   1.301663 A    
O8    C4    1.300043 A    
C21   N4    1.438017 S    
C4    C6    1.417324 S    
C22   C32   1.387953 A    
Zn1   N1    2.060886 S    
C23   C34   1.402286 A    
C29   C30   1.411264 A    
C15   C20   1.383103 A    
Zn1   O5    1.935016 S    
C36   C37   1.388504 A    
N7    O17   1.299782 A    
O2    Zn2   1.935017 S    
N4    O11   1.301602 A    
O6    C3    1.308217 A    
O4    Zn2   2.014031 S    
C37   H9    1.083230 S    
N10   O24   1.301250 A    
C5    H1    1.085720 S    
C10   C17   1.395675 A    
C20   F6    1.361994 S    
C41   C45   1.416934 A    
C44   H10   1.068864 S    
C35   C42   1.397380 A    
C9    C14   1.396242 A    
C32   F1    1.357239 S    
N1    C45   1.366497 A    
C39   C40   1.415120 A    
O4    C2    1.300758 A    
C38   H8    1.076815 S    
N9    O21   1.301174 A    
N1    C46   1.358404 A    
O2    C1    1.308313 A    
N7    O18   1.301081 A    
C25   F3    1.358887 S    
N3    O9    1.301073 A    
C27   C34   1.415823 A    
Zn2   N2    2.048529 S    
C2    C19   1.423988 S    
Zn2   O6    1.967685 S    
C7    H2    1.082515 S    
C12   N9    1.436399 S    
C12   C13   1.421138 A    
N8    O19   1.301168 A    
C28   C32   1.379143 A    
