data_mof_unit_28761.cif
_audit_creation_date              2012-12-11T14:30:10-0500
_audit_creation_method            fapswitch 2.2
_symmetry_space_group_name_H-M    P1
_symmetry_Int_Tables_number       1
_space_group_crystal_system       triclinic
_cell_length_a                    12.618061
_cell_length_b                    12.61806
_cell_length_c                    27.134386
_cell_angle_alpha                 90.0
_cell_angle_beta                  90.000012
_cell_angle_gamma                 120.000221
_cell_volume                      3741.40630768

loop_
_atom_site_label
_atom_site_type_symbol
_atom_type_description
_atom_site_fract_x
_atom_site_fract_y
_atom_site_fract_z
_atom_type_partial_charge
C1    C     C_R   0.558075 0.456922 0.822241 0.564267
C2    C     C_R   0.456922 0.558075 0.177759 0.564267
C3    C     C_R   0.000733 0.306590 0.474525 -0.130651
C4    C     C_R   0.305857 0.999267 0.025475 -0.130651
C5    C     C_R   0.693411 0.694143 0.474525 -0.130651
C6    C     C_R   0.306590 0.000733 0.525475 -0.130651
C7    C     C_R   0.999268 0.305858 0.974525 -0.130651
C8    C     C_R   0.694144 0.693410 0.525475 -0.130651
C9    C     C_R   0.306590 0.000733 0.974525 -0.130651
C10   C     C_R   0.999267 0.305857 0.525475 -0.130651
C11   C     C_R   0.694143 0.693411 0.974525 -0.130651
C12   C     C_R   0.441925 0.898847 0.322241 0.564265
C13   C     C_R   0.101153 0.543077 0.177759 0.564266
C14   C     C_R   0.993885 0.495963 0.974145 0.029834
C15   C     C_R   0.502078 0.006115 0.525855 0.029834
C16   C     C_R   0.504037 0.497922 0.974145 0.029834
C17   C     C_R   0.993885 0.495963 0.525855 0.029834
C18   C     C_R   0.502078 0.006115 0.974145 0.029834
C19   C     C_R   0.504037 0.497922 0.525855 0.029834
C20   C     C_R   0.495963 0.993885 0.474145 0.029834
C21   C     C_R   0.898847 0.441925 0.677759 0.564266
C22   C     C_R   0.006115 0.502078 0.025855 0.029834
C23   C     C_R   0.497922 0.504037 0.474145 0.029834
C24   C     C_R   0.495963 0.993885 0.025855 0.029834
C25   C     C_R   0.006115 0.502078 0.474145 0.029834
C26   C     C_R   0.497922 0.504037 0.025855 0.029834
C27   C     C_R   0.990699 0.687139 0.974472 -0.110159
C28   C     C_R   0.696439 0.009300 0.525528 -0.110159
C29   C     C_R   0.312860 0.303560 0.974472 -0.110160
C30   C     C_R   0.990699 0.687139 0.525528 -0.110159
C31   C     C_R   0.696439 0.009300 0.974472 -0.110159
C32   C     C_R   0.543077 0.101153 0.822241 0.564266
C33   C     C_R   0.312860 0.303560 0.525528 -0.110160
C34   C     C_R   0.687139 0.990699 0.474472 -0.110159
C35   C     C_R   0.009300 0.696439 0.025528 -0.110159
C36   C     C_R   0.303560 0.312860 0.474472 -0.110160
C37   C     C_R   0.687139 0.990700 0.025528 -0.110159
C38   C     C_R   0.009300 0.696439 0.474472 -0.110159
C39   C     C_R   0.303560 0.312860 0.025528 -0.110160
C40   C     C_R   0.961157 0.575201 0.897475 -0.170784
C41   C     C_R   0.614043 0.038843 0.602525 -0.170784
C42   C     C_R   0.424799 0.385956 0.897475 -0.170784
C43   C     C_R   0.558075 0.456922 0.677759 0.564266
C44   C     C_R   0.961157 0.575201 0.602525 -0.170784
C45   C     C_R   0.614043 0.038843 0.897475 -0.170784
C46   C     C_R   0.424799 0.385956 0.602525 -0.170784
C47   C     C_R   0.575201 0.961157 0.397475 -0.170784
C48   C     C_R   0.038843 0.614043 0.102525 -0.170784
C49   C     C_R   0.385956 0.424799 0.397475 -0.170784
C50   C     C_R   0.575201 0.961157 0.102525 -0.170784
C51   C     C_R   0.038843 0.614043 0.397475 -0.170784
C52   C     C_R   0.385956 0.424799 0.102525 -0.170784
C53   C     C_R   0.044440 0.520177 0.128246 0.028487
C54   C     C_R   0.898847 0.441925 0.822241 0.564266
C55   C     C_R   0.475737 0.955560 0.371754 0.028487
C56   C     C_R   0.479822 0.524263 0.128246 0.028487
C57   C     C_R   0.044440 0.520177 0.371754 0.028487
C58   C     C_R   0.475737 0.955560 0.128246 0.028487
C59   C     C_R   0.479822 0.524263 0.371754 0.028487
C60   C     C_R   0.520177 0.044440 0.628246 0.028487
C61   C     C_R   0.955560 0.475738 0.871754 0.028487
C62   C     C_R   0.524263 0.479822 0.628246 0.028487
C63   C     C_R   0.520177 0.044440 0.871754 0.028487
C64   C     C_R   0.955560 0.475738 0.628246 0.028487
C65   C     C_R   0.543077 0.101153 0.677759 0.564266
C66   C     C_R   0.524263 0.479822 0.871754 0.028487
C67   C     C_R   0.983405 0.587533 0.948415 0.007862
C68   C     C_R   0.604128 0.016595 0.551585 0.007862
C69   C     C_R   0.412466 0.395871 0.948415 0.007862
C70   C     C_R   0.983405 0.587533 0.551585 0.007862
C71   C     C_R   0.604128 0.016595 0.948415 0.007862
C72   C     C_R   0.412466 0.395871 0.551585 0.007862
C73   C     C_R   0.587533 0.983405 0.448415 0.007862
C74   C     C_R   0.016595 0.604128 0.051585 0.007862
C75   C     C_R   0.395871 0.412466 0.448415 0.007862
C76   C     C_R   0.456922 0.558075 0.322241 0.564267
C77   C     C_R   0.587533 0.983405 0.051585 0.007862
C78   C     C_R   0.016595 0.604128 0.448415 0.007862
C79   C     C_R   0.395871 0.412466 0.051585 0.007862
C80   C     C_R   0.981361 0.392754 0.896879 0.233200
C81   C     C_R   0.411393 0.018640 0.603121 0.233199
C82   C     C_R   0.607247 0.588607 0.896879 0.233199
C83   C     C_R   0.981360 0.392753 0.603121 0.233200
C84   C     C_R   0.411393 0.018640 0.896879 0.233199
C85   C     C_R   0.607247 0.588607 0.603121 0.233199
C86   C     C_R   0.392753 0.981360 0.396879 0.233199
C87   C     C_R   0.441924 0.898847 0.177759 0.564266
C88   C     C_R   0.018640 0.411393 0.103121 0.233200
C89   C     C_R   0.588607 0.607247 0.396879 0.233199
C90   C     C_R   0.392753 0.981360 0.103121 0.233200
C91   C     C_R   0.018640 0.411393 0.396879 0.233200
C92   C     C_R   0.588607 0.607247 0.103121 0.233199
C93   C     C_R   0.992588 0.398223 0.948317 0.024647
C94   C     C_R   0.405635 0.007413 0.551683 0.024647
C95   C     C_R   0.601777 0.594365 0.948317 0.024647
C96   C     C_R   0.992588 0.398223 0.551683 0.024647
C97   C     C_R   0.405635 0.007412 0.948317 0.024647
C98   C     C_R   0.101153 0.543077 0.322241 0.564266
C99   C     C_R   0.601777 0.594365 0.551683 0.024647
C100  C     C_R   0.398223 0.992588 0.448317 0.024647
C101  C     C_R   0.007413 0.405635 0.051683 0.024647
C102  C     C_R   0.594365 0.601777 0.448317 0.024647
C103  C     C_R   0.398223 0.992588 0.051683 0.024647
C104  C     C_R   0.007412 0.405635 0.448317 0.024647
C105  C     C_R   0.594365 0.601777 0.051683 0.024647
C106  C     C_R   0.000734 0.306590 0.025475 -0.130651
C107  C     C_R   0.305858 0.999268 0.474525 -0.130651
C108  C     C_R   0.693410 0.694144 0.025475 -0.130651
Cr1   Cr    Cr6+3 0.487630 0.241180 0.750000 1.072000
Cr2   Cr    Cr6+3 0.753550 0.512370 0.750000 1.072000
Cr3   Cr    Cr6+3 0.758820 0.246450 0.750000 1.071999
Cr4   Cr    Cr6+3 0.241180 0.487630 0.250000 1.072000
Cr5   Cr    Cr6+3 0.512370 0.753550 0.250000 1.072000
Cr6   Cr    Cr6+3 0.246450 0.758820 0.250000 1.071999
H1    H     H_    0.056603 0.696675 0.121711 0.134334
H2    H     H_    0.696676 0.056603 0.878289 0.134334
H3    H     H_    0.943396 0.640073 0.621711 0.134334
H4    H     H_    0.359927 0.303323 0.878289 0.134333
H5    H     H_    0.999840 0.229955 0.043718 0.118233
H6    H     H_    0.230117 0.000162 0.456281 0.118233
H7    H     H_    0.770045 0.769885 0.043719 0.118233
H8    H     H_    0.999839 0.229955 0.456282 0.118233
H9    H     H_    0.230117 0.000161 0.043719 0.118233
H10   H     H_    0.770046 0.769884 0.456281 0.118233
H11   H     H_    0.229955 0.999839 0.543718 0.118233
H12   H     H_    0.640072 0.943396 0.378289 0.134334
H13   H     H_    0.000162 0.230117 0.956281 0.118233
H14   H     H_    0.769885 0.770045 0.543718 0.118233
H15   H     H_    0.229955 0.999839 0.956281 0.118233
H16   H     H_    0.000161 0.230117 0.543719 0.118233
H17   H     H_    0.769884 0.770046 0.956281 0.118233
H18   H     H_    0.016980 0.775329 0.044688 0.100904
H19   H     H_    0.758349 0.983019 0.455312 0.100903
H20   H     H_    0.224669 0.241650 0.044688 0.100903
H21   H     H_    0.016981 0.775329 0.455312 0.100904
H22   H     H_    0.758349 0.983019 0.044688 0.100903
H23   H     H_    0.303324 0.359927 0.121711 0.134333
H24   H     H_    0.224669 0.241650 0.455312 0.100903
H25   H     H_    0.775329 0.016980 0.544688 0.100904
H26   H     H_    0.983018 0.758349 0.955312 0.100903
H27   H     H_    0.241650 0.224669 0.544688 0.100903
H28   H     H_    0.775330 0.016981 0.955312 0.100903
H29   H     H_    0.983019 0.758349 0.544688 0.100903
H30   H     H_    0.241650 0.224669 0.955312 0.100903
H31   H     H_    0.072700 0.296683 0.116919 0.309461
H32   H     H_    0.223984 0.927301 0.383080 0.309461
H33   H     H_    0.703318 0.776018 0.116919 0.309460
H34   H     H_    0.056603 0.696676 0.378289 0.134334
H35   H     H_    0.072699 0.296682 0.383081 0.309460
H36   H     H_    0.223983 0.927301 0.116919 0.309460
H37   H     H_    0.703318 0.776017 0.383081 0.309460
H38   H     H_    0.296683 0.072700 0.616919 0.309461
H39   H     H_    0.927302 0.223984 0.883080 0.309461
H40   H     H_    0.776017 0.703318 0.616919 0.309460
H41   H     H_    0.296683 0.072699 0.883081 0.309460
H42   H     H_    0.927301 0.223984 0.616919 0.309460
H43   H     H_    0.776017 0.703318 0.883081 0.309460
H44   H     H_    0.640073 0.943397 0.121711 0.134334
H45   H     H_    0.303324 0.359927 0.378289 0.134334
H46   H     H_    0.696675 0.056603 0.621711 0.134334
H47   H     H_    0.943396 0.640073 0.878289 0.134334
H48   H     H_    0.359927 0.303324 0.621711 0.134333
O1    O     O_R   0.460870 0.120930 0.805240 -0.449510
O2    O     O_R   0.120930 0.460870 0.194760 -0.449509
O3    O     O_R   0.539130 0.660060 0.305240 -0.449510
O4    O     O_R   0.339940 0.879070 0.194760 -0.449509
O5    O     O_R   0.498910 0.350470 0.801870 -0.514956
O6    O     O_R   0.851560 0.501090 0.698130 -0.514956
O7    O     O_R   0.649530 0.148440 0.801870 -0.514956
O8    O     O_R   0.498910 0.350470 0.698130 -0.514956
O9    O     O_R   0.851560 0.501090 0.801870 -0.514956
O10   O     O_R   0.649530 0.148440 0.698130 -0.514956
O11   O     O_R   0.350470 0.498910 0.301870 -0.514956
O12   O     O_R   0.660060 0.539130 0.694760 -0.449509
O13   O     O_R   0.501090 0.851560 0.198130 -0.514956
O14   O     O_R   0.148440 0.649530 0.301870 -0.514956
O15   O     O_R   0.350470 0.498910 0.198130 -0.514956
O16   O     O_R   0.501090 0.851560 0.301870 -0.514956
O17   O     O_R   0.148440 0.649530 0.198130 -0.514956
O18   O     O_3   0.666667 0.333333 0.750000 -0.274873
O19   O     O_3   0.333333 0.666667 0.250000 -0.274873
O20   O     O_3   0.007834 0.312502 0.129133 -0.665354
O21   O     O_3   0.304670 0.992167 0.370867 -0.665354
O22   O     O_3   0.687498 0.695332 0.129133 -0.665354
O23   O     O_R   0.879070 0.339940 0.805240 -0.449509
O24   O     O_3   0.007834 0.312502 0.370867 -0.665354
O25   O     O_3   0.304669 0.992167 0.129133 -0.665353
O26   O     O_3   0.687498 0.695331 0.370867 -0.665354
O27   O     O_3   0.312502 0.007834 0.629133 -0.665354
O28   O     O_3   0.992168 0.304670 0.870867 -0.665354
O29   O     O_3   0.695332 0.687498 0.629133 -0.665354
O30   O     O_3   0.312502 0.007833 0.870867 -0.665354
O31   O     O_3   0.992167 0.304670 0.629133 -0.665354
O32   O     O_3   0.695331 0.687498 0.870867 -0.665354
O33   O     O_R   0.460870 0.120930 0.694760 -0.449509
O34   O     O_R   0.660060 0.539130 0.805240 -0.449509
O35   O     O_R   0.879070 0.339940 0.694760 -0.449509
O36   O     O_R   0.120930 0.460870 0.305240 -0.449509
O37   O     O_R   0.539130 0.660060 0.194760 -0.449510
O38   O     O_R   0.339940 0.879070 0.305240 -0.449509

loop_
_geom_bond_atom_site_label_1
_geom_bond_atom_site_label_2
_ccdc_geom_bond_type
H33   O22   S    
C3    C104  A    
C12   O16   A    
C32   O7    A    
C4    C103  A    
C35   C74   A    
C106  H5    S    
C45   C71   A    
C45   H2    S    
C91   C104  A    
H40   O29   S    
C58   C87   S    
C15   C94   A    
C88   C101  A    
C64   C83   A    
C44   C64   A    
C5    H10   S    
C22   C101  A    
H32   O21   S    
C46   C62   A    
C18   C24   A    
C84   C97   A    
C44   H3    S    
C76   O11   A    
C28   C68   A    
C8    C99   A    
Cr5   O3    S    
C89   C102  A    
C43   O12   A    
C87   O4    A    
C90   O25   S    
C1    O5    A    
C61   C80   A    
C32   O1    A    
C101  C106  A    
C33   C36   A    
C30   C38   A    
C2    O15   A    
Cr3   O10   S    
C59   C89   A    
C1    C66   S    
C21   C64   S    
Cr1   O5    S    
C33   C72   A    
Cr2   O6    S    
C8    H14   S    
Cr5   O19   S    
C6    C94   A    
C40   C67   A    
C9    C97   A    
C6    C107  A    
C49   C75   A    
C44   C70   A    
C51   C57   A    
C18   C97   A    
C10   C96   A    
C52   C79   A    
C86   C100  A    
C108  H7    S    
C14   C93   A    
C46   C72   A    
C3    H8    S    
Cr5   O13   S    
Cr2   O9    S    
C31   C71   A    
Cr5   O16   S    
C28   C34   A    
H35   O24   S    
Cr6   O38   S    
C19   C72   A    
C15   C20   A    
C28   H25   S    
C7    C93   A    
C26   C105  A    
Cr4   O36   S    
C30   C70   A    
C43   O8    A    
Cr6   O4    S    
C41   C68   A    
C29   C69   A    
H39   O28   S    
Cr2   O12   S    
C16   C26   A    
H37   O26   S    
Cr4   O2    S    
C62   C85   A    
Cr3   O23   S    
C98   O36   A    
C65   O10   A    
H43   O32   S    
C50   C58   A    
C48   C74   A    
C1    O34   A    
C47   C73   A    
C38   H21   S    
C92   O22   S    
C84   O30   S    
C23   C75   A    
H36   O25   S    
C19   C99   A    
C42   H4    S    
C38   C78   A    
C34   H19   S    
C27   C35   A    
C13   O17   A    
C29   H30   S    
C37   C77   A    
H31   O20   S    
C45   C63   A    
C42   C69   A    
C50   H44   S    
C30   H29   S    
C25   C78   A    
C4    H9    S    
Cr3   O7    S    
C39   C79   A    
C83   O31   S    
C19   C23   A    
C10   H16   S    
C13   C53   S    
H38   O27   S    
C85   C99   A    
C36   C75   A    
C66   C82   A    
C41   H46   S    
C98   O14   A    
C60   C81   A    
C24   C77   A    
C88   O20   S    
C20   C100  A    
Cr2   O18   S    
C14   C67   A    
C29   C39   A    
C52   H23   S    
Cr5   O37   S    
C7    C106  A    
C76   O3    A    
C17   C96   A    
C105  C108  A    
C58   C90   A    
C81   O27   S    
C48   H1    S    
C12   O38   A    
C91   O24   S    
C60   C65   S    
C17   C70   A    
Cr1   O1    S    
C86   O21   S    
C89   O26   S    
C85   O29   S    
C22   C74   A    
C47   H12   S    
C50   C77   A    
C107  H6    S    
C2    O37   A    
Cr1   O8    S    
C21   O6    A    
C13   O2    A    
C47   C55   A    
C11   C95   A    
C18   C71   A    
C5    C102  A    
C100  C107  A    
C37   H22   S    
C82   C95   A    
C57   C91   A    
C80   O28   S    
C54   O9    A    
C16   C69   A    
C26   C79   A    
C41   C60   A    
C21   O35   A    
C11   H17   S    
C5    C8    A    
C25   C104  A    
Cr4   O19   S    
C54   C61   S    
C9    H15   S    
C48   C53   A    
C32   C63   S    
Cr6   O19   S    
C87   O13   A    
C15   C68   A    
C27   H26   S    
C49   C59   A    
C63   C84   A    
C24   C103  A    
C33   H27   S    
C14   C22   A    
C31   H28   S    
H42   O31   S    
C80   C93   A    
C51   C78   A    
C17   C25   A    
C40   H47   S    
C3    C10   A    
C2    C56   S    
Cr3   O35   S    
Cr2   O34   S    
C81   C94   A    
C16   C95   A    
Cr1   O18   S    
Cr3   O18   S    
C83   C96   A    
C51   H34   S    
C55   C86   A    
C57   C98   S    
C35   H18   S    
Cr6   O14   S    
C20   C73   A    
Cr1   O33   S    
C53   C88   A    
C90   C103  A    
C82   O32   S    
C12   C55   S    
C27   C67   A    
H41   O30   S    
C40   C61   A    
C34   C73   A    
C23   C102  A    
C31   C37   A    
C92   C105  A    
C56   C92   A    
Cr6   O17   S    
C46   H48   S    
C11   C108  A    
C42   C66   A    
C54   O23   A    
C49   H45   S    
C7    H13   S    
C4    C9    A    
C36   H24   S    
C59   C76   S    
C6    H11   S    
C52   C56   A    
C43   C62   S    
Cr4   O11   S    
Cr4   O15   S    
C65   O33   A    
C39   H20   S    
