data_mof_unit_60431.cif
_audit_creation_date              2012-12-10T16:50:27-0500
_audit_creation_method            fapswitch 2.2
_symmetry_space_group_name_H-M    P1
_symmetry_Int_Tables_number       1
_space_group_crystal_system       triclinic
_cell_length_a                    18.905584
_cell_length_b                    18.79718
_cell_length_c                    18.977526
_cell_angle_alpha                 109.289582
_cell_angle_beta                  109.853691
_cell_angle_gamma                 109.535246
_cell_volume                      5174.45760415

loop_
_atom_site_label
_atom_site_type_symbol
_atom_type_description
_atom_site_fract_x
_atom_site_fract_y
_atom_site_fract_z
_atom_type_partial_charge
C1    C     C_R   0.383522 0.380563 0.502248 1.002115
C2    C     C_R   0.594584 0.339562 0.615311 -0.121931
C3    C     C_2   0.260207 0.260240 0.584246 0.358796
C4    C     C_R   0.619297 0.500229 0.619355 0.828165
C5    C     C_2   0.183829 0.197196 0.511106 -0.518707
C6    C     C_2   0.318211 0.331127 0.579892 0.637119
C7    C     C_2   0.327422 0.313271 0.510116 -0.537521
C8    C     C_2   0.166354 0.480082 0.242483 0.661010
C9    C     C_2   0.184054 0.513538 0.194132 -0.337296
C10   C     C_2   0.238028 0.495353 0.318769 0.118108
C11   C     C_2   0.303183 0.485513 0.311066 0.267603
C12   C     C_R   0.758854 0.580569 0.754643 0.095988
C13   C     C_2   0.741120 0.738808 0.415674 0.308946
C14   C     C_2   0.816458 0.802994 0.489268 -0.489806
C15   C     C_2   0.682598 0.668319 0.420191 0.621143
C16   C     C_R   0.616501 0.619432 0.497713 0.977044
C17   C     C_2   0.672674 0.686584 0.489643 -0.517913
C18   C     C_R   0.996946 0.379628 0.878634 0.926890
C19   C     C_R   0.877516 0.499551 0.877048 0.937875
C20   C     C_R   0.994075 0.618490 0.112724 0.912214
C21   C     C_R   0.116855 0.502348 0.118814 0.986743
C22   C     C_R   0.005813 0.124671 0.617867 0.974967
C23   C     C_R   0.812112 0.499313 0.810834 -0.131733
C24   C     C_R   0.119061 0.122660 0.503710 0.967397
C25   C     C_R   0.002681 0.883276 0.382421 1.004347
C26   C     C_R   0.881018 0.877396 0.496374 1.027925
C27   C     C_2   0.978197 0.244133 0.668228 -0.174836
C28   C     C_R   0.376932 0.496296 0.380068 0.908523
C29   C     C_2   0.025165 0.206098 0.683507 -0.242017
C30   C     C_2   0.990521 0.315539 0.741675 0.566548
C31   C     C_2   0.988625 0.307959 0.809518 0.065983
C32   C     C_2   0.033502 0.769503 0.323895 0.433810
C33   C     C_2   0.017843 0.832875 0.320641 -0.393763
C34   C     C_R   0.742258 0.418776 0.736630 -0.053364
C35   C     C_2   0.049711 0.724643 0.258350 0.226599
C36   C     C_2   0.987221 0.680316 0.173977 0.026456
C37   C     C_R   0.774470 0.661558 0.758679 -0.239529
C38   C     C_R   0.842134 0.740142 0.832822 -0.200133
C39   C     C_R   0.895477 0.739859 0.904019 0.746705
C40   C     C_R   0.884395 0.660991 0.899202 -0.262031
C41   C     C_R   0.818839 0.580179 0.822292 -0.028273
C42   C     C_R   0.673095 0.419622 0.678935 0.008925
C43   C     C_R   0.684585 0.500213 0.685441 -0.098551
C44   C     C_R   0.738408 0.337128 0.717696 0.654672
C45   C     C_R   0.662107 0.259144 0.651718 -0.160542
C46   C     C_R   0.589352 0.260337 0.602673 -0.212945
F1    F     F_    0.362966 0.413980 0.647753 -0.553516
F2    F     F_    0.083152 0.433830 0.223477 -0.570504
F3    F     F_    0.296158 0.452475 0.231721 -0.636207
F4    F     F_    0.638218 0.585242 0.352857 -0.587364
F5    F     F_    0.997721 0.388061 0.736796 -0.608037
F6    F     F_    0.959332 0.816265 0.977525 -0.618475
F7    F     F_    0.808865 0.331331 0.758308 -0.656431
H1    H     H_    0.529476 0.199705 0.552933 0.189924
H2    H     H_    0.020558 0.851196 0.272569 0.164188
H3    H     H_    0.852226 0.801342 0.835385 0.189440
H4    H     H_    0.927380 0.664669 0.956711 0.166083
H5    H     H_    0.659417 0.197426 0.638706 0.193962
H6    H     H_    0.536424 0.337079 0.574900 0.161992
H7    H     H_    0.136594 0.562782 0.393171 0.399305
H8    H     H_    0.651289 0.596201 0.218715 0.407704
H9    H     H_    0.966327 0.231539 0.934341 0.373758
H10   H     H_    0.010188 0.612101 0.399193 0.396918
H11   H     H_    0.265679 0.788390 0.420111 0.397136
H12   H     H_    0.164733 0.203832 0.453764 0.163906
H13   H     H_    0.817420 0.597534 0.996049 0.340231
H14   H     H_    0.395020 0.358607 0.818861 0.397122
H15   H     H_    0.296849 0.246220 0.459405 0.138735
H16   H     H_    0.251077 0.555743 0.214002 0.168595
H17   H     H_    0.835024 0.797503 0.547280 0.147804
H18   H     H_    0.735321 0.665543 0.704983 0.178072
H19   H     H_    0.702872 0.753714 0.539975 0.142233
H20   H     H_    0.928186 0.220704 0.603249 0.198570
H21   H     H_    0.079418 0.235433 0.748072 0.208402
O1    O     O_R   0.409870 0.358470 0.449260 -0.648183
O2    O     O_R   0.948030 0.090450 0.538510 -0.635004
O3    O     O_R   0.141850 0.090470 0.551380 -0.557414
O4    O     O_R   0.409230 0.460600 0.550770 -0.510780
O5    O     O_R   0.039050 0.090460 0.448590 -0.629426
O6    O     O_R   0.051970 0.909550 0.461490 -0.582205
O7    O     O_R   0.949170 0.909540 0.358700 -0.572565
O8    O     O_R   0.960950 0.909540 0.551410 -0.604891
O9    O     O_R   0.858150 0.909530 0.448620 -0.559822
O10   O     O_R   0.591360 0.448940 0.540280 -0.630413
O11   O     O_R   0.590720 0.551070 0.641790 -0.612799
O12   O     O_R   0.048480 0.460610 0.906920 -0.583143
O13   O     O_R   0.590770 0.539400 0.449230 -0.537349
O14   O     O_R   0.590130 0.641530 0.550740 -0.637588
O15   O     O_R   0.409280 0.448930 0.358210 -0.558326
O16   O     O_R   0.408640 0.551060 0.459720 -0.590698
O17   O     O_R   0.946350 0.358500 0.906960 -0.556198
O18   O     O_2   0.242099 0.457699 0.444373 -0.245758
O19   O     O_2   0.300712 0.611335 0.484025 -0.266858
O20   O     O_3   0.133231 0.509667 0.394810 -0.416817
O21   O     O_2   0.686838 0.800024 0.311841 -0.223942
O22   O     O_2   0.787073 0.748758 0.298108 -0.230523
O23   O     O_R   0.854760 0.448970 0.905840 -0.577184
O24   O     O_3   0.626006 0.633624 0.232715 -0.428432
O25   O     O_2   0.887883 0.131137 0.720868 -0.251866
O26   O     O_2   0.033891 0.194815 0.841517 -0.303365
O27   O     O_3   0.915274 0.203253 0.876009 -0.457471
O28   O     O_2   0.103118 0.787958 0.482204 -0.229004
O29   O     O_2   0.944724 0.723935 0.401481 -0.272266
O30   O     O_3   0.010202 0.628198 0.354489 -0.479087
O31   O     O_2   0.131700 0.636374 0.282867 -0.313081
O32   O     O_2   0.193370 0.747245 0.246950 -0.276401
O33   O     O_3   0.216535 0.799303 0.401835 -0.489938
O34   O     O_R   0.956890 0.551080 0.905790 -0.619096
O35   O     O_2   0.848423 0.656753 0.196073 -0.172198
O36   O     O_2   0.882554 0.745929 0.130295 -0.276013
O37   O     O_3   0.810022 0.578444 0.037069 -0.489890
O38   O     O_2   0.219798 0.254863 0.705783 -0.298739
O39   O     O_2   0.311578 0.193694 0.683545 -0.265477
O40   O     O_3   0.381885 0.361772 0.765177 -0.445440
O41   O     O_R   0.945260 0.539450 0.086770 -0.561661
O42   O     O_R   0.047380 0.641560 0.086730 -0.605565
O43   O     O_R   0.036850 0.448980 0.087900 -0.561072
O44   O     O_R   0.138970 0.551100 0.087860 -0.606410
O45   O     O_R   0.050830 0.090460 0.641300 -0.580626
S1    S     S_3+6 0.230632 0.519518 0.413926 0.112727
S2    S     S_3+6 0.711560 0.732185 0.313254 0.146265
S3    S     S_3+6 0.956381 0.206586 0.810385 0.047181
S4    S     S_3+6 0.022670 0.728615 0.394097 0.130489
S5    S     S_3+6 0.149789 0.725144 0.295847 0.055940
S6    S     S_3+6 0.880696 0.667479 0.135952 0.068884
S7    S     S_3+6 0.292088 0.265484 0.686197 0.104611
Zn1   Zn    Zn3+2 0.500430 0.431810 0.432220 1.101602
Zn2   Zn    Zn3+2 0.499570 0.568190 0.567780 1.141716
Zn3   Zn    Zn3+2 0.928680 0.431850 0.996880 1.185937
Zn4   Zn    Zn3+2 0.065060 0.568210 0.996820 1.128981
Zn5   Zn    Zn3+2 0.068640 0.000010 0.568630 1.172093
Zn6   Zn    Zn3+2 0.931360 0.999990 0.431370 1.129282

loop_
_geom_bond_atom_site_label_1
_geom_bond_atom_site_label_2
_ccdc_geom_bond_type
C33   H2    S    
O24   S2    S    
C30   F5    S    
C26   O9    A    
C22   C29   S    
C27   C29   D    
C25   O6    A    
H8    O24   S    
C34   C42   A    
C22   O2    A    
C3    C6    S    
O4    Zn2   S    
O13   Zn1   S    
C19   O23   A    
C3    S7    S    
O30   S4    S    
C45   C46   A    
C2    C46   A    
C21   O44   A    
O22   S2    D    
O44   Zn4   S    
C18   O17   A    
C35   S5    S    
H14   O40   S    
C9    H16   S    
C12   C43   A    
O39   S7    D    
O41   Zn3   S    
C30   C31   D    
O40   S7    S    
O3    Zn5   S    
C15   F4    S    
C12   C37   A    
C21   O43   A    
C7    H15   S    
O20   S1    S    
C44   F7    S    
C36   S6    S    
C8    C9    D    
O37   S6    S    
C16   O13   A    
O45   Zn5   S    
C28   O15   A    
O19   S1    D    
H13   O37   S    
O43   Zn3   S    
O38   S7    D    
H9    O27   S    
C19   O34   A    
O21   S2    D    
O10   Zn1   S    
C39   F6    S    
O29   S4    D    
C26   O8    A    
O6    Zn5   S    
C13   C14   D    
C27   C30   S    
C25   O7    A    
C1    O4    A    
C14   H17   S    
C32   S4    S    
O33   S5    S    
C22   O45   A    
C45   H5    S    
C6    F1    S    
C1    O1    A    
C32   C35   S    
C34   C44   A    
C5    H12   S    
C39   C40   A    
C20   O42   A    
C2    H6    S    
C16   C17   S    
O7    Zn6   S    
C29   H21   S    
O31   S5    D    
C35   C36   D    
C19   C23   S    
C8    F2    S    
C37   C38   A    
C11   F3    S    
C13   S2    S    
C24   O5    A    
C4    O10   A    
C23   C34   A    
C46   H1    S    
O42   Zn4   S    
C18   O12   A    
C14   C26   S    
O25   S3    D    
O17   Zn3   S    
O35   S6    D    
C40   C41   A    
C4    C43   S    
C37   H18   S    
C42   C43   A    
O28   S4    D    
C44   C45   A    
H11   O33   S    
O15   Zn1   S    
C15   C17   D    
C40   H4    S    
C1    C7    S    
O34   Zn4   S    
O12   Zn4   S    
C31   S3    S    
H10   O30   S    
C3    C5    D    
C20   O41   A    
C6    C7    D    
C4    O11   A    
C12   C41   A    
O27   S3    S    
C23   C41   A    
C32   C33   D    
C13   C15   S    
O18   S1    D    
O23   Zn3   S    
O9    Zn6   S    
O14   Zn2   S    
O2    Zn6   S    
C9    C21   S    
C38   C39   A    
C5    C24   S    
C11   C28   S    
C2    C42   A    
O5    Zn6   S    
O26   S3    D    
C10   S1    S    
C10   C11   D    
O36   S6    D    
C20   C36   S    
C24   O3    A    
C38   H3    S    
C17   H19   S    
C8    C10   S    
O32   S5    D    
C16   O14   A    
O16   Zn2   S    
O11   Zn2   S    
C28   O16   A    
C18   C31   S    
O8    Zn5   S    
C27   H20   S    
C25   C33   S    
O1    Zn1   S    
H7    O20   S    
