data_mof_unit_64769.cif
_audit_creation_date              2012-10-26T18:58:52-0400
_audit_creation_method            fapswitch 2.2
_symmetry_space_group_name_H-M    P1
_symmetry_Int_Tables_number       1
_space_group_crystal_system       triclinic
_cell_length_a                    19.515023
_cell_length_b                    18.217712
_cell_length_c                    17.741333
_cell_angle_alpha                 90.000795
_cell_angle_beta                  92.805211
_cell_angle_gamma                 90.01817
_cell_volume                      6299.82366909

loop_
_atom_site_label
_atom_site_type_symbol
_atom_type_description
_atom_site_fract_x
_atom_site_fract_y
_atom_site_fract_z
_atom_type_partial_charge
Br1   Br    Br    0.396452 0.676235 0.376383 -0.347028
Br2   Br    Br    0.603526 0.323763 0.623641 -0.346968
Br3   Br    Br    0.603582 0.676292 0.623576 -0.345470
Br4   Br    Br    0.396444 0.323703 0.376396 -0.345409
C1    C     C_R   0.367446 0.499986 0.504422 0.596305
C2    C     C_R   0.963799 0.487973 0.565122 -0.023975
C3    C     C_R   0.071451 0.499813 0.504439 0.090508
C4    C     C_R   0.928554 0.500263 0.495614 0.090495
C5    C     C_R   0.457693 0.722309 0.449726 0.319938
C6    C     C_R   0.542298 0.277690 0.550284 0.319933
C7    C     C_R   0.542313 0.722335 0.550271 0.319904
C8    C     C_R   0.457696 0.277664 0.449720 0.319900
C9    C     C_R   0.457253 0.799408 0.449340 -0.086520
C10   C     C_R   0.542739 0.200591 0.550670 -0.086527
C11   C     C_R   0.542753 0.799435 0.550665 -0.086491
C12   C     C_R   0.632554 0.500015 0.495579 0.596300
C13   C     C_R   0.457256 0.200564 0.449327 -0.086499
C14   C     C_R   0.500001 0.839254 0.500004 -0.040100
C15   C     C_R   0.499998 0.160745 0.499997 -0.040116
C16   C     C_R   0.561297 0.961492 0.513193 -0.074302
C17   C     C_R   0.438703 0.038508 0.486808 -0.074304
C18   C     C_R   0.438704 0.961448 0.486812 -0.074294
C19   C     C_R   0.561296 0.038552 0.513191 -0.074295
C20   C     C_R   0.499999 0.078321 0.499998 0.034427
C21   C     C_R   0.500001 0.921679 0.500004 0.034432
C22   C     C_R   0.500233 0.500000 0.355484 0.564359
C23   C     C_R   0.853427 0.500246 0.491009 -0.067957
C24   C     C_R   0.499767 0.500000 0.644516 0.564356
C25   C     C_R   0.498971 0.566805 0.845897 0.221065
C26   C     C_R   0.501046 0.433196 0.154104 0.221068
C27   C     C_R   0.501066 0.566803 0.154108 0.220973
C28   C     C_R   0.498905 0.433197 0.845890 0.220973
C29   C     C_R   0.498842 0.566532 0.767300 -0.074399
C30   C     C_R   0.501178 0.433468 0.232701 -0.074404
C31   C     C_R   0.501197 0.566531 0.232705 -0.074543
C32   C     C_R   0.498777 0.433470 0.767294 -0.074551
C33   C     C_R   0.499145 0.500001 0.727399 -0.055770
C34   C     C_R   0.146576 0.499806 0.509033 -0.067952
C35   C     C_R   0.500853 0.499999 0.272601 -0.055769
C36   C     C_R   0.499178 0.500001 0.885436 0.036627
C37   C     C_R   0.500814 0.500000 0.114563 0.036626
C38   C     C_1   0.499738 0.500001 0.966195 0.161763
C39   C     C_1   0.500253 0.500000 0.033805 0.161763
C40   C     C_R   0.745902 0.432927 0.484309 0.226834
C41   C     C_R   0.254118 0.567087 0.515771 0.226834
C42   C     C_R   0.254175 0.432721 0.515832 0.227204
C43   C     C_R   0.745808 0.567298 0.484119 0.227217
C44   C     C_R   0.817845 0.433515 0.487563 0.231463
C45   C     C_R   0.708654 0.500075 0.488048 -0.061088
C46   C     C_R   0.182175 0.566521 0.512533 0.231476
C47   C     C_R   0.182236 0.433146 0.512477 0.231767
C48   C     C_R   0.817748 0.566897 0.487491 0.231770
C49   C     C_R   0.291347 0.499935 0.511962 -0.061081
C50   C     C_R   0.964778 0.512278 0.430503 -0.020630
C51   C     C_R   0.035228 0.487802 0.569550 -0.020626
C52   C     C_R   0.036206 0.512108 0.434933 -0.023974
Cl1   Cl    Cl    0.498975 0.651877 0.893119 -0.420629
Cl2   Cl    Cl    0.135861 0.650134 0.514147 -0.397108
Cl3   Cl    Cl    0.136058 0.349342 0.511826 -0.397748
Cl4   Cl    Cl    0.863900 0.650719 0.488072 -0.397774
Cl5   Cl    Cl    0.501069 0.348123 0.106884 -0.420635
Cl6   Cl    Cl    0.501114 0.651876 0.106893 -0.420894
Cl7   Cl    Cl    0.498824 0.348125 0.893104 -0.420902
Cl8   Cl    Cl    0.705442 0.346757 0.469035 -0.414032
Cl9   Cl    Cl    0.294603 0.653231 0.531115 -0.414080
Cl10  Cl    Cl    0.294708 0.346631 0.531203 -0.414800
Cl11  Cl    Cl    0.705252 0.653365 0.468650 -0.414831
Cl12  Cl    Cl    0.864181 0.349907 0.486032 -0.397074
Cu1   Cu    Cu3+1 0.500000 0.573360 0.500000 1.145769
Cu2   Cu    Cu3+1 0.500000 0.426640 0.500000 1.145745
H1    H     H_    0.498498 0.618478 0.737634 0.204085
H2    H     H_    0.575941 0.172025 0.591613 0.157112
H3    H     H_    0.575967 0.828022 0.591599 0.157189
H4    H     H_    0.424050 0.171976 0.408387 0.157199
H5    H     H_    0.609701 0.933066 0.522287 0.149135
H6    H     H_    0.390299 0.066935 0.477714 0.149140
H7    H     H_    0.390301 0.932988 0.477719 0.149089
H8    H     H_    0.609698 0.067013 0.522285 0.149095
H9    H     H_    0.501541 0.381523 0.262368 0.204076
H10   H     H_    0.501577 0.618476 0.262375 0.204089
H11   H     H_    0.498380 0.381524 0.737623 0.204078
H12   H     H_    0.937662 0.521705 0.376629 0.157612
H13   H     H_    0.062344 0.478371 0.623422 0.157599
H14   H     H_    0.064073 0.521457 0.384478 0.155923
H15   H     H_    0.935933 0.478622 0.615577 0.155934
H16   H     H_    0.424043 0.827975 0.408404 0.157101
N1    N     N_R   0.500000 0.683620 0.500000 -0.218568
N2    N     N_R   0.500000 0.316380 0.500000 -0.218592
O1    O     O_R   0.400190 0.561980 0.499990 -0.437659
O2    O     O_R   0.599810 0.438020 0.500010 -0.437668
O3    O     O_R   0.599810 0.561980 0.500010 -0.437658
O4    O     O_R   0.400190 0.438020 0.499990 -0.437663
O5    O     O_R   0.500000 0.561980 0.391260 -0.485683
O6    O     O_R   0.500000 0.438020 0.608740 -0.485696
O7    O     O_R   0.500000 0.561980 0.608740 -0.485750
O8    O     O_R   0.500000 0.438020 0.391260 -0.485760

loop_
_geom_bond_atom_site_label_1
_geom_bond_atom_site_label_2
_ccdc_geom_bond_type
C40   C45   A    
C23   C44   A    
C11   C14   A    
C12   O2    A    
C31   C35   A    
C3    C51   A    
C2    C51   A    
Cu2   N2    S    
C43   C45   A    
C40   Cl8   S    
C17   H6    S    
C6    N2    A    
C2    H15   S    
C9    C14   A    
C24   O7    A    
C28   C32   A    
C1    C49   S    
C32   C33   A    
Cu2   O6    S    
C42   Cl10  S    
Cu1   O5    S    
C22   C35   S    
C16   C21   A    
C25   C29   A    
C31   H10   S    
C42   C49   A    
C24   O6    A    
C5    C9    A    
C48   Cl4   S    
C7    C11   A    
C7    N1    A    
C18   C21   A    
C8    C13   A    
C19   C20   A    
C26   C37   A    
Br4   C8    S    
Cu1   N1    S    
C22   O5    A    
C36   C38   S    
C41   C49   A    
C17   C18   A    
C37   C39   S    
C27   Cl6   S    
Cu2   O2    S    
C14   C21   S    
C3    C52   A    
Cu1   O1    S    
C43   Cl11  S    
C52   H14   S    
C22   O8    A    
C50   C52   A    
C26   C30   A    
C30   C35   A    
C46   Cl2   S    
Br1   C5    S    
C12   C45   S    
C18   H7    S    
C6    C10   A    
C4    C50   A    
C8    N2    A    
C2    C4    A    
C34   C47   A    
C42   C47   A    
C29   C33   A    
C16   H5    S    
C9    H16   S    
Cu2   O8    S    
C30   H9    S    
C16   C19   A    
C32   H11   S    
C44   Cl12  S    
C11   H3    S    
C25   Cl1   S    
C41   Cl9   S    
C13   H4    S    
C27   C31   A    
C17   C20   A    
C47   Cl3   S    
C38   C39   T    
C51   H13   S    
Br2   C6    S    
C50   H12   S    
C23   C48   A    
C27   C37   A    
C10   H2    S    
C10   C15   A    
Cu2   O4    S    
C28   Cl7   S    
Cu1   O7    S    
C43   C48   A    
C34   C46   A    
C15   C20   S    
C5    N1    A    
C41   C46   A    
C24   C33   S    
C25   C36   A    
C13   C15   A    
C3    C34   S    
C28   C36   A    
C19   H8    S    
Cu1   Cu2   S    
C1    O4    A    
Br3   C7    S    
C29   H1    S    
C12   O3    A    
C26   Cl5   S    
C4    C23   S    
Cu1   O3    S    
C1    O1    A    
C40   C44   A    
