data_mof_unit_60713.cif
_audit_creation_date              2013-03-05T16:42:14-0500
_audit_creation_method            fapswitch 2.2
_symmetry_space_group_name_H-M    P1
_symmetry_Int_Tables_number       1
_space_group_crystal_system       triclinic
_cell_length_a                    15.870971
_cell_length_b                    17.739461
_cell_length_c                    16.459341
_cell_angle_alpha                 89.260775
_cell_angle_beta                  89.993796
_cell_angle_gamma                 90.200671
_cell_volume                      4633.58938259

loop_
_atom_site_label
_atom_site_type_symbol
_atom_site_description
_atom_site_fract_x
_atom_site_fract_y
_atom_site_fract_z
_atom_type_partial_charge
O1    O     O_R   0.499990 0.391240 0.567930 -0.576185
O2    O     O_R   0.500010 0.608760 0.432070 -0.584265
O3    O     O_R   0.500000 0.391270 0.432120 -0.585759
O4    O     O_R   0.500000 0.608730 0.567880 -0.581486
C1    C     C_R   0.498385 0.355496 0.500543 0.808186
C2    C     C_R   0.498529 0.644787 0.499313 0.806792
O5    O     O_R   0.379070 0.499980 0.567900 -0.578139
O6    O     O_R   0.620930 0.500020 0.432100 -0.579640
O7    O     O_R   0.379080 0.500010 0.432080 -0.575697
O8    O     O_R   0.620920 0.499990 0.567920 -0.580535
C3    C     C_R   0.339469 0.499868 0.499997 0.835500
C4    C     C_R   0.660536 0.500038 0.500009 0.833966
Cu1   Cu    Cu3+1 0.500000 0.499980 0.580420 0.959960
Cu2   Cu    Cu3+1 0.500000 0.500020 0.419580 0.958818
C5    C     C_3   0.971676 0.436089 0.535988 -0.147869
C6    C     C_3   0.028358 0.563314 0.464132 -0.148510
C7    C     C_3   0.027765 0.439701 0.459027 -0.150011
C8    C     C_3   0.972277 0.559702 0.541092 -0.155101
H1    H     H_    0.051906 0.390445 0.425349 0.147238
H2    H     H_    0.948146 0.608960 0.574775 0.144049
H3    H     H_    0.947055 0.383868 0.565484 0.147061
H4    H     H_    0.052986 0.615533 0.434637 0.149721
H5    H     H_    0.947678 0.506400 0.359914 0.145383
H6    H     H_    0.052374 0.493001 0.640201 0.148180
C9    C     C_1   0.249765 0.499726 0.500022 -0.156042
C10   C     C_1   0.750256 0.499963 0.500015 -0.174215
C11   C     C_3   0.028019 0.496026 0.577024 -0.146440
C12   C     C_3   0.972021 0.503378 0.423095 -0.152689
C13   C     C_3   0.082567 0.499640 0.500063 0.174611
C14   C     C_3   0.917468 0.499767 0.500055 0.174500
C15   C     C_1   0.174218 0.499646 0.500049 -0.048336
C16   C     C_1   0.825808 0.499874 0.500033 -0.059050
C17   C     C_R   0.529499 0.845125 0.565387 -0.186379
C18   C     C_R   0.549585 0.155447 0.449618 -0.184215
H7    H     H_    0.554867 0.873853 0.617758 0.164072
H8    H     H_    0.591230 0.126271 0.408467 0.164473
C19   C     C_R   0.528684 0.766799 0.564714 -0.181031
C20   C     C_R   0.548612 0.233794 0.448867 -0.184952
H9    H     H_    0.553962 0.736399 0.616710 0.160850
H10   H     H_    0.589926 0.264171 0.407391 0.160065
C21   C     C_R   0.496826 0.728016 0.497563 -0.130967
C22   C     C_R   0.495980 0.272788 0.501977 -0.124936
C23   C     C_R   0.464152 0.769461 0.430302 -0.155877
C24   C     C_R   0.441970 0.232333 0.555357 -0.143536
C25   C     C_R   0.465352 0.848985 0.430966 0.325779
C26   C     C_R   0.443146 0.152809 0.556442 0.329076
C27   C     C_R   0.498416 0.886160 0.499091 0.008829
C28   C     C_R   0.497728 0.114977 0.503195 0.004955
C29   C     C_1   0.501125 0.966771 0.501519 0.079364
C30   C     C_1   0.500936 0.034353 0.502565 0.080658
C31   C     C_R   0.556738 0.544035 0.828468 -0.267470
C32   C     C_R   0.450746 0.449871 0.171398 -0.265676
H11   H     H_    0.602030 0.579112 0.859696 0.156652
H12   H     H_    0.411402 0.409603 0.140025 0.160457
C33   C     C_R   0.556110 0.543491 0.742766 0.083357
C34   C     C_R   0.451162 0.450173 0.257086 0.089560
H13   H     H_    0.600774 0.578222 0.709499 0.123735
H14   H     H_    0.412049 0.410299 0.290218 0.132635
N1    N     N_R   0.499980 0.499970 0.701220 -0.178222
N2    N     N_R   0.500020 0.500030 0.298780 -0.177514
C35   C     C_R   0.443237 0.456460 0.743163 0.052543
C36   C     C_R   0.549136 0.550707 0.257066 0.059134
H15   H     H_    0.398761 0.422680 0.709681 0.150721
H16   H     H_    0.587510 0.590033 0.290768 0.130316
C37   C     C_R   0.441529 0.455150 0.829036 -0.102319
C38   C     C_R   0.550647 0.552549 0.171174 -0.094122
C39   C     C_R   0.499186 0.499598 0.873077 0.085755
C40   C     C_R   0.500783 0.501275 0.126970 0.085177
C41   C     C_1   0.499936 0.500302 0.962785 -0.003184
C42   C     C_1   0.500261 0.500684 0.037258 -0.000803
C43   C     C_1   0.380310 0.408083 0.870303 0.250424
N3    N     N_1   0.331212 0.370330 0.903408 -0.239070
C44   C     C_1   0.603526 0.607250 0.130025 0.239111
N4    N     N_1   0.645922 0.651121 0.096997 -0.251887
C45   C     C_1   0.424205 0.731524 0.362965 0.367820
N5    N     N_1   0.392249 0.701246 0.309175 -0.236587
C46   C     C_1   0.379948 0.271552 0.603363 0.340653
N6    N     N_1   0.329814 0.302503 0.641435 -0.268908
N7    N     N_R   0.432670 0.891738 0.363070 0.115024
O9    O     O_R   0.456217 0.876500 0.289371 -0.332961
O10   O     O_R   0.379251 0.946036 0.374640 -0.316575
N8    N     N_R   0.388722 0.110833 0.610632 0.117174
O11   O     O_R   0.383944 0.128380 0.687011 -0.327569
O12   O     O_R   0.343245 0.055298 0.583768 -0.317603

loop_
_geom_bond_atom_site_label_1
_geom_bond_atom_site_label_2
_geom_bond_distance
_ccdc_geom_bond_type
C9    C15   1.198989 T    
C38   C40   1.412482 A    
C1    C22   1.467444 S    
C6    C12   1.548596 S    
C33   N1    1.366079 A    
C11   C13   1.534753 S    
C7    C13   1.534748 S    
C44   N4    1.157271 T    
H6    C11   1.110126 S    
O7    Cu2   1.930092 S    
C27   C29   1.431568 S    
C46   N6    1.157189 T    
C10   C16   1.199101 T    
O1    C1    1.284887 A    
C24   C46   1.447802 S    
C20   C22   1.399962 A    
C3    C9    1.423697 S    
N2    C36   1.366113 A    
O4    Cu1   1.937525 S    
C35   H15   1.080128 S    
C36   H16   1.082779 S    
C7    H1    1.110120 S    
C26   N8    1.440234 S    
C24   C26   1.410779 A    
C37   C39   1.412222 A    
C2    C21   1.476691 S    
C6    H4    1.110131 S    
C8    C14   1.534779 S    
C14   C16   1.454733 S    
C8    H2    1.110119 S    
C32   C40   1.405178 A    
C28   C30   1.431478 S    
Cu1   Cu2   2.647311 S    
C21   C23   1.420166 A    
O2    C2    1.285422 A    
C22   C24   1.414557 A    
C32   H12   1.083176 S    
C25   C27   1.408673 A    
C23   C45   1.449011 S    
C19   H9    1.083456 S    
C26   C28   1.409967 A    
N1    C35   1.365502 A    
C36   C38   1.413871 A    
O4    C2    1.290279 A    
N7    O10   1.301256 A    
C6    C13   1.534765 S    
C37   C43   1.442925 S    
C38   C44   1.442874 S    
C17   C19   1.389650 A    
C34   N2    1.365798 A    
C4    C10   1.423950 S    
C31   H11   1.083190 S    
O5    C3    1.282311 A    
C45   N5    1.157599 T    
O7    C3    1.282431 A    
C5    C11   1.548665 S    
O5    Cu1   1.930330 S    
O6    C4    1.282423 A    
C25   N7    1.440181 S    
C31   C39   1.405242 A    
H5    C12   1.110122 S    
C23   C25   1.410957 A    
O3    Cu2   1.937527 S    
O8    C4    1.282397 A    
C40   C42   1.476797 S    
C29   C30   1.199219 T    
N8    O12   1.301278 A    
C33   H13   1.081687 S    
C17   C27   1.395020 A    
C18   C28   1.396357 A    
C5    C14   1.534821 S    
C5    C7    1.548674 S    
O6    Cu2   1.930330 S    
C18   C20   1.389873 A    
C7    C12   1.548649 S    
C8    C11   1.548631 S    
O3    C1    1.285755 A    
O8    Cu1   1.930092 S    
Cu1   N1    1.988284 S    
Cu2   N2    1.988288 S    
C12   C14   1.534783 S    
C43   N3    1.157350 T    
C13   C15   1.454593 S    
C20   H10   1.083643 S    
C17   H7    1.083897 S    
C18   H8    1.083894 S    
C34   H14   1.081655 S    
C31   C33   1.410794 A    
C19   C21   1.402818 A    
C41   C42   1.225895 T    
O2    Cu2   1.942546 S    
N7    O9    1.301249 A    
C35   C37   1.413561 A    
C5    H3    1.110120 S    
O1    Cu1   1.942548 S    
C6    C8    1.548587 S    
N8    O11   1.301272 A    
C39   C41   1.476796 S    
C32   C34   1.410473 A    
