data_mof_unit_29344.cif
_audit_creation_date              2012-12-11T17:10:36-0500
_audit_creation_method            fapswitch 2.2
_symmetry_space_group_name_H-M    P1
_symmetry_Int_Tables_number       1
_space_group_crystal_system       triclinic
_cell_length_a                    15.043234
_cell_length_b                    15.057026
_cell_length_c                    14.932269
_cell_angle_alpha                 109.37948
_cell_angle_beta                  110.110593
_cell_angle_gamma                 109.279532
_cell_volume                      2592.03786925

loop_
_atom_site_label
_atom_site_type_symbol
_atom_type_description
_atom_site_fract_x
_atom_site_fract_y
_atom_site_fract_z
_atom_type_partial_charge
C1    C     C_R   0.184632 0.274678 0.243985 0.055707
C2    C     C_R   0.405469 0.496000 0.195138 0.742078
C3    C     C_R   0.560186 0.813403 0.589396 0.049532
C4    C     C_R   0.520865 0.430144 0.741955 -0.171618
C5    C     C_R   0.723773 0.466702 0.409299 0.749348
C6    C     C_R   0.539498 0.822953 0.496581 -0.019304
C7    C     C_R   0.825522 0.542559 0.502095 -0.115748
C8    C     C_R   0.433148 0.433117 0.131082 -0.043912
C9    C     C_R   0.799222 0.793919 0.873393 -0.142647
C10   C     C_R   0.194625 0.759953 0.328568 -0.242687
C11   C     C_R   0.169362 0.732391 0.400848 -0.117889
C12   C     C_R   0.449019 0.448119 0.772634 0.121910
C13   C     C_R   0.075683 0.634116 0.359243 0.041573
C14   C     C_R   0.008961 0.563059 0.244627 -0.407770
C15   C     C_R   0.034670 0.590846 0.172698 0.881180
C16   C     C_R   0.501665 0.199732 0.408219 -0.159019
C17   C     C_R   0.127333 0.689404 0.214701 -0.188478
C18   C     C_R   0.953590 0.596591 0.437930 -0.007839
C19   C     C_R   0.928287 0.564048 0.508311 0.085495
C20   C     C_R   0.999770 0.547053 0.581994 0.047940
C21   C     C_R   0.094791 0.561897 0.583680 -0.248093
C22   C     C_R   0.117501 0.585796 0.509062 0.042830
C23   C     C_R   0.563924 0.199992 0.499754 0.054929
C24   C     C_R   0.048537 0.604812 0.435697 0.002155
C25   C     C_R   0.038683 0.568367 0.766895 -0.423656
C26   C     C_R   0.022429 0.524948 0.833068 0.877303
C27   C     C_R   0.944307 0.415910 0.784431 -0.203516
C28   C     C_R   0.297159 0.599990 0.593004 -0.154221
C29   C     C_R   0.882101 0.350380 0.669601 -0.249385
C30   C     C_R   0.896884 0.393788 0.602983 -0.111493
C31   C     C_R   0.975471 0.503208 0.651405 0.066422
C32   C     C_R   0.474716 0.370332 0.893427 0.018915
C33   C     C_R   0.411287 0.402730 0.833579 0.024154
C34   C     C_R   0.206169 0.573591 0.503218 0.074596
C35   C     C_R   0.323521 0.404556 0.847938 -0.206868
C36   C     C_R   0.320029 0.400898 0.940364 0.777288
C37   C     C_R   0.404656 0.397691 0.016534 -0.106773
C38   C     C_R   0.472133 0.369164 0.983783 -0.151505
C39   C     C_3   0.592580 0.410948 0.046901 0.749381
C40   C     C_R   0.594518 0.291244 0.590666 0.021942
C41   C     C_3   0.595653 0.411600 0.947323 -0.601409
C42   C     C_R   0.625112 0.977925 0.475685 0.091489
C43   C     C_R   0.549105 0.919237 0.496319 0.042954
C44   C     C_R   0.489029 0.960612 0.531073 -0.224769
C45   C     C_R   0.465872 0.720969 0.405709 -0.119878
C46   C     C_R   0.497824 0.055815 0.535377 -0.214852
C47   C     C_R   0.564800 0.107894 0.502493 0.074796
C48   C     C_R   0.632219 0.072387 0.477971 0.076624
C49   C     C_3   0.648502 0.051574 0.381442 -0.607669
C50   C     C_3   0.639293 0.945723 0.376972 0.067474
C51   C     C_R   0.972024 0.064265 0.125833 -0.105787
C52   C     C_R   0.203762 0.510333 0.410740 -0.112857
C53   C     C_R   0.073193 0.068664 0.160877 0.160957
C54   C     C_R   0.075219 0.971240 0.123198 -0.175882
C55   C     C_R   0.980516 0.874860 0.038262 -0.179749
C56   C     C_R   0.813096 0.567494 0.592620 -0.245442
C57   C     C_R   0.881117 0.873362 0.990139 0.122868
C58   C     C_R   0.876219 0.966839 0.040606 0.121575
C59   C     C_3   0.818032 0.978816 0.103476 -0.519567
C60   C     C_3   0.920907 0.083947 0.195014 0.628459
C61   C     C_R   0.435807 0.526917 0.750139 -0.085548
C62   C     C_R   0.278142 0.186091 0.249974 -0.157359
C63   C     C_R   0.174380 0.172783 0.219096 0.050491
C64   C     C_R   0.493211 0.403219 0.195375 -0.107114
C65   C     C_R   0.707700 0.794266 0.808906 0.689050
C66   C     C_R   0.796109 0.702495 0.806838 -0.057913
F1    F     F_    0.660297 0.844855 0.851216 -0.727173
F2    F     F_    0.329526 0.524407 0.158999 -0.663719
F3    F     F_    0.701791 0.410462 0.305110 -0.736986
F4    F     F_    0.969633 0.522157 0.062207 -0.690107
F5    F     F_    0.083692 0.588208 0.944399 -0.676183
F6    F     F_    0.238507 0.405633 0.957607 -0.648840
F7    F     F_    0.649378 0.515246 0.136531 -0.682408
F8    F     F_    0.969015 0.079241 0.289586 -0.681795
H1    H     H_    0.876937 0.624952 0.677422 0.163302
H2    H     H_    0.932244 0.381933 0.835587 0.195283
H3    H     H_    0.822825 0.265801 0.632433 0.164766
H4    H     H_    0.848939 0.341915 0.514109 0.133243
H5    H     H_    0.471731 0.143128 0.323485 0.106116
H6    H     H_    0.612999 0.352323 0.065605 0.030836
H7    H     H_    0.644242 0.494736 0.963117 0.235187
H8    H     H_    0.615013 0.350546 0.905874 0.154477
H9    H     H_    0.433171 0.917495 0.551814 0.137124
H10   H     H_    0.448373 0.085858 0.558787 0.140092
H11   H     H_    0.580083 0.040088 0.309789 0.196389
H12   H     H_    0.511750 0.339691 0.165936 0.168228
H13   H     H_    0.731262 0.112283 0.405643 0.201735
H14   H     H_    0.329704 0.657522 0.678306 0.118040
H15   H     H_    0.150694 0.969460 0.151240 0.120783
H16   H     H_    0.990518 0.806088 0.004693 0.165776
H17   H     H_    0.749178 0.990917 0.063376 0.198394
H18   H     H_    0.796492 0.914402 0.125814 0.220480
H19   H     H_    0.911684 0.156876 0.210132 0.012279
H20   H     H_    0.151141 0.489665 0.328113 0.111607
H21   H     H_    0.386228 0.561391 0.764646 0.116478
H22   H     H_    0.301250 0.124636 0.241307 0.105571
H23   H     H_    0.147155 0.711308 0.159203 0.196113
H24   H     H_    0.424888 0.700497 0.320759 0.186039
H25   H     H_    0.064687 0.306807 0.242513 0.092672
H26   H     H_    0.128078 0.357749 0.181128 0.153841
H27   H     H_    0.792671 0.612210 0.880467 0.134007
H28   H     H_    0.826278 0.576942 0.783731 0.119545
H29   H     H_    0.698550 0.951003 0.715898 0.107504
H30   H     H_    0.582759 0.946059 0.710239 0.129746
H31   H     H_    0.930738 0.701572 0.388560 0.126950
H32   H     H_    0.849843 0.568382 0.288643 0.205326
H33   H     H_    0.200421 0.347239 0.696430 0.129597
H34   H     H_    0.265996 0.836217 0.360551 0.163438
H35   H     H_    0.187375 0.421772 0.797735 0.188390
H36   H     H_    0.552364 0.841745 0.209895 0.136083
H37   H     H_    0.472892 0.853174 0.263989 0.127832
H38   H     H_    0.805971 0.010731 0.473808 0.123792
H39   H     H_    0.755573 0.939737 0.337474 0.152717
H40   H     H_    0.653008 0.288279 0.732133 0.105318
H41   H     H_    0.704431 0.413978 0.748671 0.109190
H42   H     H_    0.222118 0.787760 0.488959 0.121414
H43   H     H_    0.543106 0.369616 0.743059 0.121302
H44   H     H_    0.937773 0.485838 0.211232 0.169769
H45   H     H_    0.146656 0.543903 0.637467 0.146909
H46   H     H_    0.100818 0.652440 0.805299 0.168583
N1    N     N_R   0.291070 0.347930 0.293870 -0.063817
N2    N     N_R   0.497240 0.291100 0.443210 -0.044370
N3    N     N_R   0.347890 0.554050 0.556810 -0.041898
N4    N     N_R   0.554050 0.347900 0.556830 -0.052284
N5    N     N_R   0.291070 0.497250 0.443190 -0.048153
N6    N     N_R   0.497240 0.554030 0.706140 -0.043157
N7    N     N_R   0.347890 0.291110 0.293870 -0.053218
N8    N     N_R   0.445950 0.652100 0.443170 -0.054880
N9    N     N_3   0.097232 0.291140 0.191572 -0.216669
N10   N     N_3   0.838769 0.643595 0.848488 -0.200080
N11   N     N_3   0.621665 0.900572 0.700832 -0.161185
N12   N     N_R   0.708930 0.502750 0.556810 -0.072577
N13   N     N_3   0.883594 0.622992 0.371814 -0.168080
N14   N     N_3   0.244154 0.417281 0.773935 -0.211275
N15   N     N_3   0.543034 0.846874 0.277365 -0.189070
N16   N     N_3   0.739751 0.940363 0.400562 -0.189435
N17   N     N_3   0.682214 0.333987 0.698829 -0.207723
N18   N     N_R   0.502760 0.445970 0.293860 -0.094422
N19   N     N_R   0.652110 0.708890 0.706130 -0.111405
N20   N     N_R   0.708930 0.652070 0.706130 -0.087918
N21   N     N_R   0.445950 0.502780 0.293850 -0.133423
N22   N     N_R   0.502760 0.708900 0.556790 -0.048900
N23   N     N_R   0.652110 0.445950 0.443190 -0.107672
N24   N     N_R   0.554050 0.497220 0.706150 -0.054053
Ni1   Ni    Ni4+2 0.369690 0.500010 0.369700 0.253368
Ni2   Ni    Ni4+2 0.630310 0.499990 0.630300 0.189135
Ni3   Ni    Ni4+2 0.500000 0.369720 0.369720 0.221229
Ni4   Ni    Ni4+2 0.500000 0.630280 0.630280 0.263680

loop_
_geom_bond_atom_site_label_1
_geom_bond_atom_site_label_2
_ccdc_geom_bond_type
C25   C31   A    
C6    C45   A    
C62   H22   S    
C27   C29   A    
C53   C63   S    
C49   H13   S    
C10   H34   S    
C35   C36   A    
C3    C6    A    
C28   N3    A    
C39   C41   S    
C64   N18   A    
C53   C54   A    
N23   Ni3   S    
C26   C27   A    
C62   C63   A    
C18   C24   A    
C36   C37   A    
N1    N7    A    
C55   H16   S    
C1    N9    S    
C45   H24   S    
C30   C31   A    
N8    Ni1   S    
C5    N23   A    
C10   C17   A    
C23   C40   A    
C18   N13   S    
C18   C19   A    
H40   N17   S    
C60   F8    S    
C16   N2    A    
C9    C66   A    
C5    F3    S    
C46   C47   A    
H32   N13   S    
H41   N17   S    
C65   F1    S    
H39   N16   S    
C28   H14   S    
C32   C41   S    
C52   H20   S    
C61   N6    A    
C32   C38   A    
C4    C12   A    
C29   C30   A    
C9    C57   S    
N21   Ni1   S    
H27   N10   S    
C44   H9    S    
N12   N23   A    
C28   C34   A    
C59   C60   S    
C56   H1    S    
C13   C14   A    
C26   F5    S    
H36   N15   S    
C3    N22   A    
C7    C56   A    
H38   N16   S    
C22   C34   S    
C1    C63   A    
C35   N14   S    
C64   H12   S    
C44   C46   A    
C1    N1    A    
C40   N4    A    
N19   Ni4   S    
C23   C47   S    
H25   N9    S    
C49   H11   S    
C54   H15   S    
N24   Ni2   S    
N20   Ni2   S    
C5    C7    A    
N6    Ni4   S    
H26   N9    S    
C42   C48   A    
C14   H44   S    
C58   C59   S    
N4    Ni2   S    
H30   N11   S    
C13   C24   S    
C51   C53   A    
C65   N19   A    
C43   C44   A    
C37   C38   A    
N22   Ni4   S    
C47   C48   A    
N18   Ni3   S    
N19   N20   A    
C41   H7    S    
C40   N17   S    
C29   H3    S    
C51   C58   A    
C59   H17   S    
N2    Ni3   S    
N3    Ni4   S    
C11   H42   S    
C56   N12   A    
C42   C50   S    
C46   H10   S    
C48   C49   S    
C8    C64   A    
C16   C23   A    
C7    C19   S    
C6    C43   S    
C55   C57   A    
N1    Ni1   S    
C3    N11   S    
C4    H43   S    
C8    C37   S    
N2    N4    A    
C27   H2    S    
C25   H46   S    
H31   N13   S    
C15   C17   A    
C15   F4    S    
C54   C55   A    
H35   N14   S    
C34   C52   A    
C2    C8    A    
H28   N10   S    
N18   N21   A    
C4    N24   A    
C52   N5    A    
C61   H21   S    
H33   N14   S    
C2    F2    S    
C50   N15   S    
C16   H5    S    
N12   Ni2   S    
C39   H6    S    
C19   C20   A    
C25   C26   A    
C21   H45   S    
C50   N16   S    
C60   H19   S    
C12   C61   A    
C11   C13   A    
H37   N15   S    
C57   C58   A    
C38   C39   S    
N8    N22   A    
C41   H8    S    
N6    N24   A    
C33   C35   A    
C22   C24   A    
C59   H18   S    
C39   F7    S    
C32   C33   A    
C9    C65   A    
N3    N5    A    
C10   C11   A    
C30   H4    S    
C62   N7    A    
C66   N20   A    
C20   C21   A    
C17   H23   S    
C49   C50   S    
C42   C43   A    
C2    N21   A    
C14   C15   A    
N5    Ni1   S    
C51   C60   S    
C45   N8    A    
C12   C33   S    
C21   C22   A    
H29   N11   S    
C36   F6    S    
N7    Ni3   S    
C66   N10   S    
C20   C31   S    
