data_mof_unit_26618.cif
_audit_creation_date              2012-12-11T15:22:41-0500
_audit_creation_method            fapswitch 2.2
_symmetry_space_group_name_H-M    P1
_symmetry_Int_Tables_number       1
_space_group_crystal_system       triclinic
_cell_length_a                    22.886931
_cell_length_b                    7.31208
_cell_length_c                    20.726833
_cell_angle_alpha                 89.982012
_cell_angle_beta                  93.308056
_cell_angle_gamma                 90.016249
_cell_volume                      3462.87761689

loop_
_atom_site_label
_atom_site_type_symbol
_atom_type_description
_atom_site_fract_x
_atom_site_fract_y
_atom_site_fract_z
_atom_type_partial_charge
O1    O     O_R   0.438030 0.494310 0.439340 -0.516229
O2    O     O_R   0.561970 0.994310 0.560660 -0.514929
O3    O     O_R   0.556900 0.822900 0.435960 -0.534854
O4    O     O_R   0.443100 0.322900 0.564040 -0.543785
C1    C     C_R   0.575639 0.655245 0.421348 0.727650
C2    C     C_R   0.424328 0.155176 0.578600 0.730322
O5    O     O_R   0.438170 0.823950 0.431660 -0.533601
O6    O     O_R   0.561830 0.323950 0.568340 -0.532566
O7    O     O_R   0.442390 0.995390 0.556340 -0.523255
O8    O     O_R   0.557610 0.495390 0.443660 -0.529744
C3    C     C_R   0.420197 0.654854 0.413849 0.756788
C4    C     C_R   0.579813 0.154851 0.586140 0.765424
O9    O     O_3   0.501520 0.661170 0.540910 -0.352500
O10   O     O_3   0.498480 0.161170 0.459090 -0.355619
V1    V     V_3+5 0.499720 0.935580 0.492410 1.681735
V2    V     V_3+5 0.500280 0.435580 0.507590 1.669512
C5    C     C_R   0.830280 0.935580 0.857252 -0.194327
C6    C     C_R   0.169732 0.435620 0.142732 -0.193885
C7    C     C_R   0.869484 0.082965 0.865706 -0.071611
C8    C     C_R   0.130527 0.582954 0.134285 -0.070887
C9    C     C_R   0.860581 0.240481 0.827155 -0.188997
C10   C     C_R   0.139439 0.740423 0.172829 -0.184898
C11   C     C_R   0.813123 0.251340 0.781069 0.088682
C12   C     C_R   0.186908 0.751294 0.218900 0.087482
C13   C     C_R   0.773043 0.104844 0.774358 0.092832
C14   C     C_R   0.226988 0.604854 0.225607 0.092837
C15   C     C_R   0.781917 0.946579 0.812560 0.096833
C16   C     C_R   0.218106 0.446633 0.187412 0.097404
C17   C     C_R   0.804869 0.406410 0.741714 -0.172839
C18   C     C_R   0.195172 0.906327 0.258242 -0.169275
C19   C     C_R   0.757373 0.416366 0.696206 -0.128998
C20   C     C_R   0.242676 0.916298 0.303739 -0.129563
C21   C     C_R   0.716499 0.273187 0.690134 0.088079
C22   C     C_R   0.283544 0.773167 0.309814 0.087375
C23   C     C_R   0.723867 0.117155 0.729722 0.004572
C24   C     C_R   0.276171 0.617178 0.270236 0.004657
C25   C     C_R   0.681980 0.974590 0.725448 -0.023751
C26   C     C_R   0.318056 0.474667 0.274513 -0.025000
C27   C     C_R   0.693144 0.814918 0.762524 -0.075792
C28   C     C_R   0.306889 0.315045 0.237435 -0.075177
C29   C     C_R   0.742202 0.801649 0.805517 -0.197374
C30   C     C_R   0.257824 0.301764 0.194450 -0.197494
C31   C     C_R   0.669188 0.282424 0.644196 -0.195394
C32   C     C_R   0.330852 0.782404 0.355753 -0.205935
C33   C     C_R   0.626537 0.143597 0.639441 -0.181333
C34   C     C_R   0.373491 0.643611 0.360529 -0.180286
C35   C     C_R   0.630401 0.995353 0.684391 0.386942
C36   C     C_R   0.369631 0.495426 0.315582 0.393968
H1    H     H_    0.836496 0.813748 0.886685 0.126956
H2    H     H_    0.163510 0.313823 0.113304 0.126766
H3    H     H_    0.890851 0.354237 0.832634 0.140128
H4    H     H_    0.109169 0.854137 0.167355 0.140754
H5    H     H_    0.835248 0.520046 0.746010 0.147807
H6    H     H_    0.164795 0.019922 0.253946 0.149482
H7    H     H_    0.752276 0.537244 0.666140 0.150292
H8    H     H_    0.247781 0.037148 0.333796 0.151353
H9    H     H_    0.665784 0.398349 0.611546 0.170113
H10   H     H_    0.334260 0.898297 0.388394 0.169380
C37   C     C_3   0.232233 0.299098 0.787690 -0.432875
C38   C     C_3   0.764107 0.800718 0.207777 -0.485326
C39   C     C_3   0.253755 0.970541 0.808370 -0.379317
C40   C     C_3   0.745416 0.470480 0.190356 -0.383474
C41   C     C_3   0.306187 0.994131 0.764463 0.303102
C42   C     C_3   0.692525 0.492324 0.233723 0.281415
H11   H     H_    0.257048 0.323447 0.834572 0.248993
H12   H     H_    0.738565 0.818717 0.160984 0.259759
H13   H     H_    0.237121 0.827829 0.805349 0.220112
H14   H     H_    0.762415 0.328800 0.193840 0.204883
H15   H     H_    0.267656 0.993893 0.860062 0.214226
H16   H     H_    0.731516 0.490753 0.138494 0.218702
H17   H     H_    0.313485 0.861765 0.742601 0.194374
H18   H     H_    0.685928 0.360026 0.256140 0.158265
C43   C     C_1   0.378460 0.143569 0.623760 0.003793
C44   C     C_1   0.620951 0.643774 0.375509 0.007609
C45   C     C_3   0.204150 0.104354 0.787930 -0.100287
C46   C     C_3   0.794229 0.609072 0.210028 -0.086827
C47   C     C_3   0.273217 0.318050 0.730274 0.307271
C48   C     C_3   0.723724 0.819666 0.265805 0.363135
C49   C     C_3   0.290436 0.125879 0.705562 -0.231586
C50   C     C_3   0.707551 0.626747 0.291864 -0.217729
C51   C     C_3   0.232827 0.044398 0.670645 0.096926
C52   C     C_3   0.765501 0.549230 0.326982 0.086926
C53   C     C_3   0.180433 0.057249 0.716980 0.238108
C54   C     C_3   0.818032 0.573242 0.281900 0.218413
C55   C     C_1   0.339186 0.132971 0.660638 0.210014
C56   C     C_1   0.659403 0.633218 0.337648 0.240063
C57   C     C_1   0.157813 0.097021 0.835669 0.120770
C58   C     C_1   0.841248 0.599088 0.163159 0.137293
C59   C     C_1   0.120315 0.086540 0.874745 -0.093094
C60   C     C_1   0.879275 0.586704 0.124792 -0.096874
H19   H     H_    0.197340 0.404454 0.783560 0.209424
H20   H     H_    0.797787 0.909736 0.210101 0.186309
H21   H     H_    0.246209 0.384027 0.690883 0.146356
H22   H     H_    0.751563 0.888924 0.303868 0.132336
H23   H     H_    0.242367 0.898736 0.660619 0.150084
H24   H     H_    0.758868 0.400369 0.334900 0.146408
O11   O     O_R   0.942420 0.735670 0.056390 -0.535928
O12   O     O_R   0.057580 0.235670 0.943610 -0.537047
O13   O     O_R   0.061840 0.404850 0.068350 -0.539232
O14   O     O_R   0.938160 0.904850 0.931650 -0.539540
C61   C     C_R   0.081224 0.573508 0.084417 0.704928
C62   C     C_R   0.918779 0.073511 0.915582 0.702364
O15   O     O_R   0.943100 0.406010 0.064050 -0.523733
O16   O     O_R   0.056900 0.906010 0.935950 -0.521800
O17   O     O_R   0.938020 0.234710 0.939330 -0.541555
O18   O     O_R   0.061980 0.734710 0.060670 -0.541591
C63   C     C_R   0.924517 0.574799 0.078733 0.704821
C64   C     C_R   0.075449 0.074850 0.921240 0.702977
O19   O     O_3   0.998500 0.567790 0.959120 -0.376348
O20   O     O_3   0.001500 0.067790 0.040880 -0.376225
V3    V     V_3+5 0.000280 0.293330 0.007580 1.477818
V4    V     V_3+5 0.999720 0.793330 0.992420 1.480004
S1    S     S_3+6 0.373083 0.034161 0.813245 0.146042
O21   O     O_2   0.383861 0.874294 0.857895 -0.257431
O22   O     O_2   0.424216 0.050515 0.771290 -0.247197
O23   O     O_3   0.367446 0.222314 0.859053 -0.451761
H25   H     H_    0.406044 0.234442 0.882838 0.401386
S2    S     S_3+6 0.625603 0.529334 0.184465 0.133727
O24   O     O_2   0.615485 0.369876 0.139548 -0.256403
O25   O     O_2   0.574324 0.542993 0.226318 -0.257578
O26   O     O_3   0.630383 0.717852 0.138628 -0.449077
H26   H     H_    0.591675 0.728608 0.114989 0.402949
H27   H     H_    0.151340 0.172694 0.701537 0.171900
H28   H     H_    0.842992 0.697905 0.297215 0.163396
S3    S     S_3+6 0.134683 0.855164 0.708855 0.065952
O27   O     O_2   0.093074 0.840335 0.762027 -0.306659
O28   O     O_2   0.098925 0.865202 0.645811 -0.242775
O29   O     O_3   0.176229 0.666136 0.709369 -0.521451
H29   H     H_    0.181471 0.638775 0.663310 0.376788
S4    S     S_3+6 0.869976 0.387320 0.292175 0.094469
O30   O     O_2   0.925755 0.437417 0.261626 -0.287844
O31   O     O_2   0.884016 0.352779 0.362856 -0.231443
O32   O     O_3   0.843648 0.193776 0.258360 -0.508505
H30   H     H_    0.815109 0.148318 0.288706 0.332493
S5    S     S_3+6 0.211192 0.139760 0.591601 0.022133
O33   O     O_2   0.263043 0.181212 0.552842 -0.360630
O34   O     O_2   0.173712 0.001645 0.554961 -0.250519
O35   O     O_3   0.172050 0.332490 0.598844 -0.505460
H31   H     H_    0.161203 0.370968 0.553920 0.398141
S6    S     S_3+6 0.782486 0.642546 0.407434 0.049692
O36   O     O_2   0.749882 0.817371 0.418208 -0.330310
O37   O     O_2   0.765027 0.503846 0.456300 -0.303544
O38   O     O_3   0.854579 0.684538 0.419303 -0.433018
H32   H     H_    0.860126 0.720422 0.465324 0.399814
S7    S     S_3+6 0.568639 0.852508 0.696680 0.042006
O39   O     O_2   0.512479 0.944607 0.674215 -0.306553
O40   O     O_2   0.575206 0.676796 0.660243 -0.348239
O41   O     O_3   0.564894 0.805491 0.775824 -0.473214
H33   H     H_    0.531447 0.720173 0.778150 0.412768
S8    S     S_3+6 0.431387 0.352631 0.303331 0.031425
O42   O     O_2   0.487549 0.444738 0.325821 -0.318195
O43   O     O_2   0.424787 0.176865 0.339773 -0.350414
O44   O     O_3   0.435167 0.305702 0.224195 -0.473104
H34   H     H_    0.468708 0.220802 0.221881 0.409408
H35   H     H_    0.665031 0.696428 0.757700 0.198190
H36   H     H_    0.335002 0.196596 0.242256 0.198904
H37   H     H_    0.748969 0.677399 0.833481 0.141597
H38   H     H_    0.251053 0.177548 0.166488 0.141325
S9    S     S_3+6 0.332162 0.479674 0.742823 0.069812
O45   O     O_2   0.323098 0.586340 0.803204 -0.287377
O46   O     O_2   0.392023 0.395944 0.748551 -0.244392
O47   O     O_3   0.329942 0.617296 0.677633 -0.527839
H39   H     H_    0.338371 0.536800 0.640894 0.332804
S10   S     S_3+6 0.664031 0.978301 0.253797 0.050993
O48   O     O_2   0.672853 0.087344 0.193905 -0.300569
O49   O     O_2   0.604863 0.889799 0.247646 -0.255983
O50   O     O_3   0.665505 0.112516 0.319866 -0.534072
H40   H     H_    0.625642 0.164996 0.320757 0.369619

loop_
_geom_bond_atom_site_label_1
_geom_bond_atom_site_label_2
_ccdc_geom_bond_type
S5    O35   S    
C18   C20   A    
C35   S7    S    
C48   S10   S    
C36   S8    S    
O1    C3    A    
S6    O38   S    
O16   C64   A    
O2    C4    A    
O29   H29   S    
C46   C54   S    
C2    O7    A    
S7    O39   D    
O12   C64   A    
S5    O33   D    
C27   C29   A    
C41   C49   S    
C39   C45   S    
O5    C3    A    
C18   H6    S    
C38   C48   S    
C11   C17   A    
S10   O48   D    
C23   C25   A    
S6    O37   D    
C60   C63   S    
O47   H39   S    
C51   H23   S    
C7    C62   S    
C48   C50   S    
C39   H15   S    
O38   H32   S    
O5    V1    S    
C42   S2    S    
O23   H25   S    
C40   H16   S    
C62   O17   A    
O15   V3    S    
C54   S4    S    
C1    C44   S    
C39   C41   S    
C15   C29   A    
S2    O24   D    
C40   C42   S    
C51   C53   S    
O20   V3    S    
O16   V4    S    
C32   H10   S    
S8    O44   S    
S3    O29   S    
C50   C56   S    
C19   C21   A    
O11   C63   A    
C25   C35   A    
C46   C58   S    
C52   S6    S    
S1    O23   S    
C33   C35   A    
O17   V3    S    
C38   H12   S    
O6    V2    S    
C42   C50   S    
C40   C46   S    
C30   H38   S    
C53   S3    S    
O14   C62   A    
S7    O40   D    
C32   C34   A    
C51   S5    S    
S2    O25   D    
C47   C49   S    
C34   C36   A    
C52   H24   S    
C21   C31   A    
C6    C16   A    
O41   H33   S    
O4    C2    A    
C49   C55   S    
O19   V4    S    
C5    H1    S    
O50   H40   S    
C49   C51   S    
O11   V4    S    
C4    C33   S    
O18   V4    S    
C8    C61   S    
C38   C46   S    
C44   C56   T    
C27   H35   S    
S2    O26   S    
C5    C15   A    
O4    V2    S    
S4    O31   D    
C39   H13   S    
S9    O45   D    
O6    C4    A    
O13   V3    S    
S9    O46   D    
S9    O47   S    
C22   C32   A    
O1    V2    S    
C37   H19   S    
S6    O36   D    
O2    V1    S    
C31   C33   A    
C43   C55   T    
O26   H26   S    
C41   H17   S    
C47   S9    S    
C29   H37   S    
C14   C24   A    
O13   C61   A    
C58   C60   T    
O14   V4    S    
C52   C54   S    
C9    C11   A    
S3    O27   D    
S8    O43   D    
S4    O32   S    
C13   C15   A    
C5    C7    A    
C24   C26   A    
C37   C45   S    
C9    H3    S    
S7    O41   S    
O3    V1    S    
C6    H2    S    
C2    C43   S    
C10   H4    S    
S1    O21   D    
C45   C57   S    
C61   O18   A    
S5    O34   D    
O12   V3    S    
C16   C30   A    
C7    C9    A    
S8    O42   D    
C26   C36   A    
S10   O50   S    
C12   C14   A    
C8    C10   A    
C28   C30   A    
O3    C1    A    
C6    C8    A    
C54   H28   S    
C14   C16   A    
C40   H14   S    
C53   H27   S    
C37   C47   S    
S10   O49   D    
S4    O30   D    
O7    V1    S    
C1    O8    A    
C17   C19   A    
O8    V2    S    
C37   H11   S    
C26   C28   A    
C45   C53   S    
O32   H30   S    
C17   H5    S    
C48   H22   S    
C59   C64   S    
C47   H21   S    
C21   C23   A    
C50   C52   S    
C10   C12   A    
C42   H18   S    
C12   C18   A    
C13   C23   A    
O35   H31   S    
C31   H9    S    
C41   S1    S    
C11   C13   A    
C22   C24   A    
C25   C27   A    
O9    V2    S    
S3    O28   D    
C57   C59   T    
O10   V1    S    
C28   H36   S    
C3    C34   S    
O15   C63   A    
C19   H7    S    
O44   H34   S    
C38   H20   S    
C20   H8    S    
C20   C22   A    
S1    O22   D    
