data_mof_unit_54369.cif
_audit_creation_date              2012-12-10T18:50:46-0500
_audit_creation_method            fapswitch 2.2
_symmetry_space_group_name_H-M    P1
_symmetry_Int_Tables_number       1
_space_group_crystal_system       triclinic
_cell_length_a                    10.6113
_cell_length_b                    10.016874
_cell_length_c                    15.745733
_cell_angle_alpha                 89.974145
_cell_angle_beta                  93.610601
_cell_angle_gamma                 89.940623
_cell_volume                      1670.32316748

loop_
_atom_site_label
_atom_site_type_symbol
_atom_type_description
_atom_site_fract_x
_atom_site_fract_y
_atom_site_fract_z
_atom_type_partial_charge
C1    C     C_R   0.261066 0.500081 0.499830 0.855482
C2    C     C_3   0.653051 0.494583 0.954909 0.666556
C3    C     C_3   0.655077 0.494171 0.056937 0.150730
C4    C     C_1   0.507907 0.499972 0.825391 0.224608
C5    C     C_1   0.507419 0.500974 0.175277 0.099355
C6    C     C_1   0.503261 0.500288 0.250265 -0.181394
C7    C     C_R   0.057490 0.494341 0.420997 0.404840
C8    C     C_R   0.072307 0.506285 0.578696 0.424978
C9    C     C_R   0.926825 0.493808 0.421511 0.127369
C10   C     C_R   0.941948 0.505791 0.578686 0.067577
C11   C     C_R   0.871466 0.499697 0.500204 -0.195835
C12   C     C_R   0.128542 0.500375 0.499833 -0.320702
C13   C     C_R   0.581206 0.071527 0.554835 0.200787
C14   C     C_R   0.581196 0.928248 0.554846 0.202351
C15   C     C_R   0.499600 0.500043 0.338763 0.862927
C16   C     C_R   0.418695 0.928477 0.445165 0.197822
C17   C     C_R   0.418676 0.071750 0.445174 0.183631
C18   C     C_R   0.738806 0.499919 0.499901 0.927053
C19   C     C_R   0.501348 0.499968 0.661285 0.846103
C20   C     C_3   0.449206 0.634717 0.048167 0.116807
C21   C     C_3   0.435462 0.377555 0.047301 0.167285
C22   C     C_3   0.433628 0.372986 0.947294 0.403176
C23   C     C_3   0.442314 0.633469 0.947772 0.484002
C24   C     C_1   0.504840 0.499914 0.750084 -0.153434
C25   C     C_3   0.511812 0.501953 0.083591 -0.036533
C26   C     C_3   0.510359 0.500127 0.917419 0.017676
H1    H     H_    0.483993 0.287056 0.073241 0.155049
H2    H     H_    0.509369 0.719431 0.071453 0.113734
N1    N     N_R   0.499970 0.857200 0.499980 -0.112105
N2    N     N_R   0.499970 0.142800 0.499980 -0.113260
O1    O     O_R   0.316750 0.614620 0.499990 -0.612940
O2    O     O_R   0.316750 0.385380 0.499990 -0.611833
O3    O     O_R   0.499990 0.614720 0.377140 -0.626123
O4    O     O_R   0.499990 0.385280 0.377140 -0.617735
O5    O     O_R   0.683220 0.614710 0.500000 -0.621817
O6    O     O_R   0.683220 0.385290 0.500000 -0.623363
O7    O     O_R   0.499980 0.614620 0.622860 -0.614968
O8    O     O_R   0.499980 0.385380 0.622860 -0.614554
Zn1   Zn    Zn3+2 0.499980 0.653120 0.500000 0.942558
Zn2   Zn    Zn3+2 0.499980 0.346880 0.500000 0.944626
O9    O     O_3   0.316940 0.638801 0.910856 -0.665635
H3    H     H_    0.256187 0.597533 0.947877 0.408315
O10   O     O_3   0.308980 0.380304 0.910147 -0.727794
H4    H     H_    0.259754 0.302800 0.929287 0.368622
C27   C     C_3   0.326659 0.857937 0.383092 -0.786185
H5    H     H_    0.330344 0.749885 0.385800 0.286942
H6    H     H_    0.228311 0.885550 0.395754 0.222374
H7    H     H_    0.345778 0.885185 0.316817 0.212199
C28   C     C_3   0.326514 0.142514 0.383156 -0.755983
H8    H     H_    0.330352 0.250548 0.385681 0.288184
H9    H     H_    0.345345 0.115066 0.316876 0.220846
H10   H     H_    0.228198 0.115276 0.396024 0.219728
O11   O     O_3   0.329934 0.657620 0.080373 -0.754957
H11   H     H_    0.343380 0.699766 0.137323 0.350859
O12   O     O_3   0.314316 0.368275 0.079160 -0.725372
H12   H     H_    0.259084 0.438154 0.052789 0.399992
C29   C     C_3   0.486660 0.236291 0.917475 -0.813170
H13   H     H_    0.418385 0.154896 0.928170 0.220701
H14   H     H_    0.502201 0.237433 0.848437 0.265517
H15   H     H_    0.574517 0.204787 0.953068 0.240868
C30   C     C_3   0.501818 0.764819 0.916010 -0.737157
H16   H     H_    0.515585 0.761090 0.846764 0.247063
H17   H     H_    0.437042 0.849714 0.926548 0.240825
H18   H     H_    0.592232 0.791753 0.950410 0.221552
C31   C     C_3   0.735185 0.613042 0.096012 -0.846317
H19   H     H_    0.837173 0.598772 0.086367 0.252651
H20   H     H_    0.709848 0.710821 0.067265 0.233924
H21   H     H_    0.726507 0.620982 0.165703 0.240109
C32   C     C_3   0.723120 0.367233 0.095755 -0.840113
H22   H     H_    0.686051 0.272637 0.068598 0.227532
H23   H     H_    0.825437 0.368408 0.084501 0.250279
H24   H     H_    0.716416 0.362484 0.165760 0.242474
O13   O     O_3   0.717297 0.606172 0.923626 -0.803548
H25   H     H_    0.809232 0.596152 0.937787 0.348847
O14   O     O_3   0.710342 0.378895 0.923155 -0.796236
H26   H     H_    0.802578 0.382052 0.937786 0.345541
O15   O     O_3   0.111511 0.488953 0.343039 -0.757072
H27   H     H_    0.204489 0.494934 0.349808 0.324398
O16   O     O_3   0.140331 0.512212 0.656839 -0.721981
H28   H     H_    0.232093 0.510861 0.649976 0.340954
C33   C     C_3   0.845572 0.487922 0.338678 -0.798980
H29   H     H_    0.901106 0.484151 0.281386 0.287487
H30   H     H_    0.785231 0.397390 0.337917 0.223540
H31   H     H_    0.784278 0.577778 0.332887 0.216205
C34   C     C_3   0.881560 0.511360 0.663520 -0.725529
H32   H     H_    0.913763 0.424701 0.703240 0.262486
H33   H     H_    0.910180 0.604879 0.697297 0.261892
H34   H     H_    0.777089 0.508812 0.658019 0.182588
C35   C     C_3   0.673149 0.142072 0.616984 -0.790066
H35   H     H_    0.669546 0.250127 0.614245 0.286556
H36   H     H_    0.653873 0.114857 0.683242 0.220628
H37   H     H_    0.771526 0.114429 0.604427 0.219197
C36   C     C_3   0.673125 0.857479 0.617036 -0.792695
H38   H     H_    0.669479 0.749460 0.614358 0.286569
H39   H     H_    0.771517 0.884849 0.604466 0.219813
H40   H     H_    0.653860 0.884727 0.683281 0.220048

loop_
_geom_bond_atom_site_label_1
_geom_bond_atom_site_label_2
_ccdc_geom_bond_type
O12   H12   S    
C10   C34   S    
C36   H38   S    
C30   H18   S    
O9    H3    S    
O10   H4    S    
C22   C29   S    
C33   H29   S    
C11   C18   S    
O11   H11   S    
O3    Zn1   S    
O4    Zn2   S    
C3    C32   S    
C32   H22   S    
C5    C6    T    
C4    C24   T    
C34   H34   S    
C20   C25   S    
C1    O1    A    
C32   H23   S    
O13   H25   S    
C23   C26   S    
C30   H17   S    
C19   O7    A    
C6    C15   S    
C16   C17   A    
C28   H9    S    
C8    O16   S    
C35   H36   S    
C18   O5    A    
C15   O4    A    
O15   H27   S    
C7    O15   S    
C28   H10   S    
C34   H33   S    
C21   H1    S    
C36   H39   S    
C13   C14   A    
C17   N2    A    
C3    C31   S    
C1    C12   S    
C33   H30   S    
C27   H6    S    
C7    C12   A    
C13   N2    A    
C3    C25   S    
C17   C28   S    
C21   O12   S    
C29   H15   S    
C20   H2    S    
C31   H20   S    
C16   N1    A    
C34   H32   S    
C1    O2    A    
C32   H24   S    
O5    Zn1   S    
O14   H26   S    
C19   O8    A    
C22   O10   S    
C20   C23   S    
O6    Zn2   S    
C8    C12   A    
C31   H21   S    
N1    Zn1   S    
N2    Zn2   S    
C2    C26   S    
C35   H37   S    
C9    C11   A    
C2    O13   S    
C5    C25   S    
C28   H8    S    
C36   H40   S    
C14   N1    A    
C33   H31   S    
C27   H7    S    
C7    C9    A    
C21   C25   S    
C14   C36   S    
C13   C35   S    
C20   O11   S    
C16   C27   S    
C4    C26   S    
C23   O9    S    
C2    C3    S    
O7    Zn1   S    
O8    Zn2   S    
C29   H13   S    
O1    Zn1   S    
C19   C24   S    
O2    Zn2   S    
C30   H16   S    
C29   H14   S    
C10   C11   A    
O16   H28   S    
C27   H5    S    
C23   C30   S    
C8    C10   A    
C31   H19   S    
C22   C26   S    
C35   H35   S    
C21   C22   S    
C18   O6    A    
C15   O3    A    
C2    O14   S    
C9    C33   S    
