data_mof_unit_66506.cif
_audit_creation_date              2012-12-10T19:19:02-0500
_audit_creation_method            fapswitch 2.2
_symmetry_space_group_name_H-M    P1
_symmetry_Int_Tables_number       1
_space_group_crystal_system       triclinic
_cell_length_a                    15.994032
_cell_length_b                    14.766738
_cell_length_c                    19.358507
_cell_angle_alpha                 89.987191
_cell_angle_beta                  89.985152
_cell_angle_gamma                 89.949845
_cell_volume                      4572.08397134

loop_
_atom_site_label
_atom_site_type_symbol
_atom_type_description
_atom_site_fract_x
_atom_site_fract_y
_atom_site_fract_z
_atom_type_partial_charge
C1    C     C_R   0.340840 0.500030 0.500016 0.803736
C2    C     C_R   0.659160 0.499970 0.499984 0.803735
C3    C     C_1   0.823322 0.499945 0.499979 -0.037241
C4    C     C_1   0.176678 0.500055 0.500021 -0.037241
C5    C     C_1   0.251728 0.500067 0.500021 -0.158970
C6    C     C_1   0.748272 0.499932 0.499979 -0.158970
C7    C     C_R   0.522966 0.952068 0.559368 -0.141388
C8    C     C_R   0.477034 0.047932 0.440632 -0.141388
C9    C     C_R   0.477052 0.952141 0.440633 -0.140793
C10   C     C_R   0.522948 0.047859 0.559367 -0.140793
C11   C     C_R   0.500016 0.902864 0.500000 0.041436
C12   C     C_R   0.499984 0.097136 0.499999 0.041436
C13   C     C_1   0.500011 0.802717 0.500000 0.140422
C14   C     C_1   0.499989 0.197282 0.499999 0.140423
C15   C     C_R   0.499977 0.500008 0.367429 0.732468
C16   C     C_R   0.500023 0.499992 0.632571 0.732468
C17   C     C_R   0.568636 0.537222 0.255240 -0.019615
C18   C     C_R   0.431365 0.462777 0.744760 -0.019616
C19   C     C_R   0.568685 0.537197 0.744720 -0.016512
C20   C     C_R   0.431316 0.462802 0.255280 -0.016512
C21   C     C_R   0.567413 0.537040 0.182860 -0.109423
C22   C     C_R   0.432588 0.462958 0.817140 -0.109423
C23   C     C_R   0.567450 0.537022 0.817101 -0.109518
C24   C     C_R   0.432550 0.462977 0.182899 -0.109518
C25   C     C_R   0.499983 0.500008 0.146370 -0.046485
C26   C     C_R   0.500018 0.499990 0.853630 -0.046485
C27   C     C_R   0.499972 0.500020 0.291723 -0.183123
C28   C     C_R   0.500028 0.499980 0.708277 -0.183123
C29   C     C_R   0.500009 0.499993 0.929892 0.431511
C30   C     C_R   0.499992 0.500005 0.070108 0.431512
C31   C     C_R   0.956282 0.560325 0.542571 -0.151577
C32   C     C_R   0.043718 0.439675 0.457429 -0.151577
C33   C     C_R   0.043541 0.560351 0.542584 -0.155507
C34   C     C_R   0.956459 0.439649 0.457416 -0.155507
C35   C     C_R   0.912778 0.499974 0.499987 0.143728
C36   C     C_R   0.087222 0.500026 0.500013 0.143728
Cu1   Cu    Cu3+1 0.500000 0.589220 0.500000 0.987791
Cu2   Cu    Cu3+1 0.500000 0.410780 0.500000 0.987792
H1    H     H_    0.619865 0.565199 0.154756 0.200522
H2    H     H_    0.380136 0.434798 0.845244 0.200521
H3    H     H_    0.619900 0.565186 0.845174 0.200492
H4    H     H_    0.380100 0.434813 0.154826 0.200491
H5    H     H_    0.076873 0.607224 0.575658 0.150196
H6    H     H_    0.923127 0.392776 0.424341 0.150196
H7    H     H_    0.922810 0.607173 0.575638 0.155841
H8    H     H_    0.077190 0.392827 0.424362 0.155841
H9    H     H_    0.540949 0.083507 0.605935 0.142389
H10   H     H_    0.459051 0.916493 0.394065 0.142389
H11   H     H_    0.459018 0.083637 0.394062 0.143620
H12   H     H_    0.540982 0.916363 0.605938 0.143620
N1    N     N_R   0.435126 0.463827 0.034362 -0.221632
N2    N     N_R   0.564876 0.536170 0.965638 -0.221631
N3    N     N_R   0.435134 0.463822 0.965669 -0.221537
N4    N     N_R   0.564867 0.536176 0.034331 -0.221537
N5    N     N_1   0.500000 0.276710 0.500000 -0.146618
N6    N     N_1   0.500000 0.723290 0.500000 -0.146618
O1    O     O_R   0.380310 0.575320 0.500010 -0.561851
O2    O     O_R   0.619690 0.424680 0.499990 -0.561850
O3    O     O_R   0.619690 0.575320 0.499990 -0.572605
O4    O     O_R   0.380310 0.424680 0.500010 -0.572605
O5    O     O_R   0.499990 0.575370 0.400140 -0.569485
O6    O     O_R   0.500010 0.424630 0.599860 -0.569485
O7    O     O_R   0.500010 0.575370 0.599860 -0.570165
O8    O     O_R   0.499990 0.424630 0.400140 -0.570163
C37   C     C_2   0.643157 0.574044 0.291794 0.385731
H13   H     H_    0.649138 0.568291 0.347377 0.073652
O9    O     O_2   0.699560 0.611107 0.260032 -0.524581
C38   C     C_2   0.356843 0.425955 0.708206 0.385733
H14   H     H_    0.350861 0.431710 0.652624 0.073650
O10   O     O_2   0.300442 0.388890 0.739967 -0.524581
C39   C     C_2   0.643202 0.574043 0.708121 0.381626
H15   H     H_    0.649184 0.568304 0.652535 0.072816
O11   O     O_2   0.699602 0.611108 0.739849 -0.529351
C40   C     C_2   0.356798 0.425957 0.291879 0.381628
H16   H     H_    0.350815 0.431698 0.347464 0.072814
O12   O     O_2   0.300399 0.388890 0.260151 -0.529351

loop_
_geom_bond_atom_site_label_1
_geom_bond_atom_site_label_2
_ccdc_geom_bond_type
C16   C28   S    
C7    C10   A    
C30   N1    A    
C4    C36   S    
C24   H4    S    
C19   C39   S    
C3    C6    T    
C7    C11   A    
C30   N4    A    
C40   O12   D    
C1    C5    S    
C32   C36   A    
C18   C38   S    
C33   C36   A    
C34   C35   A    
C23   C26   A    
Cu2   O2    S    
Cu1   N6    S    
Cu2   N5    S    
C20   C24   A    
C8    C9    A    
C37   O9    D    
C15   O8    A    
C31   C33   A    
C16   O7    A    
C13   N6    T    
C14   N5    T    
C2    C6    S    
C16   O6    A    
Cu1   O7    S    
N2    N4    A    
Cu2   O8    S    
C40   H16   S    
C17   C27   A    
C18   C28   A    
C24   C25   A    
C1    O4    A    
C39   O11   D    
C2    O3    A    
C38   H14   S    
C17   C21   A    
N1    N3    A    
C32   C34   A    
C19   C23   A    
Cu1   Cu2   S    
C1    O1    A    
C15   C27   S    
C21   H1    S    
C3    C35   S    
C8    C12   A    
C22   H2    S    
C15   O5    A    
C20   C40   S    
C19   C28   A    
C9    C11   A    
Cu1   O3    S    
C10   C12   A    
C26   C29   S    
Cu2   O4    S    
C12   C14   S    
C22   C26   A    
C31   C35   A    
C25   C30   S    
C34   H6    S    
C21   C25   A    
C18   C22   A    
C32   H8    S    
C7    H12   S    
C4    C5    T    
Cu1   O5    S    
C2    O2    A    
C20   C27   A    
C17   C37   S    
C23   H3    S    
C39   H15   S    
C11   C13   S    
C29   N3    A    
C9    H10   S    
C38   O10   D    
C37   H13   S    
C31   H7    S    
C10   H9    S    
C33   H5    S    
C8    H11   S    
Cu1   O1    S    
Cu2   O6    S    
C29   N2    A    
