data_mof_unit_12514.cif
_audit_creation_date              2012-12-10T20:27:59-0500
_audit_creation_method            fapswitch 2.2
_symmetry_space_group_name_H-M    P1
_symmetry_Int_Tables_number       1
_space_group_crystal_system       triclinic
_cell_length_a                    12.869268
_cell_length_b                    10.66941
_cell_length_c                    9.85757
_cell_angle_alpha                 90.180116
_cell_angle_beta                  97.178712
_cell_angle_gamma                 90.095873
_cell_volume                      1342.89875363

loop_
_atom_site_label
_atom_site_type_symbol
_atom_type_description
_atom_site_fract_x
_atom_site_fract_y
_atom_site_fract_z
_atom_type_partial_charge
C1    C     C_R   0.505839 0.260041 0.500596 0.922802
C2    C     C_R   0.559109 0.932659 0.397181 -0.264166
C3    C     C_R   0.520673 0.871058 0.505899 -0.179604
C4    C     C_R   0.298140 0.500389 0.473216 0.878649
C5    C     C_R   0.505777 0.936860 0.623553 0.136991
C6    C     C_3   0.417723 0.931419 0.708813 -0.460828
C7    C     C_3   0.419485 0.073523 0.708347 -0.464605
C8    C     C_R   0.448477 0.408165 0.062646 0.307065
C9    C     C_R   0.558544 0.583779 0.081854 -0.122397
C10   C     C_R   0.558535 0.583807 0.937808 -0.136925
C11   C     C_R   0.448382 0.408198 0.919983 0.230892
C12   C     C_R   0.028706 0.521872 0.561283 0.188117
C13   C     C_3   0.333802 0.381266 0.896050 -0.521075
C14   C     C_3   0.334111 0.381149 0.049946 -0.539312
C15   C     C_R   0.503263 0.739965 0.500836 0.905298
C16   C     C_R   0.701836 0.499460 0.526820 0.887623
C17   C     C_R   0.813956 0.500857 0.543156 -0.051513
C18   C     C_R   0.185968 0.498511 0.457070 -0.048142
C19   C     C_R   0.021435 0.445351 0.326155 -0.207022
C20   C     C_R   0.129241 0.455608 0.335338 -0.206068
C21   C     C_R   0.135676 0.533780 0.568542 -0.281745
C22   C     C_R   0.971197 0.477348 0.439073 0.176785
C23   C     C_R   0.864162 0.466365 0.431358 -0.257749
C24   C     C_R   0.870704 0.542238 0.665582 -0.196650
C25   C     C_R   0.978519 0.552995 0.674566 -0.215704
C26   C     C_R   0.507350 0.064366 0.622793 0.107118
C27   C     C_R   0.524572 0.128536 0.504750 -0.215456
C28   C     C_R   0.562342 0.062630 0.396132 0.379909
Cl1   Cl    Cl    0.609140 0.135279 0.254894 -0.636051
H1    H     H_    0.819858 0.432470 0.337444 0.178825
H2    H     H_    0.317368 0.287572 0.091580 0.215900
H3    H     H_    0.831680 0.569189 0.752403 0.162237
H4    H     H_    0.977718 0.411214 0.232126 0.149363
H5    H     H_    0.022313 0.586496 0.768828 0.141146
H6    H     H_    0.168148 0.427086 0.249198 0.155749
H7    H     H_    0.179820 0.569238 0.661722 0.148959
H8    H     H_    0.581412 0.880832 0.310635 0.193989
H9    H     H_    0.344960 0.890701 0.652946 0.197597
H10   H     H_    0.442456 0.890642 0.811390 0.213003
H11   H     H_    0.347608 0.115762 0.652544 0.194934
H12   H     H_    0.445452 0.114680 0.810735 0.220559
H13   H     H_    0.604164 0.652982 0.143928 0.151350
H14   H     H_    0.604122 0.653027 0.891057 0.151387
H15   H     H_    0.287941 0.459890 0.845270 0.218307
H16   H     H_    0.316428 0.287846 0.848495 0.206009
H17   H     H_    0.288812 0.460064 0.086917 0.210209
N1    N     N_R   0.499290 0.499140 0.142710 -0.111735
N2    N     N_R   0.499290 0.499180 0.857070 -0.113062
O1    O     O_R   0.500010 0.316790 0.614690 -0.618451
O2    O     O_R   0.500000 0.316760 0.385350 -0.564889
O3    O     O_R   0.346360 0.499990 0.595720 -0.627226
O4    O     O_R   0.346350 0.499960 0.366370 -0.628493
O5    O     O_R   0.500000 0.683240 0.614650 -0.621358
O6    O     O_R   0.499990 0.683210 0.385310 -0.627247
O7    O     O_R   0.653650 0.500040 0.633630 -0.626850
O8    O     O_R   0.653640 0.500010 0.404280 -0.613305
Zn1   Zn    Zn3+2 0.500010 0.500020 0.653130 0.948789
Zn2   Zn    Zn3+2 0.499990 0.499980 0.346870 0.978068

loop_
_geom_bond_atom_site_label_1
_geom_bond_atom_site_label_2
_ccdc_geom_bond_type
C2    C28   A    
C7    H11   S    
C24   H3    S    
C6    C7    S    
O3    Zn1   S    
C1    O2    A    
C18   C21   A    
C9    C10   A    
C25   H5    S    
C19   C20   A    
C12   C25   A    
C4    C18   S    
C6    H9    S    
C2    C3    A    
C11   N2    A    
C16   O7    A    
O1    Zn1   S    
N2    Zn1   S    
C14   H17   S    
C21   H7    S    
C13   C14   S    
N1    Zn2   S    
C13   H16   S    
C11   C13   S    
C2    H8    S    
C9    H13   S    
C17   C23   A    
C7    C26   S    
O4    Zn2   S    
C16   O8    A    
C4    O4    A    
C8    C11   A    
C15   O5    A    
C28   Cl1   S    
O8    Zn2   S    
C9    N1    A    
C10   N2    A    
C18   C20   A    
O7    Zn1   S    
C26   C27   A    
C5    C6    S    
C8    N1    A    
C17   C24   A    
C4    O3    A    
C5    C26   A    
O2    Zn2   S    
C23   H1    S    
C12   C22   A    
C19   C22   A    
C3    C15   S    
C24   C25   A    
C15   O6    A    
O6    Zn2   S    
C27   C28   A    
C1    C27   S    
C14   H2    S    
O5    Zn1   S    
C22   C23   A    
C8    C14   S    
C10   H14   S    
C6    H10   S    
C20   H6    S    
C1    O1    A    
C12   C21   A    
C13   H15   S    
C7    H12   S    
C19   H4    S    
C16   C17   S    
C3    C5    A    
