data_mof_unit_12822.cif
_audit_creation_date              2012-10-26T20:21:15-0400
_audit_creation_method            fapswitch 2.2
_symmetry_space_group_name_H-M    P1
_symmetry_Int_Tables_number       1
_space_group_crystal_system       triclinic
_cell_length_a                    9.578927
_cell_length_b                    10.856426
_cell_length_c                    15.463828
_cell_angle_alpha                 91.046602
_cell_angle_beta                  74.561068
_cell_angle_gamma                 87.480652
_cell_volume                      1547.8504725

loop_
_atom_site_label
_atom_site_type_symbol
_atom_type_description
_atom_site_fract_x
_atom_site_fract_y
_atom_site_fract_z
_atom_type_partial_charge
C1    C     C_R   0.004116 0.262330 0.497767 0.543766
C2    C     C_R   0.109049 0.055227 0.433647 -0.012978
C3    C     C_R   0.990809 0.871800 0.498513 0.023075
C4    C     C_R   0.009191 0.128200 0.501487 0.023075
C5    C     C_R   0.561176 0.413970 0.545117 0.026624
C6    C     C_R   0.438824 0.586030 0.454883 0.026624
C7    C     C_R   0.413262 0.412280 0.545235 0.101872
C8    C     C_R   0.586738 0.587720 0.454765 0.101872
C9    C     C_R   0.918242 0.500509 0.672279 0.535503
C10   C     C_R   0.081757 0.499491 0.327721 0.535504
C11   C     C_R   0.872723 0.493175 0.770942 0.009368
C12   C     C_R   0.995884 0.737670 0.502233 0.543766
C13   C     C_R   0.127277 0.506825 0.229058 0.009368
C14   C     C_R   0.918161 0.423432 0.909200 -0.148845
C15   C     C_R   0.081839 0.576567 0.090800 -0.148845
C16   C     C_R   0.965215 0.436766 0.816702 -0.159866
C17   C     C_R   0.034785 0.563234 0.183297 -0.159866
C18   C     C_R   0.732778 0.538359 0.819641 -0.010015
C19   C     C_R   0.267221 0.461640 0.180359 -0.010015
C20   C     C_R   0.674614 0.499986 0.908446 0.048932
C21   C     C_R   0.325386 0.500013 0.091554 0.048932
C22   C     C_R   0.773357 0.453766 0.955288 0.036316
C23   C     C_R   0.583034 0.469131 0.093747 -0.148268
C24   C     C_R   0.226642 0.546233 0.044712 0.036316
C25   C     C_R   0.523324 0.509328 0.953101 0.028938
C26   C     C_R   0.476676 0.490671 0.046899 0.028938
C27   C     C_3   0.329932 0.347174 0.213152 -0.402792
C28   C     C_3   0.670068 0.652825 0.786848 -0.402792
C29   C     C_3   0.810894 0.149277 0.650076 -0.380646
C30   C     C_3   0.189109 0.850722 0.349926 -0.380641
C31   C     C_3   0.768904 0.889892 0.636127 -0.406092
C32   C     C_3   0.231098 0.110107 0.363874 -0.406092
C33   C     C_3   0.330865 0.307347 0.592815 -0.350768
C34   C     C_R   0.416966 0.530867 0.906253 -0.148268
C35   C     C_3   0.669135 0.692653 0.407184 -0.350768
C36   C     C_R   0.727485 0.443276 0.048115 -0.146910
C37   C     C_R   0.272515 0.556723 0.951884 -0.146910
C38   C     C_R   0.904753 0.073063 0.570064 -0.005973
C39   C     C_R   0.095247 0.926937 0.429936 -0.005974
C40   C     C_R   0.890952 0.944773 0.566353 -0.012978
Cu1   Cu    Cu3+1 0.140660 0.500020 0.500000 0.905401
Cu2   Cu    Cu3+1 0.859340 0.499980 0.500000 0.905401
H1    H     H_    0.804268 0.417958 0.085922 0.115289
H2    H     H_    0.379861 0.369381 0.268183 0.150795
H3    H     H_    0.240827 0.284475 0.236859 0.120875
H4    H     H_    0.620138 0.630618 0.731817 0.150795
H5    H     H_    0.589764 0.705517 0.841512 0.130033
H6    H     H_    0.759172 0.715525 0.763142 0.120875
H7    H     H_    0.556009 0.470477 0.166098 0.120446
H8    H     H_    0.443991 0.529522 0.833902 0.120446
H9    H     H_    0.695932 0.152563 0.647886 0.122764
H10   H     H_    0.819667 0.108569 0.713785 0.120960
H11   H     H_    0.844257 0.244918 0.654237 0.149655
H12   H     H_    0.195732 0.582041 0.914078 0.115289
H13   H     H_    0.304068 0.847426 0.352124 0.122765
H14   H     H_    0.155736 0.755085 0.345761 0.149651
H15   H     H_    0.180350 0.891435 0.286216 0.120959
H16   H     H_    0.758465 0.790564 0.627010 0.161686
H17   H     H_    0.784820 0.905266 0.703815 0.119037
H18   H     H_    0.663529 0.934756 0.633986 0.126649
H19   H     H_    0.241538 0.209436 0.372991 0.161686
H20   H     H_    0.336472 0.065241 0.366015 0.126650
H21   H     H_    0.215182 0.094734 0.296186 0.119036
H22   H     H_    0.222500 0.338034 0.634347 0.176977
H23   H     H_    0.925379 0.594785 0.218587 0.115121
H24   H     H_    0.324569 0.234274 0.543159 0.148435
H25   H     H_    0.387077 0.263825 0.639632 0.058880
H26   H     H_    0.777501 0.661966 0.365653 0.176977
H27   H     H_    0.612923 0.736174 0.360367 0.058880
H28   H     H_    0.675431 0.765726 0.456841 0.148434
H29   H     H_    0.074621 0.405215 0.781413 0.115122
H30   H     H_    0.993620 0.385730 0.944271 0.116969
H31   H     H_    0.006380 0.614270 0.055729 0.116969
H32   H     H_    0.607389 0.345370 0.580729 0.122620
H33   H     H_    0.392611 0.654630 0.419271 0.122619
H34   H     H_    0.410235 0.294482 0.158488 0.130033
N1    N     N_R   0.352080 0.500030 0.499980 -0.226360
N2    N     N_R   0.647920 0.499970 0.500020 -0.226360
O1    O     O_R   0.118740 0.319660 0.500000 -0.523248
O2    O     O_R   0.881260 0.680340 0.500000 -0.523248
O3    O     O_R   0.881170 0.319630 0.500010 -0.499702
O4    O     O_R   0.118830 0.680370 0.499990 -0.499701
O5    O     O_R   0.055570 0.500030 0.629830 -0.506773
O6    O     O_R   0.944430 0.499970 0.370170 -0.506773
O7    O     O_R   0.818000 0.500000 0.629840 -0.507751
O8    O     O_R   0.182000 0.500000 0.370160 -0.507750

loop_
_geom_bond_atom_site_label_1
_geom_bond_atom_site_label_2
_ccdc_geom_bond_type
C21   C26   A    
C11   C18   A    
Cu2   O2    S    
C34   C37   A    
Cu1   Cu2   S    
C6    H33   S    
C28   H5    S    
Cu1   O8    S    
Cu2   O3    S    
C28   H4    S    
C31   H16   S    
C19   C21   A    
C32   H19   S    
Cu1   N1    S    
C23   H7    S    
C20   C25   A    
C1    O3    A    
Cu1   O5    S    
C30   H15   S    
C31   C40   S    
C2    C32   S    
C23   C26   A    
C31   H17   S    
C5    H32   S    
C3    C12   S    
C9    O7    A    
C27   H2    S    
C10   O8    A    
C35   H28   S    
C29   C38   S    
C19   C27   S    
C25   C34   A    
C7    N1    A    
C27   H3    S    
C3    C39   A    
C8    N2    A    
C7    C33   S    
C16   H29   S    
C2    C39   A    
C33   H24   S    
C18   C28   S    
C34   H8    S    
C13   C19   A    
Cu2   O6    S    
C5    C7    A    
C6    N1    A    
C6    C8    A    
C25   C26   A    
C30   H14   S    
C8    C35   S    
C31   H18   S    
C2    C4    A    
C11   C16   A    
C24   C37   A    
C12   O4    A    
Cu2   O7    S    
C9    C11   S    
C9    O5    A    
C37   H12   S    
C15   C24   A    
C15   H31   S    
C20   C22   A    
C3    C40   A    
Cu2   N2    S    
C1    O1    A    
C14   C16   A    
C27   H34   S    
C33   H25   S    
C29   H9    S    
C15   C17   A    
C28   H6    S    
C14   H30   S    
C32   H21   S    
C4    C38   A    
C10   C13   S    
Cu1   O1    S    
C22   C36   A    
C30   H13   S    
C17   H23   S    
C13   C17   A    
C1    C4    S    
C14   C22   A    
C32   H20   S    
C38   C40   A    
C29   H11   S    
C35   H26   S    
C33   H22   S    
Cu1   O4    S    
C12   O2    A    
C10   O6    A    
C30   C39   S    
C18   C20   A    
C35   H27   S    
C23   C36   A    
C21   C24   A    
C36   H1    S    
C5    N2    A    
C29   H10   S    
