data_mof_unit_20455.cif
_audit_creation_date              2012-12-11T14:29:42-0500
_audit_creation_method            fapswitch 2.2
_symmetry_space_group_name_H-M    P1
_symmetry_Int_Tables_number       1
_space_group_crystal_system       triclinic
_cell_length_a                    6.935299
_cell_length_b                    14.746807
_cell_length_c                    16.249714
_cell_angle_alpha                 90.472156
_cell_angle_beta                  89.900891
_cell_angle_gamma                 90.195133
_cell_volume                      1661.84690895

loop_
_atom_site_label
_atom_site_type_symbol
_atom_type_description
_atom_site_fract_x
_atom_site_fract_y
_atom_site_fract_z
_atom_type_partial_charge
O1    O     O_R   0.494400 0.416610 0.413880 -0.541498
O2    O     O_R   0.823920 0.406790 0.585520 -0.543612
O3    O     O_R   0.994250 0.583390 0.586120 -0.536095
C1    C     C_R   0.654276 0.385469 0.613729 0.769111
O4    O     O_R   0.824110 0.405730 0.414490 -0.550244
O5    O     O_R   0.994440 0.582310 0.413870 -0.536838
C2    C     C_R   0.654260 0.381813 0.387889 0.664809
O6    O     O_R   0.494210 0.417690 0.586130 -0.542134
O7    O     O_3   0.660810 0.557940 0.500000 -0.367271
V1    V     V_3+5 0.935650 0.489250 0.500000 1.402091
O8    O     O_R   0.324160 0.593210 0.414480 -0.547369
C3    C     C_R   0.155666 0.614983 0.386296 0.735395
O9    O     O_R   0.323970 0.594270 0.585510 -0.538801
C4    C     C_R   0.155115 0.616104 0.613989 0.697217
V2    V     V_3+5 0.435660 0.510750 0.500000 1.407282
O10   O     O_3   0.160630 0.442060 0.500000 -0.374211
H1    H     H_    0.386620 0.913537 0.521051 0.110848
C5    C     C_R   0.009908 0.567402 0.775167 -0.139877
C6    C     C_R   0.937851 0.541741 0.851602 -0.130309
C7    C     C_R   0.927067 0.604561 0.915570 -0.120831
C8    C     C_R   0.987469 0.693660 0.903531 -0.134903
C9    C     C_R   0.058001 0.722369 0.826144 0.068738
C10   C     C_R   0.069936 0.657781 0.760519 0.071095
C11   C     C_R   0.119922 0.813135 0.814072 -0.188847
C12   C     C_R   0.193460 0.839180 0.736099 0.071520
C13   C     C_R   0.205816 0.774556 0.670519 0.069661
C14   C     C_R   0.144461 0.683702 0.682657 -0.186459
C15   C     C_R   0.251390 0.929805 0.721240 -0.139818
C16   C     C_R   0.321590 0.955751 0.644575 -0.127724
C17   C     C_R   0.333534 0.892813 0.580725 -0.118976
C18   C     C_R   0.275465 0.803405 0.593031 -0.133902
H2    H     H_    0.019034 0.515226 0.728195 0.110145
H3    H     H_    0.891372 0.472520 0.861404 0.113831
H4    H     H_    0.872756 0.584019 0.975094 0.111944
H5    H     H_    0.979249 0.739275 0.955844 0.105851
H6    H     H_    0.241427 0.982003 0.768173 0.113397
H7    H     H_    0.365430 0.025325 0.634494 0.109531
H8    H     H_    0.284242 0.757715 0.540789 0.106166
C19   C     C_2   0.985688 0.709182 0.282846 -0.130008
C20   C     C_2   0.150774 0.682667 0.319400 -0.315424
H9    H     H_    0.849723 0.680699 0.303758 0.136418
H10   H     H_    0.288445 0.710462 0.300555 0.127002
C21   C     C_2   0.972903 0.776566 0.214862 -0.141498
C22   C     C_2   0.125943 0.814558 0.177129 -0.309742
H11   H     H_    0.828771 0.794852 0.195078 0.134081
H12   H     H_    0.271147 0.796849 0.195136 0.130281
C23   C     C_2   0.786936 0.215979 0.786147 0.319596
C24   C     C_2   0.620111 0.180049 0.816395 -0.341622
H13   H     H_    0.482385 0.198629 0.790447 0.090555
C25   C     C_2   0.792334 0.280594 0.715715 -0.213965
C26   C     C_2   0.637593 0.319654 0.681315 -0.355582
H14   H     H_    0.934543 0.298583 0.692753 0.143957
H15   H     H_    0.493332 0.305578 0.703397 0.130363
C27   C     C_2   0.776501 0.209302 0.214183 -0.123989
C28   C     C_2   0.615425 0.186824 0.172333 -0.281850
H16   H     H_    0.911575 0.176000 0.199067 0.134892
H17   H     H_    0.482661 0.223792 0.182684 0.168375
C29   C     C_2   0.783933 0.282798 0.277625 -0.166369
C30   C     C_2   0.636490 0.305192 0.328539 0.141964
H18   H     H_    0.920056 0.318959 0.283248 0.098571
O11   O     O_R   0.770210 0.079270 0.910680 -0.506803
O12   O     O_R   0.440150 0.091160 0.082270 -0.546514
O13   O     O_R   0.269970 0.914530 0.082860 -0.541569
C31   C     C_R   0.609159 0.114352 0.109354 0.716983
O14   O     O_R   0.440480 0.090100 0.911240 -0.555146
O15   O     O_R   0.270310 0.913460 0.910610 -0.536942
C32   C     C_R   0.610372 0.112547 0.883612 0.761761
O16   O     O_R   0.769870 0.080340 0.082930 -0.540066
O17   O     O_3   0.603660 0.938980 0.996790 -0.371939
V3    V     V_3+5 0.328750 0.007610 0.996740 1.406539
O18   O     O_R   0.940600 0.902510 0.911180 -0.538488
C33   C     C_R   0.109450 0.880703 0.882746 0.702230
O19   O     O_R   0.940270 0.903570 0.082200 -0.544476
C34   C     C_R   0.109330 0.881856 0.110367 0.733759
V4    V     V_3+5 0.828770 0.986010 0.996670 1.437246
O20   O     O_3   0.103730 0.054750 0.996710 -0.366713
N1    N     N_2   0.968050 0.191706 0.820877 -0.486615
H19   H     H_    0.073927 0.180333 0.777357 0.231624
C35   C     C_3   0.033029 0.252785 0.885259 -0.503609
H20   H     H_    0.168368 0.226634 0.912423 0.200156
H21   H     H_    0.922991 0.257927 0.934872 0.189556
H22   H     H_    0.061956 0.321164 0.859694 0.161945
N2    N     N_2   0.463155 0.252635 0.329311 -0.517614
H23   H     H_    0.339453 0.289696 0.339497 0.259002
C36   C     C_3   0.472054 0.173018 0.380530 -0.541148
H24   H     H_    0.335915 0.133727 0.374297 0.190204
H25   H     H_    0.490825 0.193162 0.446118 0.178565
H26   H     H_    0.593442 0.128697 0.361156 0.213153

loop_
_geom_bond_atom_site_label_1
_geom_bond_atom_site_label_2
_ccdc_geom_bond_type
C36   H25   S    
O19   C34   A    
C6    C7    A    
C1    O6    A    
C19   H9    S    
N1    H19   S    
O11   V4    S    
O16   V4    S    
C13   C14   A    
C31   O16   A    
C15   C16   A    
C30   N2    S    
O5    C3    A    
C17   C18   A    
C29   H18   S    
O14   V3    S    
O12   V3    S    
C5    C6    A    
O12   C31   A    
O8    V2    S    
O15   C33   A    
N2    H23   S    
O14   C32   A    
C25   H14   S    
O1    V2    S    
C10   C14   A    
C4    C14   S    
O7    V1    S    
C7    H4    S    
C20   H10   S    
C13   C18   A    
O9    C4    A    
H1    C17   S    
O19   V4    S    
C2    C30   S    
C22   H12   S    
C23   C25   S    
N1    C35   S    
C27   H16   S    
C1    C26   S    
C5    C10   A    
C11   C12   A    
C6    H3    S    
C19   C20   D    
C35   H21   S    
C19   C21   S    
C29   C30   D    
C36   H24   S    
C26   H15   S    
C3    C20   S    
O2    C1    A    
V4    O20   S    
C16   C17   A    
O11   C32   A    
C23   C24   D    
O13   V3    S    
C28   C31   S    
C25   C26   D    
C22   C34   S    
C21   H11   S    
O3    C4    A    
C24   H13   S    
N2    C36   S    
O6    V2    S    
C28   H17   S    
C21   C22   D    
V3    O20   S    
C9    C11   A    
C5    H2    S    
C23   N1    S    
O2    V1    S    
C11   C33   S    
O4    C2    A    
C27   C29   S    
C36   H26   S    
C27   C28   D    
O1    C2    A    
O5    V1    S    
C35   H22   S    
O8    C3    A    
C8    H5    S    
O13   C34   A    
C18   H8    S    
O9    V2    S    
C12   C13   A    
O4    V1    S    
O3    V1    S    
V1    O10   S    
O18   V4    S    
O15   V3    S    
O17   V4    S    
C24   C32   S    
O7    V2    S    
O17   V3    S    
C12   C15   A    
C35   H20   S    
O18   C33   A    
C7    C8    A    
C15   H6    S    
C16   H7    S    
C9    C10   A    
C8    C9    A    
V2    O10   S    
