data_mof_unit_50004.cif
_audit_creation_date              2012-12-10T16:54:53-0500
_audit_creation_method            fapswitch 2.2
_symmetry_space_group_name_H-M    P1
_symmetry_Int_Tables_number       1
_space_group_crystal_system       triclinic
_cell_length_a                    7.768997
_cell_length_b                    8.578615
_cell_length_c                    15.721076
_cell_angle_alpha                 90.837597
_cell_angle_beta                  85.844176
_cell_angle_gamma                 93.635177
_cell_volume                      1042.85583358

loop_
_atom_site_label
_atom_site_type_symbol
_atom_type_description
_atom_site_fract_x
_atom_site_fract_y
_atom_site_fract_z
_atom_type_partial_charge
C1    C     C_R   0.545784 0.794743 0.497831 0.960188
C2    C     C_2   0.430116 0.041792 0.503489 -0.375484
C3    C     C_R   0.502041 0.500036 0.661589 0.905645
C4    C     C_R   0.454218 0.205258 0.502209 0.961070
C5    C     C_R   0.498011 0.499983 0.338396 0.902544
C6    C     C_3   0.454767 0.661305 0.953337 -0.373605
C7    C     C_3   0.688936 0.462370 0.946306 -0.139250
C8    C     C_3   0.683786 0.466388 0.045177 -0.457174
C9    C     C_1   0.494239 0.500593 0.249635 -0.177801
C10   C     C_3   0.508303 0.500902 0.917106 0.248955
C11   C     C_2   0.838639 0.565336 0.906713 0.896049
C12   C     C_3   0.454636 0.662451 0.051439 -0.381373
C13   C     C_3   0.499923 0.500753 0.082682 0.336949
C14   C     C_3   0.367848 0.373785 0.051392 -0.400861
C15   C     C_3   0.372409 0.373971 0.953099 -0.412570
C16   C     C_1   0.494990 0.500829 0.174258 -0.109896
C17   C     C_1   0.508533 0.500268 0.825545 -0.095874
C18   C     C_1   0.506595 0.500000 0.750287 -0.139637
C19   C     C_2   0.569889 0.958210 0.496613 -0.375197
H1    H     H_    0.550416 0.754774 0.072132 0.184813
H2    H     H_    0.712461 0.340525 0.925079 0.137131
H3    H     H_    0.779561 0.556184 0.068570 0.188887
H4    H     H_    0.719772 0.351625 0.068371 0.161149
H5    H     H_    0.241841 0.396403 0.932955 0.214620
H6    H     H_    0.404347 0.256613 0.927716 0.177351
H7    H     H_    0.235157 0.396188 0.078477 0.177340
H8    H     H_    0.054977 0.578554 0.827316 0.341215
H9    H     H_    0.322824 0.683334 0.934813 0.180121
H10   H     H_    0.324983 0.691729 0.079779 0.171486
H11   H     H_    0.398620 0.256641 0.073425 0.173542
H12   H     H_    0.701904 0.009251 0.490060 0.181853
H13   H     H_    0.298101 0.990751 0.510051 0.182108
H14   H     H_    0.013475 0.381998 0.436562 0.191279
H15   H     H_    0.986523 0.617968 0.563460 0.198568
H16   H     H_    0.542582 0.758325 0.926412 0.208142
N1    N     N_2   0.950340 0.457950 0.477370 -0.171845
N2    N     N_2   0.049660 0.542050 0.522630 -0.167654
O1    O     O_R   0.389240 0.738570 0.505550 -0.614029
O2    O     O_R   0.959975 0.499594 0.849153 -0.817353
O3    O     O_R   0.678400 0.711630 0.491050 -0.631331
O4    O     O_R   0.355360 0.513470 0.630110 -0.608032
O5    O     O_R   0.644510 0.486530 0.615610 -0.612252
O6    O     O_R   0.321600 0.288370 0.508950 -0.628561
O7    O     O_R   0.610760 0.261430 0.494450 -0.613114
O8    O     O_R   0.355490 0.513470 0.384390 -0.624023
O9    O     O_R   0.644640 0.486530 0.369890 -0.613900
O10   O     O_2   0.854799 0.704170 0.925292 -0.649419
Zn1   Zn    Zn3+2 0.306930 0.517990 0.509680 0.955262
Zn2   Zn    Zn3+2 0.693070 0.482010 0.490320 0.953968

loop_
_geom_bond_atom_site_label_1
_geom_bond_atom_site_label_2
_ccdc_geom_bond_type
O7    Zn2   S    
C6    C10   S    
C7    C10   S    
C11   O2    S    
C3    O5    A    
C5    C9    S    
C8    C13   S    
C4    O6    A    
C12   H10   S    
H15   N2    S    
C4    O7    A    
C5    O9    A    
C11   O10   D    
O1    Zn1   S    
C19   H12   S    
C12   H1    S    
C17   C18   T    
C13   C16   S    
C7    C8    S    
C13   C14   S    
C14   H7    S    
N2    Zn1   S    
C7    C11   S    
C12   C13   S    
O9    Zn2   S    
C1    O1    A    
C14   H11   S    
C2    C4    S    
C15   H5    S    
O4    Zn1   S    
C10   C15   S    
C6    C12   S    
C6    H9    S    
C15   H6    S    
C1    C19   S    
C10   C17   S    
O3    Zn2   S    
C8    H4    S    
C6    H16   S    
C3    C18   S    
C2    H13   S    
O6    Zn1   S    
O8    Zn1   S    
H14   N1    S    
C14   C15   S    
N1    N2    D    
O5    Zn2   S    
C1    O3    A    
C2    C19   D    
C7    H2    S    
C5    O8    A    
C8    H3    S    
C9    C16   T    
C3    O4    A    
N1    Zn2   S    
H8    O2    S    
