data_mof_unit_5252.cif
_audit_creation_date              2012-12-10T17:33:58-0500
_audit_creation_method            fapswitch 2.2
_symmetry_space_group_name_H-M    P1
_symmetry_Int_Tables_number       1
_space_group_crystal_system       triclinic
_cell_length_a                    10.649346
_cell_length_b                    11.974992
_cell_length_c                    12.786741
_cell_angle_alpha                 94.553318
_cell_angle_beta                  90.291574
_cell_angle_gamma                 86.426067
_cell_volume                      1622.33203234

loop_
_atom_site_label
_atom_site_type_symbol
_atom_type_description
_atom_site_fract_x
_atom_site_fract_y
_atom_site_fract_z
_atom_type_partial_charge
C1    C     C_R   0.497175 0.523281 0.700635 0.965989
C2    C     C_R   0.531100 0.456513 0.975027 0.112579
C3    C     C_R   0.441613 0.535576 0.025135 -0.027789
C4    C     C_R   0.742239 0.500714 0.503046 0.936153
C5    C     C_R   0.425841 0.535063 0.132797 -0.191438
C6    C     C_R   0.574345 0.373457 0.137723 -0.288830
C7    C     C_R   0.592896 0.373126 0.031077 -0.129960
C8    C     C_R   0.390838 0.951479 0.395306 -0.344428
C9    C     C_R   0.399841 0.835759 0.406513 0.036358
C10   C     C_R   0.546532 0.859833 0.545614 -0.024742
C11   C     C_R   0.540232 0.976770 0.537593 0.086711
C12   C     C_3   0.122528 0.498953 0.508513 -0.066323
C13   C     C_R   0.461433 0.022970 0.461165 0.089735
C14   C     C_R   0.455239 0.139896 0.453110 -0.085848
C15   C     C_R   0.600285 0.164191 0.593337 0.029215
C16   C     C_R   0.498544 0.476471 0.299664 0.903829
C17   C     C_R   0.610335 0.048335 0.603782 -0.356974
C18   C     C_R   0.258360 0.500389 0.506323 0.969914
C19   C     C_3   0.935001 0.386386 0.544619 0.278917
C20   C     C_3   0.079676 0.384764 0.546118 -0.194892
C21   C     C_3   0.929146 0.511130 0.391564 -0.413880
C22   C     C_3   0.921394 0.599104 0.583559 0.289206
C23   C     C_3   0.074140 0.516088 0.394789 0.201641
C24   C     C_3   0.879007 0.500999 0.506067 0.000577
C25   C     C_R   0.865889 0.605803 0.331624 0.176617
C26   C     C_R   0.787513 0.578184 0.245600 -0.115213
C27   C     C_R   0.725455 0.662063 0.191083 -0.123598
C28   C     C_R   0.740549 0.774861 0.221447 -0.129124
C29   C     C_R   0.820815 0.803941 0.304357 -0.146377
C30   C     C_R   0.884532 0.720354 0.358113 -0.150829
C31   C     C_R   0.283630 0.700304 0.021755 0.103751
C32   C     C_R   0.318937 0.809168 0.051848 -0.143913
C33   C     C_R   0.234378 0.886254 0.106807 -0.155565
C34   C     C_3   0.066190 0.600252 0.581035 -0.549035
C35   C     C_R   0.114466 0.855004 0.131845 -0.126449
C36   C     C_R   0.078848 0.746733 0.101665 -0.125763
C37   C     C_R   0.163071 0.669445 0.046863 -0.156069
C38   C     C_R   0.142134 0.345544 0.647420 0.173712
C39   C     C_R   0.222494 0.246881 0.641095 -0.133894
C40   C     C_R   0.288235 0.212596 0.729038 -0.108843
C41   C     C_R   0.273064 0.274678 0.825547 -0.100255
C42   C     C_R   0.189767 0.369476 0.834682 -0.182052
C43   C     C_R   0.123739 0.404117 0.746891 -0.080885
C44   C     C_R   0.496467 0.458491 0.188265 -0.030823
C45   C     C_R   0.489587 0.539383 0.812889 -0.227192
C46   C     C_R   0.375289 0.616740 0.968191 -0.129376
C47   C     C_R   0.397137 0.616341 0.859637 0.347476
C48   C     C_R   0.561283 0.463894 0.871055 0.285193
H1    H     H_    0.907686 0.317157 0.486528 0.050467
H2    H     H_    0.671784 0.015210 0.663210 0.150958
H3    H     H_    0.345661 0.780459 0.355578 0.135087
H4    H     H_    0.607145 0.822450 0.603296 0.125593
H5    H     H_    0.110218 0.319187 0.483520 0.092488
H6    H     H_    0.907448 0.431043 0.346762 0.140362
H7    H     H_    0.879492 0.680237 0.559289 0.096979
H8    H     H_    0.108175 0.602591 0.660464 0.210667
H9    H     H_    0.774012 0.491376 0.220719 0.111376
H10   H     H_    0.665673 0.639618 0.125108 0.145208
H11   H     H_    0.691857 0.839655 0.179517 0.126409
H12   H     H_    0.091218 0.680490 0.550579 0.158192
H13   H     H_    0.835002 0.891436 0.326236 0.126398
H14   H     H_    0.949745 0.746312 0.418710 0.092821
H15   H     H_    0.412116 0.833657 0.033809 0.132157
H16   H     H_    0.261981 0.970025 0.130375 0.127943
H17   H     H_    0.049234 0.914577 0.174683 0.123742
H18   H     H_    0.986241 0.722397 0.120973 0.159558
H19   H     H_    0.134962 0.585477 0.025037 0.138139
H20   H     H_    0.257478 0.726814 0.835431 0.338670
H21   H     H_    0.698258 0.434321 0.770822 0.386935
H22   H     H_    0.892956 0.284967 0.649198 0.322873
H23   H     H_    0.100145 0.600523 0.375297 0.165262
H24   H     H_    0.236083 0.196937 0.567334 0.119322
H25   H     H_    0.351247 0.137887 0.722149 0.142189
H26   H     H_    0.324435 0.248463 0.893583 0.139298
H27   H     H_    0.175745 0.415855 0.910199 0.140737
H28   H     H_    0.056854 0.474909 0.758643 0.208570
H29   H     H_    0.103043 0.364645 0.322756 0.328067
H30   H     H_    0.891470 0.659935 0.727387 0.319773
H31   H     H_    0.363765 0.597495 0.175720 0.170141
H32   H     H_    0.627920 0.312994 0.181616 0.155165
H33   H     H_    0.658886 0.310004 0.993703 0.194233
H34   H     H_    0.395039 0.177216 0.395121 0.131132
H35   H     H_    0.653756 0.219580 0.644701 0.175776
H36   H     H_    0.329347 0.984616 0.335917 0.141602
N1    N     N_R   0.523380 0.207800 0.519350 -0.103960
N2    N     N_R   0.476620 0.792180 0.480650 -0.099090
O1    O     O_R   0.506240 0.421700 0.658830 -0.610059
O2    O     O_3   0.660560 0.395795 0.827622 -0.762264
O3    O     O_3   0.885389 0.367277 0.643088 -0.707167
O4    O     O_3   0.134502 0.440161 0.318031 -0.776025
O5    O     O_3   0.878587 0.587923 0.685810 -0.740056
O6    O     O_R   0.491240 0.609310 0.646410 -0.573066
O7    O     O_R   0.692710 0.406190 0.506230 -0.624789
O8    O     O_R   0.677700 0.593810 0.493810 -0.631854
O9    O     O_R   0.508760 0.390690 0.353590 -0.626248
O10   O     O_R   0.493760 0.578300 0.341170 -0.625013
O11   O     O_R   0.322300 0.406190 0.506190 -0.624286
O12   O     O_R   0.307290 0.593810 0.493770 -0.634695
O13   O     O_3   0.328003 0.685921 0.796044 -0.766653
Zn1   Zn    Zn3+2 0.510020 0.374730 0.508290 0.957622
Zn2   Zn    Zn3+2 0.489980 0.625270 0.491710 0.976100

loop_
_geom_bond_atom_site_label_1
_geom_bond_atom_site_label_2
_ccdc_geom_bond_type
C1    O1    A    
C34   H8    S    
C8    C13   A    
C41   C42   A    
C35   C36   A    
C9    H3    S    
C10   H4    S    
C12   C23   S    
C42   H27   S    
C28   C29   A    
C38   C39   A    
C4    C24   S    
C36   H18   S    
C45   C48   A    
C35   H17   S    
C25   C30   A    
C47   O13   S    
C40   H25   S    
C41   H26   S    
C10   N2    A    
C2    C7    A    
O8    Zn2   S    
C8    C9    A    
C31   C46   S    
C22   O5    S    
C48   O2    S    
C18   O11   A    
C5    H31   S    
C16   C44   S    
C15   N1    A    
C6    C44   A    
C13   C14   A    
C34   H12   S    
C45   C47   A    
C22   C34   S    
C29   H13   S    
H29   O4    S    
C16   O10   A    
C23   H23   S    
C32   H15   S    
C39   C40   A    
O9    Zn1   S    
C15   H35   S    
C2    C48   A    
C25   C26   A    
C31   C37   A    
C29   C30   A    
C19   O3    S    
C9    N2    A    
C20   C38   S    
C19   H1    S    
C6    H32   S    
C31   C32   A    
C39   H24   S    
C12   C20   S    
C26   C27   A    
C23   O4    S    
O7    Zn1   S    
C22   H7    S    
H21   O2    S    
O6    Zn2   S    
C4    O8    A    
C40   C41   A    
C7    H33   S    
C5    C44   A    
C1    O6    A    
C30   H14   S    
C22   C24   S    
H22   O3    S    
C42   C43   A    
C14   H34   S    
C12   C34   S    
O11   Zn1   S    
O1    Zn1   S    
C28   H11   S    
C43   H28   S    
C15   C17   A    
C21   C25   S    
C46   C47   A    
C36   C37   A    
C16   O9    A    
C8    H36   S    
C14   N1    A    
C20   H5    S    
C3    C5    A    
C27   H10   S    
C11   C17   A    
C17   H2    S    
C6    C7    A    
H30   O5    S    
O12   Zn2   S    
C3    C46   A    
C32   C33   A    
C19   C20   S    
C21   C23   S    
C2    C3    A    
H20   O13   S    
C38   C43   A    
N1    Zn1   S    
C11   C13   A    
C1    C45   S    
C21   H6    S    
C33   H16   S    
C37   H19   S    
C33   C35   A    
C19   C24   S    
C26   H9    S    
C10   C11   A    
C4    O7    A    
C21   C24   S    
C12   C18   S    
C27   C28   A    
C18   O12   A    
O10   Zn2   S    
N2    Zn2   S    
