data_mof_unit_11860.cif
_audit_creation_date              2012-12-10T16:55:04-0500
_audit_creation_method            fapswitch 2.2
_symmetry_space_group_name_H-M    P1
_symmetry_Int_Tables_number       1
_space_group_crystal_system       triclinic
_cell_length_a                    9.700192
_cell_length_b                    10.886591
_cell_length_c                    15.404299
_cell_angle_alpha                 90.342272
_cell_angle_beta                  73.706392
_cell_angle_gamma                 90.98975
_cell_volume                      1561.15628514

loop_
_atom_site_label
_atom_site_type_symbol
_atom_type_description
_atom_site_fract_x
_atom_site_fract_y
_atom_site_fract_z
_atom_type_partial_charge
C1    C     C_R   0.999700 0.265139 0.497650 0.840959
C2    C     C_R   0.661754 0.451785 0.902976 0.061371
C3    C     C_R   0.750108 0.389458 0.947660 0.043425
C4    C     C_R   0.510506 0.461290 0.945034 -0.028069
C5    C     C_R   0.456755 0.431677 0.038758 -0.007506
C6    C     C_R   0.543877 0.361243 0.079857 0.250144
C7    C     C_R   0.687723 0.341647 0.034098 -0.309144
C8    C     C_R   0.408906 0.493088 0.897188 0.242971
C9    C     C_R   0.264670 0.508848 0.944287 -0.224601
C10   C     C_R   0.218929 0.503371 0.037884 0.067487
C11   C     C_R   0.315317 0.468751 0.086558 0.082754
C12   C     C_R   0.916685 0.497997 0.672550 0.815659
C13   C     C_R   0.077162 0.533608 0.083070 -0.270893
C14   C     C_R   0.029396 0.534302 0.177430 0.255000
C15   C     C_R   0.269255 0.478466 0.181391 -0.258679
C16   C     C_2   0.901830 0.930649 0.473530 -0.181850
C17   C     C_2   0.012788 0.866719 0.484049 -0.401848
C18   C     C_2   0.912451 0.064696 0.458216 0.312899
C19   C     C_2   0.995726 0.132136 0.498408 -0.398098
C20   C     C_2   0.445958 0.431242 0.449111 0.041789
C21   C     C_2   0.604120 0.447204 0.439441 -0.038913
C22   C     C_R   0.002675 0.734836 0.496696 0.862123
C23   C     C_R   0.082993 0.502913 0.327331 0.797548
C24   C     C_R   0.869441 0.476733 0.770701 -0.136186
C25   C     C_R   0.126746 0.506036 0.227493 -0.109929
C26   C     C_R   0.898115 0.371561 0.902695 0.264391
C27   C     C_R   0.954852 0.412842 0.813810 -0.222850
C28   C     C_R   0.728735 0.504392 0.818161 -0.206706
Cu1   Cu    Cu3+1 0.138640 0.500020 0.499980 0.933549
Cu2   Cu    Cu3+1 0.861360 0.499980 0.500020 0.951249
H1    H     H_    0.748678 0.284946 0.066809 0.150424
H2    H     H_    0.003440 0.558913 0.044926 0.141140
H3    H     H_    0.802130 0.883259 0.474417 0.176948
H4    H     H_    0.116642 0.910171 0.477887 0.149369
H5    H     H_    0.058038 0.089647 0.538224 0.129787
H6    H     H_    0.414211 0.360639 0.408252 0.107114
H7    H     H_    0.679728 0.410654 0.379428 0.148303
H8    H     H_    0.580999 0.510527 0.563493 0.235888
H9    H     H_    0.344903 0.468698 0.220462 0.196554
H10   H     H_    0.188025 0.529420 0.907186 0.166341
H11   H     H_    0.065115 0.392329 0.777864 0.166507
H12   H     H_    0.674601 0.568723 0.787042 0.199686
N1    N     N_2   0.346430 0.498660 0.500980 -0.081722
N2    N     N_2   0.652550 0.498630 0.501000 -0.271602
O1    O     O_R   0.117050 0.321960 0.499980 -0.584095
O2    O     O_R   0.882890 0.321920 0.500020 -0.551536
O3    O     O_R   0.052910 0.500040 0.629810 -0.586510
O4    O     O_R   0.818750 0.499990 0.629840 -0.571145
O5    O     O_R   0.117110 0.678080 0.499980 -0.576886
O6    O     O_R   0.882950 0.678040 0.500020 -0.573274
O7    O     O_R   0.181250 0.500010 0.370160 -0.593096
O8    O     O_R   0.947090 0.499960 0.370190 -0.548637
N3    N     N_2   0.834508 0.122424 0.403135 -0.394309
H13   H     H_    0.889511 0.193053 0.362981 0.249096
C29   C     C_3   0.750327 0.046821 0.358668 -0.732259
H14   H     H_    0.700187 0.105988 0.317843 0.218577
H15   H     H_    0.662297 0.998603 0.409519 0.230302
H16   H     H_    0.819976 0.979506 0.312856 0.227453
N4    N     N_2   0.389292 0.609241 0.530499 -0.344408
H17   H     H_    0.315017 0.641239 0.587513 0.266410
C30   C     C_3   0.437112 0.702899 0.461119 -0.581014
H18   H     H_    0.551632 0.726432 0.453611 0.203490
H19   H     H_    0.373646 0.787713 0.480814 0.193251
H20   H     H_    0.425862 0.671259 0.394623 0.226316
N5    N     N_2   0.884830 0.566972 0.220801 -0.417547
H21   H     H_    0.812796 0.538103 0.186433 0.237340
C31   C     C_3   0.866781 0.694969 0.246784 -0.661677
H22   H     H_    0.753240 0.710506 0.285416 0.216876
H23   H     H_    0.894207 0.754351 0.185684 0.208492
H24   H     H_    0.936104 0.721217 0.290576 0.232949
N6    N     N_2   0.991579 0.309730 0.943983 -0.442871
H25   H     H_    0.975556 0.326189 0.011929 0.249012
C32   C     C_3   0.013374 0.181695 0.919512 -0.697566
H26   H     H_    0.093559 0.143335 0.950681 0.226752
H27   H     H_    0.054895 0.171571 0.844934 0.235148
H28   H     H_    0.910793 0.128961 0.944277 0.224578
N7    N     N_2   0.484904 0.297087 0.162790 -0.450691
H29   H     H_    0.557176 0.281034 0.199318 0.237053
C33   C     C_3   0.400466 0.188726 0.155343 -0.686133
H30   H     H_    0.352724 0.148900 0.223595 0.220489
H31   H     H_    0.469626 0.118947 0.111852 0.224457
H32   H     H_    0.311550 0.212209 0.126353 0.241580
N8    N     N_2   0.445518 0.495386 0.801081 -0.433925
H33   H     H_    0.413627 0.417306 0.773230 0.262929
C34   C     C_3   0.412408 0.608136 0.761990 -0.741230
H34   H     H_    0.483406 0.618115 0.692289 0.236381
H35   H     H_    0.431795 0.689493 0.801236 0.236192
H36   H     H_    0.298887 0.606390 0.759793 0.220904

loop_
_geom_bond_atom_site_label_1
_geom_bond_atom_site_label_2
_ccdc_geom_bond_type
C29   H14   S    
C8    N8    S    
C32   H26   S    
C13   H2    S    
C24   C27   A    
C12   O4    A    
Cu1   O5    S    
N7    H29   S    
C26   C27   A    
Cu1   O3    S    
Cu2   O4    S    
C5    C11   A    
C3    C7    A    
C5    C6    A    
C1    O2    A    
C15   C25   A    
C18   C19   D    
C4    C8    A    
C30   H19   S    
C18   N3    S    
C11   C15   A    
C8    C9    A    
N5    C31   S    
C9    C10   A    
N1    N4    S    
C22   O6    A    
N3    C29   S    
Cu2   O6    S    
N4    H17   S    
C13   C14   A    
Cu1   N1    S    
C26   N6    S    
C32   H27   S    
Cu2   N2    S    
C12   O3    A    
N7    C33   S    
N4    C30   S    
C7    H1    S    
C34   H35   S    
C31   H22   S    
C33   H31   S    
C16   C17   D    
C6    N7    S    
C34   H34   S    
C1    C19   S    
C9    H10   S    
Cu1   O1    S    
C31   H23   S    
C30   H20   S    
C2    C4    A    
H8    N2    S    
Cu1   Cu2   S    
C16   H3    S    
C21   N2    D    
C27   H11   S    
C23   O7    A    
N8    H33   S    
C15   H9    S    
C22   O5    A    
N8    C34   S    
C29   H15   S    
C32   H28   S    
C17   H4    S    
C20   N1    D    
N6    C32   S    
Cu1   O7    S    
C34   H36   S    
Cu2   O8    S    
Cu2   O2    S    
C3    C26   A    
C24   C28   A    
C4    C5    A    
C10   C13   A    
C33   H32   S    
N3    H13   S    
C6    C7    A    
C12   C24   S    
C17   C22   S    
C31   H24   S    
C2    C3    A    
N6    H25   S    
C19   H5    S    
C1    O1    A    
C23   O8    A    
C28   H12   S    
C14   N5    S    
C23   C25   S    
C14   C25   A    
C30   H18   S    
C10   C11   A    
C33   H30   S    
C20   H6    S    
C21   H7    S    
C20   C21   S    
C16   C18   S    
N5    H21   S    
C29   H16   S    
C2    C28   A    
