data_mof_unit_34728.cif
_audit_creation_date              2012-12-11T16:29:25-0500
_audit_creation_method            fapswitch 2.2
_symmetry_space_group_name_H-M    P1
_symmetry_Int_Tables_number       1
_space_group_crystal_system       triclinic
_cell_length_a                    6.953136
_cell_length_b                    17.36376
_cell_length_c                    18.728619
_cell_angle_alpha                 106.30544
_cell_angle_beta                  89.730733
_cell_angle_gamma                 90.511462
_cell_volume                      2170.11573299

loop_
_atom_site_label
_atom_site_type_symbol
_atom_type_description
_atom_site_fract_x
_atom_site_fract_y
_atom_site_fract_z
_atom_type_partial_charge
O1    O     O_R   0.494360 0.415680 0.413760 -0.532812
O2    O     O_R   0.818810 0.432910 0.557230 -0.526531
O3    O     O_R   0.994290 0.584320 0.586240 -0.533855
C1    C     C_R   0.649809 0.415983 0.580636 0.711106
O4    O     O_R   0.823740 0.406440 0.412520 -0.534519
O5    O     O_R   0.999250 0.557660 0.440500 -0.524188
C2    C     C_R   0.654703 0.383871 0.384738 0.696189
O6    O     O_R   0.489400 0.442340 0.559500 -0.523441
O7    O     O_3   0.662500 0.549650 0.509350 -0.359752
V1    V     V_3+5 0.935340 0.490790 0.498270 1.424536
O8    O     O_R   0.329270 0.567090 0.442770 -0.525333
C3    C     C_R   0.161173 0.583977 0.419318 0.711122
O9    O     O_R   0.324340 0.593560 0.587480 -0.535218
C4    C     C_R   0.155457 0.616357 0.615112 0.695207
V2    V     V_3+5 0.435970 0.509210 0.501730 1.424713
O10   O     O_3   0.158940 0.450350 0.490650 -0.357638
H1    H     H_    0.839460 0.845667 0.561566 0.143796
C5    C     C_R   0.309908 0.605335 0.755350 -0.141743
C6    C     C_R   0.383878 0.597716 0.821993 -0.122349
C7    C     C_R   0.370640 0.660958 0.886462 -0.121587
C8    C     C_R   0.283600 0.732358 0.884774 -0.131680
C9    C     C_R   0.209668 0.742477 0.817678 0.070487
C10   C     C_R   0.222812 0.677510 0.751547 0.068104
C11   C     C_R   0.119819 0.815075 0.816137 -0.184934
C12   C     C_R   0.042691 0.822510 0.748360 0.069294
C13   C     C_R   0.055855 0.757544 0.682226 0.068884
C14   C     C_R   0.145590 0.684927 0.683782 -0.186334
C15   C     C_R   0.955727 0.894705 0.744543 -0.146414
C16   C     C_R   0.882008 0.902363 0.677873 -0.113238
C17   C     C_R   0.895301 0.839129 0.613397 -0.101482
C18   C     C_R   0.982115 0.767691 0.615111 -0.133958
H2    H     H_    0.320686 0.553664 0.707253 0.109091
H3    H     H_    0.450346 0.542118 0.823714 0.116689
H4    H     H_    0.426695 0.654458 0.938272 0.114527
H5    H     H_    0.273487 0.778956 0.936878 0.101398
H6    H     H_    0.944916 0.946367 0.792648 0.110718
H7    H     H_    0.815695 0.957986 0.676134 0.129646
H8    H     H_    0.992260 0.721088 0.563010 0.109521
C19   C     C_1   0.112252 0.863320 0.132074 -0.147553
C20   C     C_1   0.120107 0.820424 0.175344 0.101028
C21   C     C_1   0.129423 0.770165 0.227198 0.037900
C22   C     C_1   0.137199 0.728059 0.271167 0.018306
C23   C     C_1   0.146251 0.678116 0.323309 0.015927
C24   C     C_1   0.153483 0.635760 0.367077 -0.211227
C25   C     C_1   0.641190 0.364053 0.632665 -0.214822
C26   C     C_1   0.637034 0.321455 0.676235 0.003922
C27   C     C_1   0.633746 0.271194 0.728113 0.004190
C28   C     C_1   0.631322 0.228851 0.771921 0.002118
C29   C     C_1   0.628033 0.178598 0.823807 -0.000802
C30   C     C_1   0.623879 0.136010 0.867385 -0.218119
H9    H     H_    0.836903 0.135146 0.439917 0.166665
C31   C     C_R   0.533091 0.406134 0.244273 -0.144404
C32   C     C_R   0.474351 0.418988 0.177564 -0.119684
C33   C     C_R   0.464440 0.355295 0.113253 -0.117367
C34   C     C_R   0.512803 0.278215 0.115168 -0.137499
C35   C     C_R   0.570795 0.263027 0.182268 0.070393
C36   C     C_R   0.581590 0.328398 0.248191 0.064665
C37   C     C_R   0.620934 0.184595 0.184128 -0.153234
C38   C     C_R   0.681035 0.171579 0.252141 -0.000110
C39   C     C_R   0.692296 0.237013 0.317946 0.078288
C40   C     C_R   0.643329 0.315491 0.315985 -0.161320
C41   C     C_R   0.726516 0.093654 0.256396 -0.231660
C42   C     C_R   0.781740 0.080411 0.323640 0.529200
C43   C     C_R   0.793692 0.144752 0.387621 -0.179927
C44   C     C_R   0.748823 0.221908 0.385164 -0.222763
H10   H     H_    0.541046 0.457958 0.292421 0.105569
H11   H     H_    0.437518 0.478839 0.175696 0.117184
H12   H     H_    0.420032 0.365708 0.061441 0.115281
H13   H     H_    0.505245 0.231014 0.063350 0.100055
H14   H     H_    0.718048 0.042345 0.207833 0.152199
H15   H     H_    0.757393 0.269280 0.436839 0.130661
O11   O     O_R   0.775690 0.057750 0.940570 -0.525398
O12   O     O_R   0.441200 0.093570 0.087490 -0.532447
O13   O     O_R   0.265840 0.942320 0.059480 -0.523392
C45   C     C_R   0.610134 0.116260 0.115272 0.701864
O14   O     O_R   0.446270 0.067110 0.942790 -0.527801
O15   O     O_R   0.270950 0.915660 0.913750 -0.534429
C46   C     C_R   0.615270 0.084076 0.919412 0.705886
O16   O     O_R   0.770580 0.084400 0.086300 -0.533054
O17   O     O_3   0.602640 0.950400 0.990690 -0.359502
V3    V     V_3+5 0.329740 0.009200 0.001730 1.436305
O18   O     O_R   0.940900 0.906360 0.912450 -0.537883
C47   C     C_R   0.109829 0.883620 0.884826 0.688356
O19   O     O_R   0.935830 0.932820 0.057160 -0.520610
C48   C     C_R   0.104028 0.915756 0.080443 0.714381
V4    V     V_3+5 0.829130 0.990680 0.998180 1.438396
O20   O     O_3   0.106100 0.049590 0.009310 -0.360408
S1    S     S_3+6 0.838233 0.983254 0.328159 -0.011862
O21   O     O_2   0.758601 0.971047 0.398998 -0.334020
O22   O     O_2   0.754969 0.920982 0.262677 -0.343499
O23   O     O_3   0.078922 0.974612 0.327815 -0.502228
H16   H     H_    0.103328 0.927122 0.345786 0.370266

loop_
_geom_bond_atom_site_label_1
_geom_bond_atom_site_label_2
_ccdc_geom_bond_type
C34   C35   A    
C42   S1    S    
C21   C22   T    
C6    C7    A    
C1    O6    A    
C32   C33   A    
C12   C15   A    
C13   C14   A    
C16   C17   A    
C15   C16   A    
C11   C47   S    
O19   V4    S    
O5    C3    A    
C17   C18   A    
C33   H12   S    
O15   C47   A    
V2    O10   S    
C35   C36   A    
C41   H14   S    
C5    C6    A    
C2    C40   S    
O11   C46   A    
C33   C34   A    
O8    V2    S    
O17   V4    S    
O1    V2    S    
C10   C14   A    
C4    C14   S    
O7    V1    S    
C7    H4    S    
C38   C39   A    
C8    C9    A    
H1    C17   S    
O12   C45   A    
C30   C46   S    
O12   V3    S    
C37   C45   S    
C1    C25   S    
C5    C10   A    
C11   C12   A    
C6    H3    S    
O23   H16   S    
O4    C2    A    
V4    O20   S    
C37   C38   A    
O18   V4    S    
C39   C40   A    
O2    C1    A    
C23   C24   T    
C41   C42   A    
C27   C28   T    
S1    O23   S    
O15   V3    S    
C7    C8    A    
V3    O20   S    
O19   C48   A    
C34   H13   S    
O3    C4    A    
C20   C21   S    
S1    O22   D    
C39   C44   A    
O18   C47   A    
O6    V2    S    
O9    V2    S    
C9    C11   A    
C5    H2    S    
C22   C23   S    
C19   C48   S    
O13   V3    S    
O2    V1    S    
C19   C20   T    
C31   H10   S    
C31   C32   A    
C26   C27   S    
C28   C29   S    
C38   C41   A    
O1    C2    A    
H9    C43   S    
O14   C46   A    
O17   V3    S    
O14   V3    S    
O5    V1    S    
O11   V4    S    
O8    C3    A    
C36   C40   A    
C8    H5    S    
C18   H8    S    
C43   C44   A    
C12   C13   A    
O4    V1    S    
C3    C24   S    
O3    V1    S    
C44   H15   S    
C35   C37   A    
O13   C48   A    
O7    V2    S    
C32   H11   S    
C31   C36   A    
C42   C43   A    
C25   C26   T    
C13   C18   A    
S1    O21   D    
C15   H6    S    
C29   C30   T    
C16   H7    S    
C9    C10   A    
V1    O10   S    
O9    C4    A    
C45   O16   A    
O16   V4    S    
