data_mof_unit_9744.cif
_audit_creation_date              2012-12-10T20:34:14-0500
_audit_creation_method            fapswitch 2.2
_symmetry_space_group_name_H-M    P1
_symmetry_Int_Tables_number       1
_space_group_crystal_system       triclinic
_cell_length_a                    9.944708
_cell_length_b                    10.79175
_cell_length_c                    13.624561
_cell_angle_alpha                 90.556311
_cell_angle_beta                  84.545021
_cell_angle_gamma                 89.765536
_cell_volume                      1455.48973599

loop_
_atom_site_label
_atom_site_type_symbol
_atom_type_description
_atom_site_fract_x
_atom_site_fract_y
_atom_site_fract_z
_atom_type_partial_charge
C1    C     C_R   0.499588 0.739437 0.500510 0.896977
C2    C     C_3   0.229144 0.937304 0.511290 0.610524
C3    C     C_R   0.919171 0.557544 0.574102 0.158804
C4    C     C_R   0.477249 0.500876 0.685185 0.907119
C5    C     C_R   0.935518 0.453821 0.423011 -0.126632
C6    C     C_R   0.078274 0.451773 0.421543 0.492820
C7    C     C_R   0.059934 0.548782 0.577433 0.171407
C8    C     C_3   0.041443 0.507027 0.683303 0.220395
C9    C     C_3   0.891237 0.532653 0.681077 -0.415410
C10   C     C_R   0.500556 0.260736 0.499580 0.915839
C11   C     C_R   0.522811 0.498983 0.314876 0.922944
C12   C     C_1   0.461833 0.500625 0.788328 -0.055578
C13   C     C_1   0.538670 0.488218 0.212100 -0.078809
C14   C     C_2   0.559936 0.467802 0.021650 0.411679
C15   C     C_2   0.448478 0.495913 0.979283 -0.250661
C16   C     C_1   0.451273 0.499161 0.875696 0.134687
C17   C     C_1   0.551688 0.477590 0.125109 -0.061243
C18   C     C_R   0.381050 0.939527 0.504980 0.027539
C19   C     C_R   0.500164 0.871002 0.500805 -0.089423
C20   C     C_R   0.624121 0.934847 0.495905 -0.150866
C21   C     C_R   0.625296 0.063670 0.495112 -0.164811
C22   C     C_R   0.502569 0.129466 0.498666 -0.049400
C23   C     C_R   0.383590 0.063620 0.502347 -0.006754
C24   C     C_3   0.234824 0.079678 0.508421 -0.496891
H1    H     H_    0.721601 0.110769 0.491796 0.202139
H2    H     H_    0.719965 0.886172 0.492637 0.212413
H3    H     H_    0.196283 0.127304 0.577391 0.279445
H4    H     H_    0.946710 0.938492 0.604956 0.377697
H5    H     H_    0.253065 0.995071 0.290018 0.370625
H6    H     H_    0.885519 0.415980 0.362493 0.200168
H7    H     H_    0.200133 0.121186 0.441136 0.252009
H8    H     H_    0.354897 0.521080 0.022979 0.191979
H9    H     H_    0.325799 0.260759 0.264586 0.370945
H10   H     H_    0.234547 0.230498 0.738939 0.395033
H11   H     H_    0.089960 0.568186 0.735491 0.169796
H12   H     H_    0.824562 0.451443 0.696624 0.274004
H13   H     H_    0.856844 0.618145 0.722357 0.231101
H14   H     H_    0.849739 0.446857 0.072483 0.372181
N1    N     N_R   0.857130 0.500860 0.500650 -0.134971
N2    N     N_R   0.142770 0.500820 0.500650 -0.142101
O1    O     O_R   0.385310 0.683210 0.499990 -0.557676
O2    O     O_2   0.207411 0.486080 0.242674 -0.265875
O3    O     O_3   0.289634 0.290401 0.330968 -0.578412
O4    O     O_2   0.998856 0.311364 0.801985 -0.169769
O5    O     O_2   0.003025 0.270434 0.624855 -0.332968
O6    O     O_3   0.231208 0.306669 0.699270 -0.559296
O7    O     O_2   0.696620 0.330874 0.879673 -0.224482
O8    O     O_2   0.776434 0.541635 0.906326 -0.309523
O9    O     O_3   0.823958 0.373569 0.034261 -0.449694
O10   O     O_2   0.214953 0.760828 0.652368 -0.308894
O11   O     O_2   0.164151 0.971597 0.708782 -0.271456
O12   O     O_R   0.614650 0.683240 0.500000 -0.621763
O13   O     O_3   0.984683 0.855603 0.616951 -0.521682
O14   O     O_2   0.149686 0.735784 0.411301 -0.242817
O15   O     O_2   0.026141 0.928567 0.392858 -0.293219
O16   O     O_3   0.267576 0.905979 0.302487 -0.514828
O17   O     O_R   0.368820 0.499950 0.640340 -0.565237
O18   O     O_R   0.598170 0.499990 0.640350 -0.625212
O19   O     O_R   0.385350 0.316760 0.500000 -0.541286
O20   O     O_R   0.614690 0.316790 0.500010 -0.632431
O21   O     O_R   0.401830 0.500010 0.359650 -0.518962
O22   O     O_R   0.631180 0.500050 0.359660 -0.634419
O23   O     O_2   0.060480 0.306817 0.261243 -0.292494
S1    S     S_3+6 0.159885 0.383890 0.311537 0.054429
S2    S     S_3+6 0.066822 0.343860 0.702339 0.056693
S3    S     S_3+6 0.716901 0.428308 0.956372 0.087398
S4    S     S_3+6 0.149810 0.880166 0.626498 0.063394
S5    S     S_3+6 0.163134 0.873611 0.403394 0.075999
Zn1   Zn    Zn3+2 0.346870 0.499980 0.499990 1.139899
Zn2   Zn    Zn3+2 0.653130 0.500020 0.500010 1.007867

loop_
_geom_bond_atom_site_label_1
_geom_bond_atom_site_label_2
_ccdc_geom_bond_type
C4    O17   A    
C9    H12   S    
C10   O20   A    
C7    N2    A    
C11   O21   A    
H10   O6    S    
H5    O16   S    
O20   Zn2   S    
C2    C18   S    
O10   S4    D    
O7    S3    D    
C2    S5    S    
C19   C20   A    
C24   H3    S    
C13   C17   T    
C23   C24   S    
C11   O22   A    
O21   Zn1   S    
C9    H13   S    
C10   O19   A    
C14   S3    S    
C24   H7    S    
C3    N1    A    
C8    S2    S    
H14   O9    S    
O11   S4    D    
C21   C22   A    
C10   C22   S    
H4    O13   S    
O5    S2    D    
C11   C13   S    
C14   C17   S    
O4    S2    D    
C20   H2    S    
O19   Zn1   S    
C18   C23   A    
C3    C9    S    
C15   C16   S    
C1    O1    A    
N1    Zn2   S    
O17   Zn1   S    
O3    S1    S    
O15   S5    D    
C3    C7    A    
C5    N1    A    
C2    C24   S    
C5    C6    A    
O13   S4    S    
C1    O12   A    
C6    N2    A    
C1    C19   S    
C4    C12   S    
O9    S3    S    
C6    S1    S    
O23   S1    D    
H9    O3    S    
O2    S1    D    
C7    C8    S    
O12   Zn2   S    
C20   C21   A    
O22   Zn2   S    
O6    S2    S    
O1    Zn1   S    
C18   C19   A    
N2    Zn1   S    
O16   S5    S    
C4    O18   A    
C21   H1    S    
C14   C15   D    
O18   Zn2   S    
O14   S5    D    
O8    S3    D    
C22   C23   A    
C12   C16   T    
C5    H6    S    
C8    C9    S    
C2    S4    S    
C8    H11   S    
C15   H8    S    
