data_mof_unit_46934.cif
_audit_creation_date              2012-12-10T17:40:27-0500
_audit_creation_method            fapswitch 2.2
_symmetry_space_group_name_H-M    P1
_symmetry_Int_Tables_number       1
_space_group_crystal_system       triclinic
_cell_length_a                    13.692336
_cell_length_b                    15.07267
_cell_length_c                    15.675363
_cell_angle_alpha                 90.007399
_cell_angle_beta                  70.370764
_cell_angle_gamma                 90.207483
_cell_volume                      3047.05732259

loop_
_atom_site_label
_atom_site_type_symbol
_atom_type_description
_atom_site_fract_x
_atom_site_fract_y
_atom_site_fract_z
_atom_type_partial_charge
C1    C     C_R   0.500236 0.671481 0.499749 0.815280
C2    C     C_R   0.499689 0.328552 0.500430 0.818131
C3    C     C_R   0.372379 0.426077 0.096812 0.246200
C4    C     C_R   0.622677 0.419466 0.905595 0.252848
C5    C     C_R   0.301700 0.429910 0.050062 -0.292827
C6    C     C_R   0.693695 0.422049 0.952059 -0.291529
C7    C     C_R   0.423111 0.185334 0.478070 -0.225860
C8    C     C_R   0.576641 0.814785 0.522521 -0.224585
C9    C     C_R   0.499269 0.231869 0.501047 -0.090317
C10   C     C_R   0.500383 0.768235 0.499661 -0.092798
C11   C     C_R   0.575413 0.186105 0.524446 -0.233398
C12   C     C_R   0.423684 0.814063 0.477097 -0.233025
C13   C     C_R   0.577491 0.093361 0.523741 0.085551
C14   C     C_R   0.421509 0.906810 0.477994 0.085426
C15   C     C_R   0.499930 0.046607 0.500740 0.005307
C16   C     C_R   0.499260 0.953548 0.500727 0.005283
C17   C     C_R   0.422818 0.092977 0.477837 0.088231
C18   C     C_R   0.576556 0.907169 0.523349 0.087406
C19   C     C_R   0.654479 0.046339 0.546384 0.251674
C20   C     C_R   0.344246 0.953855 0.455754 0.251503
C21   C     C_R   0.652776 0.953535 0.546505 -0.284945
C22   C     C_R   0.346326 0.046640 0.455086 -0.286477
C23   C     C_R   0.437317 0.498292 0.672871 0.803628
C24   C     C_R   0.562638 0.498481 0.327137 0.801626
C25   C     C_R   0.226550 0.560942 0.448880 0.015652
C26   C     C_R   0.773684 0.438528 0.550493 0.012951
C27   C     C_R   0.186924 0.438862 0.550809 -0.003070
C28   C     C_R   0.813208 0.560888 0.448909 -0.002420
C29   C     C_R   0.083582 0.436943 0.551496 -0.002000
C30   C     C_R   0.916756 0.562346 0.447686 -0.004963
C31   C     C_R   0.051996 0.499622 0.499555 0.087061
C32   C     C_R   0.948369 0.499570 0.499524 0.088610
C33   C     C_R   0.123975 0.562377 0.447673 -0.008615
C34   C     C_R   0.876447 0.436686 0.551241 -0.003907
C35   C     C_R   0.011441 0.374029 0.602521 -0.211073
C36   C     C_R   0.989136 0.624785 0.396062 -0.210650
C37   C     C_R   0.908924 0.373711 0.602148 -0.224369
C38   C     C_R   0.091807 0.624802 0.396054 -0.211097
C39   C     C_R   0.400135 0.485861 0.771745 -0.079863
C40   C     C_R   0.599353 0.485627 0.228387 -0.080086
C41   C     C_R   0.262050 0.456224 0.913063 -0.182032
C42   C     C_R   0.735301 0.449725 0.087933 -0.181528
C43   C     C_R   0.294487 0.474178 0.820491 -0.194137
C44   C     C_R   0.704142 0.469830 0.179967 -0.193030
C45   C     C_R   0.472483 0.478724 0.816672 -0.196978
C46   C     C_R   0.526690 0.481274 0.183536 -0.196155
C47   C     C_R   0.442403 0.452685 0.907993 0.082071
C48   C     C_R   0.554834 0.452766 0.093158 0.081066
C49   C     C_R   0.335093 0.446481 0.957319 0.117248
C50   C     C_R   0.661590 0.441802 0.044073 0.116227
C51   C     C_R   0.515817 0.437863 0.952723 -0.023273
C52   C     C_R   0.480371 0.439604 0.049068 -0.024084
Cu1   Cu    Cu3+1 0.402580 0.500010 0.499990 0.938926
Cu2   Cu    Cu3+1 0.597420 0.499990 0.500010 0.938198
H1    H     H_    0.219753 0.420344 0.086831 0.140574
H2    H     H_    0.774864 0.408750 0.915670 0.140555
H3    H     H_    0.282922 0.608474 0.408982 0.126683
H4    H     H_    0.717351 0.390919 0.590240 0.136164
H5    H     H_    0.212311 0.391404 0.590721 0.126381
H6    H     H_    0.787796 0.608447 0.409112 0.127762
H7    H     H_    0.034320 0.324976 0.642601 0.136121
H8    H     H_    0.966347 0.673647 0.355740 0.137329
H9    H     H_    0.855145 0.324153 0.641616 0.144509
H10   H     H_    0.145989 0.673702 0.355771 0.142812
H11   H     H_    0.448467 0.502193 0.219764 0.186729
H12   H     H_    0.552045 0.495982 0.779888 0.189308
H13   H     H_    0.761865 0.472701 0.213144 0.154605
H14   H     H_    0.236983 0.479065 0.787250 0.153241
H15   H     H_    0.179818 0.449446 0.950009 0.130309
H16   H     H_    0.816970 0.439429 0.051206 0.130366
H17   H     H_    0.364337 0.221000 0.459794 0.149925
H18   H     H_    0.635749 0.779107 0.540292 0.152802
H19   H     H_    0.632456 0.223251 0.543895 0.182138
H20   H     H_    0.366360 0.776978 0.457987 0.184282
H21   H     H_    0.711933 0.917619 0.563949 0.143734
H22   H     H_    0.287140 0.082575 0.437696 0.141949
N1    N     N_R   0.256170 0.500070 0.500040 -0.180680
N2    N     N_R   0.743830 0.499930 0.499960 -0.182772
O1    O     O_R   0.417730 0.629750 0.499970 -0.589456
O2    O     O_R   0.582270 0.370250 0.500030 -0.589798
O3    O     O_R   0.582270 0.629730 0.499980 -0.588054
O4    O     O_R   0.417730 0.370270 0.500020 -0.588023
O5    O     O_R   0.371590 0.500020 0.629830 -0.581242
O6    O     O_R   0.628410 0.499980 0.370170 -0.581877
O7    O     O_R   0.536130 0.499990 0.629840 -0.580260
O8    O     O_R   0.463870 0.500010 0.370160 -0.579563
N3    N     N_2   0.334333 0.400229 0.189741 -0.443367
H23   H     H_    0.257557 0.415649 0.223136 0.251839
C53   C     C_3   0.358852 0.310144 0.206983 -0.670925
H24   H     H_    0.331290 0.297816 0.281157 0.223969
H25   H     H_    0.443903 0.299016 0.180466 0.240909
H26   H     H_    0.319947 0.262450 0.174690 0.220425
N4    N     N_2   0.658598 0.389807 0.813942 -0.451007
H27   H     H_    0.736096 0.402180 0.779848 0.249498
C54   C     C_3   0.628880 0.299898 0.801059 -0.690706
H28   H     H_    0.655298 0.284318 0.727591 0.219106
H29   H     H_    0.543284 0.291878 0.828312 0.245214
H30   H     H_    0.665318 0.252364 0.835395 0.226106
N5    N     N_2   0.732877 0.091731 0.570427 -0.446557
H31   H     H_    0.754557 0.059430 0.619250 0.251169
C55   C     C_3   0.821729 0.118232 0.493963 -0.717479
H32   H     H_    0.863461 0.058717 0.458041 0.228235
H33   H     H_    0.875468 0.158149 0.518255 0.229353
H34   H     H_    0.797464 0.159540 0.445956 0.240409
N6    N     N_2   0.265048 0.908508 0.432831 -0.444477
H35   H     H_    0.242629 0.940729 0.384380 0.250722
C56   C     C_3   0.176872 0.882409 0.510085 -0.713344
H36   H     H_    0.135791 0.942112 0.546153 0.227333
H37   H     H_    0.201823 0.841132 0.557704 0.240388
H38   H     H_    0.122312 0.842597 0.486693 0.229618

loop_
_geom_bond_atom_site_label_1
_geom_bond_atom_site_label_2
_ccdc_geom_bond_type
N3    H23   S    
C42   C44   A    
N4    H27   S    
C12   H20   S    
C27   C29   A    
C34   C37   A    
C56   H37   S    
C54   H28   S    
C22   H22   S    
Cu2   O6    S    
C54   H30   S    
C47   C49   A    
Cu1   Cu2   S    
C40   C46   A    
N6    C56   S    
C26   N2    A    
C23   O5    A    
C25   N1    A    
Cu1   O1    S    
C7    H17   S    
C1    O3    A    
C15   C16   A    
C18   C21   A    
C42   H16   S    
C15   C17   A    
C45   C47   A    
C26   C34   A    
C31   C32   A    
C43   H14   S    
C7    C17   A    
C56   H36   S    
C31   C33   A    
Cu1   O8    S    
C53   H25   S    
C28   N2    A    
C38   H10   S    
C39   C45   A    
C48   C50   A    
N4    C54   S    
C41   C43   A    
C5    C49   A    
C25   H3    S    
C36   H8    S    
C41   C49   A    
C37   H9    S    
Cu2   O2    S    
C28   H6    S    
C46   C48   A    
C8    H18   S    
C13   C19   A    
C4    C51   A    
C3    N3    S    
C51   C52   A    
C55   H32   S    
C14   C20   A    
C46   H11   S    
C4    C6    A    
C11   H19   S    
C19   N5    S    
C39   C43   A    
C27   N1    A    
C8    C18   A    
Cu1   O4    S    
C32   C34   A    
Cu1   N1    S    
C26   H4    S    
N5    H31   S    
C40   C44   A    
C35   H7    S    
C6    C50   A    
C53   H26   S    
C9    C11   A    
C10   C12   A    
C42   C50   A    
C16   C18   A    
N5    C55   S    
C12   C14   A    
C55   H34   S    
C13   C15   A    
C1    O1    A    
C56   H38   S    
C14   C16   A    
C2    O4    A    
C20   C22   A    
C35   C37   A    
C41   H15   S    
C20   N6    S    
C55   H33   S    
C7    C9    A    
C29   C35   A    
C19   C21   A    
C5    H1    S    
C1    C10   S    
C33   C38   A    
C6    H2    S    
C3    C5    A    
Cu2   O7    S    
C47   C51   A    
C3    C52   A    
C54   H29   S    
N6    H35   S    
C21   H21   S    
C17   C22   A    
C30   C36   A    
Cu1   O5    S    
C36   C38   A    
C24   O6    A    
C29   C31   A    
C27   H5    S    
C30   C32   A    
C11   C13   A    
C23   C39   S    
C28   C30   A    
C24   C40   S    
C2    O2    A    
C4    N4    S    
C48   C52   A    
C8    C10   A    
C23   O7    A    
C45   H12   S    
N3    C53   S    
C44   H13   S    
C53   H24   S    
C2    C9    S    
C24   O8    A    
Cu2   O3    S    
C25   C33   A    
Cu2   N2    S    
