data_mof_unit_48972.cif
_audit_creation_date              2012-12-10T19:45:03-0500
_audit_creation_method            fapswitch 2.2
_symmetry_space_group_name_H-M    P1
_symmetry_Int_Tables_number       1
_space_group_crystal_system       triclinic
_cell_length_a                    14.986784
_cell_length_b                    10.889493
_cell_length_c                    13.751024
_cell_angle_alpha                 91.254066
_cell_angle_beta                  91.529426
_cell_angle_gamma                 88.630419
_cell_volume                      2242.19888161

loop_
_atom_site_label
_atom_site_type_symbol
_atom_type_description
_atom_site_fract_x
_atom_site_fract_y
_atom_site_fract_z
_atom_type_partial_charge
C1    C     C_R   0.498291 0.262231 0.498444 0.812666
C2    C     C_R   0.486379 0.894384 0.689402 0.034300
C3    C     C_R   0.562731 0.081260 0.245431 -0.154849
C4    C     C_R   0.405896 0.912711 0.738242 -0.146906
C5    C     C_R   0.553862 0.108888 0.146943 -0.207002
C6    C     C_R   0.402832 0.895451 0.838307 -0.195226
C7    C     C_R   0.475136 0.164096 0.110752 -0.209712
C8    C     C_R   0.479800 0.859016 0.890421 -0.225691
C9    C     C_R   0.498808 0.930322 0.413858 -0.173260
C10   C     C_R   0.493236 0.070097 0.584991 -0.169662
C11   C     C_R   0.497887 0.871840 0.503473 -0.091165
C12   C     C_R   0.499264 0.737915 0.501364 0.813074
C13   C     C_R   0.495345 0.128532 0.495631 -0.095731
C14   C     C_R   0.493497 0.943229 0.590486 0.015580
C15   C     C_R   0.496185 0.057406 0.408133 0.014421
C16   C     C_R   0.328913 0.499997 0.498935 0.814056
C17   C     C_R   0.671194 0.499426 0.501121 0.815561
C18   C     C_R   0.562685 0.429823 0.794688 0.530604
C19   C     C_R   0.436850 0.569303 0.205245 0.534899
C20   C     C_R   0.435495 0.564747 0.792616 -0.037462
C21   C     C_R   0.563749 0.433795 0.207389 -0.026666
C22   C     C_R   0.432813 0.563480 0.895129 0.006200
C23   C     C_R   0.048127 0.300557 0.410948 0.286979
C24   C     C_R   0.565850 0.433884 0.104832 -0.003848
C25   C     C_R   0.499374 0.498230 0.948224 0.088359
C26   C     C_R   0.499631 0.499816 0.051752 0.087468
C27   C     C_R   0.565112 0.430397 0.897950 -0.045944
C28   C     C_R   0.433705 0.567332 0.102002 -0.031483
C29   C     C_R   0.365427 0.626855 0.945589 -0.165271
C30   C     C_R   0.631797 0.367714 0.054281 -0.163487
C31   C     C_R   0.366317 0.630133 0.047481 -0.093923
C32   C     C_R   0.631294 0.365256 0.952434 -0.086567
C33   C     C_R   0.813394 0.586631 0.556966 -0.081378
C34   C     C_R   0.954178 0.679264 0.612246 0.291929
C35   C     C_R   0.187219 0.408005 0.447602 -0.083318
C36   C     C_R   0.767799 0.497239 0.503592 -0.098474
C37   C     C_R   0.232546 0.500905 0.497084 -0.079923
C38   C     C_R   0.813522 0.406137 0.451585 -0.080988
C39   C     C_R   0.186711 0.592080 0.548778 -0.096247
C40   C     C_R   0.906947 0.404430 0.449168 -0.011618
C41   C     C_R   0.093309 0.595829 0.548051 -0.017192
C42   C     C_R   0.953661 0.496658 0.503044 -0.033261
C43   C     C_R   0.046943 0.497928 0.501310 -0.032742
C44   C     C_R   0.906922 0.587525 0.558797 -0.025990
C45   C     C_R   0.405230 0.193795 0.173347 0.454895
C46   C     C_R   0.094294 0.401054 0.453179 -0.019488
C47   C     C_R   0.954394 0.310785 0.397201 0.304775
C48   C     C_R   0.046025 0.692682 0.595689 0.316397
C49   C     C_R   0.559898 0.836477 0.842177 0.451660
C50   C     C_R   0.413433 0.164019 0.272015 -0.139197
C51   C     C_R   0.563300 0.855115 0.741672 -0.136196
C52   C     C_R   0.492360 0.107643 0.308667 0.050289
Cl1   Cl    Cl    0.638865 0.332598 0.732256 -0.561922
Cl2   Cl    Cl    0.361028 0.667240 0.267522 -0.572794
Cu1   Cu    Cu3+1 0.500010 0.499980 0.597420 1.021351
Cu2   Cu    Cu3+1 0.499990 0.500020 0.402580 1.025473
H1    H     H_    0.774341 0.658207 0.592760 0.189658
H2    H     H_    0.683717 0.312314 0.917374 0.213513
H3    H     H_    0.774609 0.334721 0.416625 0.186801
H4    H     H_    0.225331 0.658750 0.590132 0.175176
H5    H     H_    0.469095 0.184356 0.034097 0.185813
H6    H     H_    0.476485 0.847524 0.968206 0.192230
H7    H     H_    0.357917 0.181851 0.319619 0.162254
H8    H     H_    0.626198 0.843781 0.705050 0.190766
H9    H     H_    0.623363 0.035697 0.271952 0.180104
H10   H     H_    0.346589 0.946040 0.699495 0.171761
H11   H     H_    0.607796 0.086436 0.098355 0.197701
H12   H     H_    0.225648 0.341126 0.405927 0.196552
H13   H     H_    0.341030 0.912347 0.875853 0.202222
H14   H     H_    0.771809 0.236459 0.230420 0.350460
H15   H     H_    0.220221 0.909932 0.565814 0.360815
H16   H     H_    0.235824 0.088808 0.441589 0.362407
H17   H     H_    0.940589 0.877136 0.832247 0.389350
H18   H     H_    0.210669 0.399085 0.180895 0.399629
H19   H     H_    0.790650 0.856389 0.926031 0.396261
H20   H     H_    0.500015 0.876774 0.346440 0.199074
H21   H     H_    0.491108 0.123533 0.652462 0.195889
H22   H     H_    0.385777 0.617329 0.751640 0.159606
H23   H     H_    0.613144 0.380695 0.248399 0.160140
H24   H     H_    0.312570 0.675738 0.906213 0.168736
H25   H     H_    0.683441 0.316478 0.093444 0.164709
H26   H     H_    0.313169 0.681589 0.082560 0.207017
N1    N     N_R   0.499960 0.499900 0.743810 -0.221552
N2    N     N_R   0.500040 0.500100 0.256190 -0.221254
O1    O     O_R   0.500000 0.319630 0.582270 -0.546460
O2    O     O_2   0.854544 0.112480 0.362632 -0.264539
O3    O     O_3   0.818141 0.296389 0.249466 -0.556384
O4    O     O_2   0.033249 0.940430 0.627094 -0.136492
O5    O     O_2   0.150465 0.825922 0.717392 -0.296403
O6    O     O_3   0.171235 0.863816 0.533337 -0.500442
O7    O     O_2   0.045053 0.050992 0.398207 -0.125132
O8    O     O_2   0.144973 0.156400 0.290823 -0.220639
O9    O     O_3   0.189445 0.139906 0.474232 -0.547169
O10   O     O_2   0.848203 0.870722 0.664143 -0.244173
O11   O     O_2   0.838698 0.683613 0.758734 -0.237704
O12   O     O_R   0.500000 0.680370 0.417730 -0.546327
O13   O     O_3   0.975181 0.818939 0.790712 -0.430291
O14   O     O_2   0.323113 0.326982 0.034212 -0.304799
O15   O     O_2   0.238308 0.165814 0.108657 -0.198053
O16   O     O_3   0.267072 0.365960 0.210221 -0.532338
O17   O     O_2   0.639760 0.788560 0.014912 -0.304957
O18   O     O_2   0.683948 0.662306 0.873520 -0.245728
O19   O     O_3   0.738979 0.886566 0.886177 -0.479305
O20   O     O_R   0.499990 0.319660 0.417730 -0.597801
O21   O     O_R   0.500010 0.680340 0.582270 -0.595724
O22   O     O_R   0.370260 0.499960 0.582280 -0.600422
O23   O     O_R   0.629740 0.500040 0.417720 -0.589955
O24   O     O_R   0.370250 0.499990 0.417740 -0.511537
O25   O     O_R   0.629750 0.500010 0.582260 -0.515429
O26   O     O_2   0.960041 0.160012 0.236189 -0.154495
S1    S     S_3+6 0.897462 0.214304 0.309986 0.067105
S2    S     S_3+6 0.099651 0.835038 0.621924 0.087632
S3    S     S_3+6 0.106300 0.157422 0.390510 0.102164
S4    S     S_3+6 0.900884 0.765178 0.707434 0.080371
S5    S     S_3+6 0.306136 0.263443 0.127643 0.025660
S6    S     S_3+6 0.656672 0.789315 0.907636 0.027574

loop_
_geom_bond_atom_site_label_1
_geom_bond_atom_site_label_2
_ccdc_geom_bond_type
C6    H13   S    
C30   C32   A    
Cu1   Cu2   S    
C22   C29   A    
C40   C47   A    
C32   H2    S    
C5    H11   S    
O10   S4    D    
C39   C41   A    
H17   O13   S    
C29   H24   S    
O5    S2    D    
C31   H26   S    
Cu1   O21   S    
C7    C45   A    
C35   C37   A    
C24   C26   A    
C17   O23   A    
O15   S5    D    
C12   O21   A    
C11   C14   A    
O3    S1    S    
O11   S4    D    
C33   C36   A    
O26   S1    D    
C7    H5    S    
C18   Cl1   S    
Cu2   O24   S    
C49   C51   A    
C22   C25   A    
C50   C52   A    
C9    H20   S    
O6    S2    S    
O8    S3    D    
C16   O22   A    
C16   C37   S    
C40   C42   A    
C23   C46   A    
Cu1   O25   S    
H19   O19   S    
C50   H7    S    
C41   C43   A    
C3    H9    S    
O16   S5    S    
C42   C44   A    
H14   O3    S    
C10   H21   S    
Cu2   N2    S    
C1    O1    A    
C34   S4    S    
C23   C47   A    
C18   C27   A    
Cu1   O22   S    
C34   C44   A    
Cu2   O20   S    
C4    C6    A    
C10   C14   A    
C5    C7    A    
C6    C8    A    
C25   C26   A    
O7    S3    D    
Cu1   O1    S    
C2    C4    A    
Cu2   O23   S    
C23   S3    S    
C45   S5    S    
C21   N2    A    
C3    C52   A    
C21   H23   S    
C18   N1    A    
O9    S3    S    
C15   C52   S    
C19   C28   A    
C9    C11   A    
C1    O20   A    
H16   O9    S    
C19   Cl2   S    
C17   C36   S    
C20   C22   A    
C13   C15   A    
C21   C24   A    
C1    C13   S    
C42   C43   A    
Cu1   N1    S    
C19   N2    A    
Cu2   O12   S    
C33   H1    S    
C48   S2    S    
C27   C32   A    
C33   C44   A    
C28   C31   A    
C51   H8    S    
C3    C5    A    
C10   C13   A    
C17   O25   A    
H18   O16   S    
C11   C12   S    
C25   C27   A    
C26   C28   A    
C20   H22   S    
C30   H25   S    
C36   C38   A    
O19   S6    S    
C9    C15   A    
C37   C39   A    
C38   C40   A    
O14   S5    D    
H15   O6    S    
C35   H12   S    
C47   S1    S    
C39   H4    S    
C41   C48   A    
O2    S1    D    
C2    C14   S    
C43   C46   A    
C24   C30   A    
O18   S6    D    
C2    C51   A    
C16   O24   A    
C38   H3    S    
O4    S2    D    
C49   S6    S    
C34   C48   A    
C4    H10   S    
C29   C31   A    
C20   N1    A    
O17   S6    D    
C12   O12   A    
C45   C50   A    
O13   S4    S    
C35   C46   A    
C8    C49   A    
C8    H6    S    
