data_mof_unit_41764.cif
_audit_creation_date              2012-12-11T14:17:50-0500
_audit_creation_method            fapswitch 2.2
_symmetry_space_group_name_H-M    P1
_symmetry_Int_Tables_number       1
_space_group_crystal_system       triclinic
_cell_length_a                    6.94292
_cell_length_b                    13.640467
_cell_length_c                    20.420913
_cell_angle_alpha                 102.065113
_cell_angle_beta                  91.243803
_cell_angle_gamma                 90.340665
_cell_volume                      1890.68179809

loop_
_atom_site_label
_atom_site_type_symbol
_atom_type_description
_atom_site_fract_x
_atom_site_fract_y
_atom_site_fract_z
_atom_type_partial_charge
O1    O     O_R   0.506860 0.599390 0.449240 -0.536530
O2    O     O_R   0.180220 0.594600 0.586780 -0.541385
O3    O     O_R   0.004500 0.400610 0.550760 -0.543461
C1    C     C_R   0.350694 0.613024 0.614261 0.730956
O4    O     O_R   0.177490 0.611290 0.451970 -0.540986
O5    O     O_R   0.001750 0.417420 0.414990 -0.541668
C2    C     C_R   0.345258 0.637974 0.435192 0.713603
O6    O     O_R   0.509610 0.582580 0.585010 -0.541037
O7    O     O_3   0.337420 0.436370 0.488020 -0.376655
V1    V     V_3+5 0.064680 0.511800 0.502220 1.449559
O8    O     O_R   0.671710 0.405400 0.413220 -0.542916
C3    C     C_R   0.838129 0.384876 0.386242 0.767538
O9    O     O_R   0.674440 0.388710 0.548030 -0.544101
C4    C     C_R   0.844384 0.361966 0.564714 0.685777
V2    V     V_3+5 0.564010 0.488200 0.497780 1.449603
O10   O     O_3   0.841140 0.563630 0.511980 -0.368228
C5    C     C_R   0.950674 0.118471 0.615096 -0.119821
H1    H     H_    0.943898 0.168519 0.522266 0.105200
H2    H     H_    0.007652 0.998065 0.699857 0.180738
H3    H     H_    0.997172 0.044020 0.591388 0.128864
C6    C     C_R   0.858911 0.285124 0.604814 -0.032190
C7    C     C_R   0.797214 0.310557 0.926817 -0.121151
C8    C     C_R   0.767449 0.384569 0.890341 -0.121177
C9    C     C_R   0.790670 0.363731 0.821243 -0.150840
C10   C     C_R   0.846453 0.267295 0.786613 0.093360
C11   C     C_R   0.882316 0.192482 0.824724 0.027607
C12   C     C_R   0.866738 0.242463 0.715549 0.073823
C13   C     C_R   0.926143 0.144357 0.684614 0.103638
C14   C     C_R   0.962518 0.072942 0.723168 -0.040951
C15   C     C_R   0.941032 0.096396 0.792031 -0.124744
C16   C     C_R   0.831340 0.311640 0.673886 -0.205808
C17   C     C_R   0.919332 0.188824 0.575587 -0.170238
C18   C     C_R   0.854839 0.214875 0.894837 -0.079615
H4    H     H_    0.787024 0.387473 0.693440 0.090672
H5    H     H_    0.774043 0.327738 0.980303 0.130298
H6    H     H_    0.763373 0.424910 0.796619 0.103195
H7    H     H_    0.723594 0.458590 0.915725 0.118399
H8    H     H_    0.970102 0.037978 0.819416 0.138670
C19   C     C_2   0.001930 0.296675 0.284614 -0.257581
C20   C     C_2   0.837743 0.322016 0.317616 -0.356969
H9    H     H_    0.137863 0.321254 0.310269 0.188022
H10   H     H_    0.698883 0.301773 0.292995 0.188223
C21   C     C_2   0.013040 0.243558 0.213024 0.430952
C22   C     C_2   0.869254 0.181427 0.181709 -0.365483
H11   H     H_    0.739894 0.173019 0.208877 0.149311
C23   C     C_2   0.237650 0.758804 0.792179 -0.258392
C24   C     C_2   0.351520 0.840532 0.813659 0.299610
H12   H     H_    0.151374 0.731479 0.828523 0.096215
C25   C     C_2   0.216229 0.702943 0.721650 -0.047081
C26   C     C_2   0.368807 0.673740 0.683107 -0.223492
H13   H     H_    0.072333 0.677802 0.703556 0.140076
H14   H     H_    0.513214 0.691633 0.703787 0.175272
C27   C     C_R   0.309589 0.887664 0.386504 -0.157840
H15   H     H_    0.302686 0.837269 0.479135 0.129525
H16   H     H_    0.288812 0.011851 0.302744 0.135003
H17   H     H_    0.286429 0.965065 0.410958 0.116727
C28   C     C_R   0.349655 0.715176 0.395242 -0.040235
C29   C     C_R   0.393005 0.685657 0.072288 -0.181181
C30   C     C_R   0.407763 0.610369 0.108485 -0.088516
C31   C     C_R   0.396357 0.633054 0.178017 -0.148494
C32   C     C_R   0.366786 0.732594 0.213426 0.068969
C33   C     C_R   0.349964 0.809429 0.175829 0.060635
C34   C     C_R   0.354795 0.758520 0.284772 0.075526
C35   C     C_R   0.325652 0.860331 0.316651 0.137094
C36   C     C_R   0.310761 0.934135 0.278709 -0.198396
C37   C     C_R   0.322815 0.909311 0.209492 -0.197638
C38   C     C_R   0.368255 0.686914 0.325793 -0.216636
C39   C     C_R   0.319641 0.815322 0.425452 -0.159876
C40   C     C_R   0.364277 0.784893 0.105156 -0.077256
H18   H     H_    0.387892 0.608221 0.305504 0.103688
H19   H     H_    0.406491 0.666695 0.018347 0.101449
H20   H     H_    0.413246 0.570955 0.202419 0.132062
H21   H     H_    0.430953 0.533775 0.082521 0.150080
H22   H     H_    0.310123 0.969467 0.182543 0.155275
O11   O     O_R   0.203230 0.917310 0.915020 -0.552646
O12   O     O_R   0.535500 0.888690 0.048040 -0.546432
O13   O     O_R   0.711080 0.082610 0.085000 -0.524568
C41   C     C_R   0.367924 0.862411 0.065147 0.675870
O14   O     O_R   0.532630 0.905370 0.913230 -0.544544
O15   O     O_R   0.708190 0.099410 0.949230 -0.549877
C42   C     C_R   0.362480 0.888347 0.885523 0.599613
O16   O     O_R   0.206120 0.900510 0.050790 -0.548471
O17   O     O_3   0.375360 0.063570 0.011990 -0.330267
V3    V     V_3+5 0.648170 0.988200 0.997780 1.507092
O18   O     O_R   0.038240 0.111390 0.951940 -0.528636
C43   C     C_R   0.868470 0.137535 0.934857 0.681544
O19   O     O_R   0.041120 0.094710 0.086750 -0.494098
C44   C     C_R   0.874677 0.117488 0.113121 0.809056
V4    V     V_3+5 0.148810 0.011930 0.002180 1.582896
O20   O     O_3   0.871750 0.936430 0.988010 -0.392954
S1    S     S_3+6 0.227318 0.266987 0.172417 -0.008476
O21   O     O_2   0.354945 0.176977 0.165090 -0.334868
O22   O     O_2   0.180330 0.287287 0.104288 -0.338365
O23   O     O_3   0.347585 0.366472 0.217945 -0.516865
H23   H     H_    0.255378 0.422474 0.222453 0.314749
S2    S     S_3+6 0.468014 0.905817 0.758511 -0.014161
O24   O     O_2   0.672432 0.870890 0.749114 -0.363744
O25   O     O_2   0.365774 0.889065 0.691415 -0.318965
O26   O     O_3   0.468386 0.029538 0.791572 -0.499687
H24   H     H_    0.565150 0.039160 0.828623 0.330164

loop_
_geom_bond_atom_site_label_1
_geom_bond_atom_site_label_2
_ccdc_geom_bond_type
O19   C44   A    
O15   V3    S    
O12   V3    S    
C19   H9    S    
O18   C43   A    
C7    H5    S    
C6    C16   A    
C23   C25   S    
C9    H6    S    
O16   V4    S    
C4    C6    S    
C13   C14   A    
O12   C41   A    
O5    C3    A    
O14   V3    S    
C27   C35   A    
C29   H19   S    
H15   C39   S    
C31   H20   S    
V2    O10   S    
C37   H22   S    
S2    O26   S    
C5    H3    S    
C15   H8    S    
C32   C34   A    
C27   C39   A    
O15   C43   A    
O8    V2    S    
O17   V3    S    
O13   C44   A    
C25   H13   S    
S2    O25   D    
C26   H14   S    
C8    C9    A    
O1    V2    S    
O7    V1    S    
C30   H21   S    
C1    O6    A    
C20   H10   S    
C30   C31   A    
O9    C4    A    
C40   C41   S    
O23   H23   S    
V3    O20   S    
C28   C38   A    
H16   C36   S    
C23   H12   S    
O17   V4    S    
C6    C17   A    
C34   C38   A    
C33   C37   A    
C12   C16   A    
C9    C10   A    
S1    O21   D    
O14   C42   A    
O18   V4    S    
O11   C42   A    
C19   C21   S    
O13   V3    S    
C29   C30   A    
C8    H7    S    
C21   S1    S    
C33   C40   A    
C1    C26   S    
C31   C32   A    
C3    C20   S    
O2    C1    A    
C21   C22   D    
C14   C15   A    
S1    O22   D    
C41   O16   A    
C11   C18   A    
O26   H24   S    
C24   S2    S    
S2    O24   D    
C16   H4    S    
O3    C4    A    
C11   C15   A    
O6    V2    S    
O9    V2    S    
H1    C17   S    
C28   C39   A    
O2    V1    S    
C19   C20   D    
C22   H11   S    
O4    C2    A    
C27   H17   S    
C7    C18   A    
C23   C24   D    
O1    C2    A    
C5    C13   A    
O5    V1    S    
O8    C3    A    
C29   C40   A    
C10   C12   A    
C38   H18   S    
C35   C36   A    
O19   V4    S    
C10   C11   A    
O4    V1    S    
C36   C37   A    
O3    V1    S    
V1    O10   S    
S1    O23   S    
C24   C42   S    
O7    V2    S    
C32   C33   A    
O11   V4    S    
C34   C35   A    
C25   C26   D    
C12   C13   A    
C5    C17   A    
C7    C8    A    
V4    O20   S    
C22   C44   S    
C2    C28   S    
C18   C43   S    
H2    C14   S    
