data_mof_unit_40999.cif
_audit_creation_date              2012-12-11T16:44:25-0500
_audit_creation_method            fapswitch 2.2
_symmetry_space_group_name_H-M    P1
_symmetry_Int_Tables_number       1
_space_group_crystal_system       triclinic
_cell_length_a                    27.131818
_cell_length_b                    7.207841
_cell_length_c                    22.818678
_cell_angle_alpha                 90.049329
_cell_angle_beta                  101.444171
_cell_angle_gamma                 89.961538
_cell_volume                      4373.7398096

loop_
_atom_site_label
_atom_site_type_symbol
_atom_type_description
_atom_site_fract_x
_atom_site_fract_y
_atom_site_fract_z
_atom_type_partial_charge
O1    O     O_R   0.707300 0.594030 0.176840 -0.531239
O2    O     O_R   0.292700 0.405970 0.823160 -0.531048
O3    O     O_R   0.792700 0.094030 0.323160 -0.530374
O4    O     O_R   0.207300 0.905970 0.676840 -0.529590
O5    O     O_R   0.697330 0.262360 0.295660 -0.542534
O6    O     O_R   0.302670 0.737640 0.704340 -0.542920
O7    O     O_R   0.802670 0.762360 0.204340 -0.541747
O8    O     O_R   0.197330 0.237640 0.795660 -0.533329
C1    C     C_R   0.684767 0.432529 0.311723 0.688831
C2    C     C_R   0.315233 0.567470 0.688277 0.686501
C3    C     C_R   0.815119 0.932216 0.188240 0.686653
C4    C     C_R   0.185074 0.067807 0.811673 0.682257
O9    O     O_R   0.701410 0.264250 0.175600 -0.531803
O10   O     O_R   0.298590 0.735750 0.824400 -0.534631
O11   O     O_R   0.798590 0.764250 0.324400 -0.531749
O12   O     O_R   0.201410 0.235750 0.675600 -0.532927
O13   O     O_R   0.796800 0.094950 0.202240 -0.534710
O14   O     O_R   0.203200 0.905050 0.797760 -0.533514
O15   O     O_R   0.703200 0.594950 0.297760 -0.537947
O16   O     O_R   0.296800 0.405050 0.702240 -0.538829
C5    C     C_R   0.689881 0.432572 0.153381 0.676667
C6    C     C_R   0.310144 0.567425 0.846606 0.676705
C7    C     C_R   0.810126 0.932607 0.346619 0.676612
C8    C     C_R   0.189860 0.067397 0.653394 0.674940
O17   O     O_3   0.781290 0.427390 0.258880 -0.373161
O18   O     O_3   0.218710 0.572610 0.741120 -0.368741
O19   O     O_3   0.718710 0.927390 0.241120 -0.375425
O20   O     O_3   0.281290 0.072610 0.758880 -0.378156
V1    V     V_3+5 0.744190 0.152150 0.248350 1.428168
V2    V     V_3+5 0.255810 0.847850 0.751650 1.429199
V3    V     V_3+5 0.755810 0.652150 0.251650 1.428164
V4    V     V_3+5 0.244190 0.347850 0.748350 1.441969
C9    C     C_R   0.155855 0.061355 0.594124 -0.138484
C10   C     C_R   0.844116 0.938696 0.405906 -0.139270
C11   C     C_R   0.344156 0.561340 0.905879 -0.134352
C12   C     C_R   0.655898 0.438675 0.094099 -0.137786
C13   C     C_R   0.139879 0.105358 0.486754 -0.137065
C14   C     C_R   0.860076 0.894809 0.513283 -0.134998
C15   C     C_R   0.360035 0.603647 0.013340 -0.142523
C16   C     C_R   0.640050 0.396493 0.986636 -0.137581
C17   C     C_R   0.173758 0.101465 0.541371 0.366631
C18   C     C_R   0.826211 0.898471 0.458651 0.367178
C19   C     C_R   0.326186 0.600203 0.958699 0.355177
C20   C     C_R   0.673886 0.399749 0.041294 0.362160
C21   C     C_R   0.104331 0.024717 0.590515 -0.254364
C22   C     C_R   0.895624 0.975667 0.409541 -0.254498
C23   C     C_R   0.395716 0.525253 0.909457 -0.256115
C24   C     C_R   0.604348 0.474926 0.090500 -0.254765
C25   C     C_R   0.069393 0.029191 0.534926 0.086312
C26   C     C_R   0.930552 0.971328 0.465140 0.086346
C27   C     C_R   0.430616 0.529071 0.965081 0.086307
C28   C     C_R   0.569461 0.471200 0.034869 0.086312
C29   C     C_R   0.088487 0.070690 0.482996 0.048749
C30   C     C_R   0.911458 0.929754 0.517064 0.047156
C31   C     C_R   0.411457 0.569485 0.017071 0.052140
C32   C     C_R   0.588628 0.430783 0.982885 0.049091
C33   C     C_R   0.016327 0.995797 0.528962 0.072913
C34   C     C_R   0.983612 0.004865 0.471114 0.073738
C35   C     C_R   0.483705 0.495993 0.971028 0.072471
C36   C     C_R   0.516376 0.504343 0.028917 0.073100
C37   C     C_R   0.005088 0.046903 0.421247 -0.179143
C38   C     C_R   0.994846 0.953850 0.578833 -0.178628
C39   C     C_R   0.494836 0.545346 0.078843 -0.179220
C40   C     C_R   0.505250 0.455038 0.921101 -0.178988
C41   C     C_R   0.056290 0.078637 0.427231 -0.169696
C42   C     C_R   0.943646 0.921999 0.572839 -0.167353
C43   C     C_R   0.443612 0.576750 0.072875 -0.171303
C44   C     C_R   0.556476 0.423608 0.927075 -0.168637
H1    H     H_    0.070876 0.110574 0.387468 0.132686
H2    H     H_    0.929057 0.890078 0.612602 0.135666
H3    H     H_    0.428974 0.607854 0.112685 0.133400
H4    H     H_    0.571118 0.392521 0.887266 0.135019
H5    H     H_    0.907154 0.004057 0.367920 0.112277
H6    H     H_    0.092800 0.996461 0.632146 0.112942
H7    H     H_    0.592766 0.502436 0.132164 0.112523
H8    H     H_    0.407294 0.497768 0.867789 0.112327
H9    H     H_    0.154047 0.136761 0.446656 0.152775
H10   H     H_    0.845906 0.863343 0.553376 0.154600
H11   H     H_    0.345811 0.634141 0.053487 0.147758
H12   H     H_    0.654279 0.365976 0.946494 0.152270
H13   H     H_    0.983306 0.056876 0.376491 0.121765
H14   H     H_    0.016624 0.944022 0.623596 0.123434
H15   H     H_    0.516582 0.554733 0.123635 0.122749
H16   H     H_    0.483503 0.445710 0.876309 0.122972
C45   C     C_R   0.884918 0.098292 0.152203 -0.169472
C46   C     C_R   0.159133 0.974275 0.906347 -0.155589
C47   C     C_R   0.624557 0.616441 0.359764 -0.158623
C48   C     C_R   0.375412 0.383515 0.640194 -0.158892
H17   H     H_    0.882548 0.210506 0.183126 0.123381
H18   H     H_    0.196801 0.922732 0.923028 0.141932
H19   H     H_    0.634991 0.741897 0.339166 0.124374
H20   H     H_    0.364955 0.258021 0.660759 0.124204
C49   C     C_R   0.920269 0.110420 0.115176 -0.060589
C50   C     C_R   0.123064 0.960082 0.942350 -0.026234
C51   C     C_R   0.589090 0.629812 0.396446 -0.060031
C52   C     C_R   0.410880 0.370144 0.603513 -0.059367
H21   H     H_    0.944813 0.230094 0.119247 0.145471
H22   H     H_    0.134182 0.901810 0.986697 0.162993
H23   H     H_    0.572794 0.763965 0.402544 0.133982
H24   H     H_    0.427155 0.235954 0.597390 0.134341
C53   C     C_R   0.924095 0.969557 0.073597 0.137648
C54   C     C_R   0.073404 0.021446 0.921545 0.145687
C55   C     C_R   0.574568 0.471961 0.424764 0.147711
C56   C     C_R   0.425430 0.528036 0.575228 0.147796
C57   C     C_R   0.893085 0.812374 0.071951 -0.108076
C58   C     C_R   0.061662 0.106636 0.864888 -0.098578
C59   C     C_R   0.595075 0.298976 0.413964 -0.112756
C60   C     C_R   0.404950 0.701063 0.586065 -0.113412
H25   H     H_    0.895080 0.701479 0.040530 0.187599
H26   H     H_    0.023943 0.156357 0.847488 0.125525
H27   H     H_    0.584182 0.174775 0.434888 0.149192
H28   H     H_    0.415860 0.825304 0.565166 0.149083
C61   C     C_R   0.858517 0.798074 0.110000 -0.143814
C62   C     C_R   0.098265 0.126211 0.829663 -0.153518
C63   C     C_R   0.630398 0.285060 0.376849 -0.149126
C64   C     C_R   0.369629 0.714979 0.623184 -0.149121
H29   H     H_    0.834783 0.676269 0.107016 0.141370
H30   H     H_    0.088170 0.190655 0.786066 0.109890
H31   H     H_    0.645940 0.150038 0.370177 0.131666
H32   H     H_    0.354111 0.850039 0.629885 0.131498
C65   C     C_R   0.853557 0.942080 0.150041 -0.055655
C66   C     C_R   0.147052 0.057577 0.849796 -0.045401
C67   C     C_R   0.645965 0.444064 0.349621 -0.054965
C68   C     C_R   0.354035 0.555933 0.650376 -0.054413
C69   C     C_R   0.992053 0.830442 0.027279 -0.206573
C70   C     C_R   0.002673 0.154428 0.964288 -0.187191
C71   C     C_R   0.494112 0.373232 0.452823 -0.235682
C72   C     C_R   0.505885 0.626764 0.547166 -0.234998
H33   H     H_    0.988347 0.703492 0.051418 0.191415
H34   H     H_    0.006098 0.281139 0.939984 0.210641
H35   H     H_    0.488770 0.276446 0.415733 0.168746
H36   H     H_    0.511230 0.723550 0.584256 0.169270
C73   C     C_R   0.027751 0.837960 0.990462 0.414643
C74   C     C_R   0.966168 0.145310 0.999924 0.421267
C75   C     C_R   0.457256 0.385796 0.487868 0.423106
C76   C     C_R   0.542739 0.614205 0.512116 0.423439
C77   C     C_R   0.034417 0.003209 0.959447 -0.082486
C78   C     C_R   0.961226 0.983440 0.033239 -0.077896
C79   C     C_R   0.463005 0.513086 0.535891 -0.069073
C80   C     C_R   0.536992 0.486910 0.464098 -0.069236
Cl1   Cl    Cl    0.060682 0.632218 0.981787 -0.664960
Cl2   Cl    Cl    0.925357 0.336275 0.997990 -0.663239
Cl3   Cl    Cl    0.403211 0.246308 0.467833 -0.619984
Cl4   Cl    Cl    0.596776 0.753715 0.532133 -0.616164
O21   O     O_3   0.776326 0.861504 0.459383 -0.622030
H37   H     H_    0.755409 0.878683 0.419042 0.284175
O22   O     O_3   0.223655 0.138143 0.540618 -0.622846
H38   H     H_    0.244580 0.120765 0.580945 0.283866
O23   O     O_3   0.723827 0.363743 0.040523 -0.627483
H39   H     H_    0.744694 0.380427 0.080922 0.283145
O24   O     O_3   0.276243 0.635917 0.959504 -0.640694
H40   H     H_    0.255365 0.618743 0.919139 0.280642

loop_
_geom_bond_atom_site_label_1
_geom_bond_atom_site_label_2
_ccdc_geom_bond_type
O17   V3    S    
C48   C52   A    
C70   C77   A    
O1    C5    A    
C47   H19   S    
O19   V1    S    
C9    C21   A    
O3    C7    A    
O22   H38   S    
C10   C18   A    
C48   C68   A    
O15   V3    S    
O21   H37   S    
C25   C33   A    
C33   C38   A    
C5    C12   S    
C73   C77   A    
C6    C11   S    
C35   C40   A    
C26   C30   A    
C58   C62   A    
C36   C39   A    
C40   C44   A    
C57   C61   A    
C72   C79   A    
C71   C75   A    
C23   H8    S    
C14   C18   A    
C2    C68   S    
C72   C76   A    
C58   H26   S    
O4    C8    A    
C51   H23   S    
C44   H4    S    
C70   H34   S    
O1    V3    S    
C19   O24   S    
O13   V1    S    
O2    V4    S    
O3    V1    S    
C40   H16   S    
C46   C50   A    
C45   C49   A    
C1    O15   A    
C15   C31   A    
C48   H20   S    
C2    O16   A    
C16   C32   A    
C17   O22   S    
O2    C6    A    
O24   H40   S    
C16   H12   S    
C45   C65   A    
C10   C22   A    
C11   C19   A    
C16   C20   A    
C43   H3    S    
C76   C80   A    
C13   C29   A    
C34   C37   A    
O11   C7    A    
C38   H14   S    
C11   C23   A    
C35   C36   A    
O12   C8    A    
C24   H7    S    
C3    C65   S    
O10   V2    S    
C72   H36   S    
C51   C55   A    
O5    V1    S    
C53   C57   A    
C39   C43   A    
C63   C67   A    
C38   C42   A    
C26   C34   A    
O7    V3    S    
C4    C66   S    
C46   H18   S    
C49   C53   A    
C45   H17   S    
O18   V4    S    
C23   C27   A    
C14   H10   S    
C32   C44   A    
C13   H9    S    
C64   H32   S    
C39   H15   S    
C21   H6    S    
C54   C77   S    
O8    V4    S    
O7    C3    A    
O5    C1    A    
C69   H33   S    
C74   Cl2   S    
C31   C43   A    
C14   C30   A    
C21   C25   A    
O8    C4    A    
C7    C10   S    
O9    C5    A    
C59   C63   A    
C62   H30   S    
C61   H29   S    
O6    V2    S    
C63   H31   S    
C52   C56   A    
O14   V2    S    
C12   C20   A    
C27   C35   A    
C71   C80   A    
O9    V1    S    
C49   H21   S    
C56   C60   A    
C29   C41   A    
O16   V4    S    
C69   C73   A    
C57   H25   S    
C47   C51   A    
C3    O13   A    
C64   C68   A    
C59   H27   S    
C8    C9    S    
C74   C78   A    
C15   C19   A    
C53   C78   S    
O11   V3    S    
C30   C42   A    
C69   C78   A    
O12   V4    S    
C22   C26   A    
C73   Cl1   S    
C20   O23   S    
C56   C79   S    
C75   C79   A    
C9    C17   A    
O10   C6    A    
O20   V2    S    
C76   Cl4   S    
C37   H13   S    
C55   C80   S    
C47   C67   A    
C60   C64   A    
C33   C34   A    
C42   H2    S    
C41   H1    S    
C52   H24   S    
C75   Cl3   S    
C1    C67   S    
C12   C24   A    
C27   C31   A    
C37   C41   A    
C13   C17   A    
C46   C66   A    
C71   H35   S    
C25   C29   A    
O6    C2    A    
C62   C66   A    
C60   H28   S    
C24   C28   A    
C61   C65   A    
C70   C74   A    
C28   C36   A    
C54   C58   A    
C4    O14   A    
C50   H22   S    
C55   C59   A    
O23   H39   S    
C18   O21   S    
C22   H5    S    
O4    V2    S    
C28   C32   A    
C50   C54   A    
C15   H11   S    
