data_mof_unit_44891.cif
_audit_creation_date              2013-03-05T15:56:47-0500
_audit_creation_method            fapswitch 2.2
_symmetry_space_group_name_H-M    P1
_symmetry_Int_Tables_number       1
_space_group_crystal_system       triclinic
_cell_length_a                    6.930224
_cell_length_b                    14.633291
_cell_length_c                    16.017092
_cell_angle_alpha                 89.78445
_cell_angle_beta                  90.222833
_cell_angle_gamma                 89.954904
_cell_volume                      1624.30078447

loop_
_atom_site_label
_atom_site_type_symbol
_atom_site_description
_atom_site_fract_x
_atom_site_fract_y
_atom_site_fract_z
_atom_type_partial_charge
O1    O     O_R   0.638180 0.333920 0.163320 -0.595702
O2    O     O_R   0.361820 0.666080 0.836680 -0.607667
O3    O     O_R   0.308470 0.344960 0.336080 -0.607597
O4    O     O_R   0.691530 0.655040 0.663920 -0.609514
O5    O     O_R   0.138140 0.166110 0.336680 -0.602823
O6    O     O_R   0.861860 0.833890 0.663320 -0.590415
C1    C     C_R   0.477700 0.367219 0.365057 0.905086
C2    C     C_R   0.522296 0.632747 0.634971 0.899060
O7    O     O_R   0.308460 0.344950 0.163930 -0.556140
O8    O     O_R   0.691540 0.655050 0.836070 -0.559705
O9    O     O_R   0.138140 0.166100 0.163310 -0.550082
O10   O     O_R   0.861860 0.833900 0.836690 -0.560616
C3    C     C_R   0.476854 0.367326 0.135075 1.010484
C4    C     C_R   0.522463 0.629246 0.861818 1.000212
O11   O     O_R   0.638180 0.333930 0.336700 -0.602342
O12   O     O_R   0.361820 0.666070 0.663300 -0.604156
O13   O     O_3   0.471670 0.191340 0.250000 -0.263429
O14   O     O_3   0.528330 0.808660 0.750000 -0.253408
V1    V     V_3+5 0.196830 0.260900 0.250000 1.182263
V2    V     V_3+5 0.803170 0.739100 0.750000 1.180792
O15   O     O_R   0.808420 0.155070 0.163920 -0.602078
O16   O     O_R   0.191580 0.844930 0.836080 -0.595238
C5    C     C_R   0.978050 0.130227 0.137267 0.992789
C6    C     C_R   0.023104 0.863818 0.867794 0.973853
O17   O     O_R   0.808420 0.155080 0.336070 -0.596096
O18   O     O_R   0.191580 0.844920 0.663930 -0.590609
C7    C     C_R   0.977663 0.133058 0.364540 0.925072
C8    C     C_R   0.022430 0.866564 0.635062 0.944228
V3    V     V_3+5 0.696830 0.239130 0.250000 1.162408
V4    V     V_3+5 0.303170 0.760870 0.750000 1.166768
O19   O     O_3   0.971850 0.308690 0.250010 -0.281395
O20   O     O_3   0.028150 0.691310 0.749990 -0.288913
C9    C     C_R   0.082015 0.185973 0.532495 -0.160779
C10   C     C_R   0.918912 0.813580 0.466608 -0.164271
C11   C     C_R   0.132188 0.213840 0.612770 -0.124254
C12   C     C_R   0.869930 0.785749 0.386127 -0.115403
C13   C     C_R   0.142637 0.150382 0.677400 -0.111421
C14   C     C_R   0.860653 0.849203 0.321431 -0.122643
C15   C     C_R   0.103360 0.058516 0.662229 -0.148843
C16   C     C_R   0.899708 0.941021 0.336765 -0.173890
C17   C     C_R   0.053409 0.027970 0.581220 0.113761
C18   C     C_R   0.948025 0.971540 0.417971 0.123929
C19   C     C_R   0.042237 0.093062 0.514989 0.120928
C20   C     C_R   0.958599 0.906453 0.484249 0.119051
C21   C     C_R   0.011491 0.934634 0.565928 -0.315628
C22   C     C_R   0.988993 0.064892 0.433428 -0.310590
H1    H     H_    0.111445 0.012057 0.714827 0.108270
H2    H     H_    0.892990 0.987468 0.284131 0.090948
C23   C     C_R   0.180883 0.962296 0.978186 -0.380637
C24   C     C_R   0.823515 0.019031 0.038153 -0.374811
C25   C     C_R   0.170535 0.020539 0.048034 0.624539
C26   C     C_R   0.833894 0.947781 0.979931 0.596902
C27   C     C_R   0.991083 0.057369 0.072409 -0.352683
C28   C     C_R   0.012259 0.926852 0.941300 -0.371049
C29   C     C_R   0.320337 0.471937 0.469516 -0.153384
C30   C     C_R   0.679654 0.527947 0.530587 -0.153737
C31   C     C_R   0.331271 0.535454 0.534665 -0.142396
C32   C     C_R   0.668718 0.464431 0.465437 -0.141786
C33   C     C_R   0.511093 0.564388 0.566186 -0.112618
C34   C     C_R   0.488899 0.435523 0.433892 -0.114629
C35   C     C_R   0.325914 0.489371 0.042516 0.586548
C36   C     C_R   0.671135 0.503608 0.951185 0.576026
C37   C     C_R   0.338593 0.548568 0.973740 -0.345465
C38   C     C_R   0.657555 0.443141 0.019100 -0.333517
C39   C     C_R   0.511417 0.558849 0.928980 -0.371523
C40   C     C_R   0.485992 0.434440 0.065099 -0.378132
H3    H     H_    0.823733 0.827162 0.258912 0.105442
H4    H     H_    0.180546 0.172506 0.739768 0.118398
H5    H     H_    0.213132 0.589241 0.957577 0.211916
H6    H     H_    0.782731 0.402203 0.035130 0.210160
H7    H     H_    0.073734 0.238248 0.484660 0.111046
H8    H     H_    0.926475 0.761342 0.514501 0.107818
H9    H     H_    0.162188 0.285179 0.624926 0.115960
H10   H     H_    0.840114 0.714417 0.373844 0.114150
H11   H     H_    0.320750 0.940979 0.956132 0.237569
H12   H     H_    0.684186 0.040187 0.060559 0.226705
O21   O     O_3   0.333093 0.035883 0.096470 -0.620708
C41   C     C_3   0.366560 0.958592 0.148592 0.177349
H13   H     H_    0.499574 0.924583 0.127412 0.139871
H14   H     H_    0.246408 0.907560 0.149528 0.067079
C42   C     C_3   0.402968 0.986978 0.238299 -0.802809
H15   H     H_    0.279988 0.027722 0.261552 0.257609
H16   H     H_    0.418187 0.925173 0.278268 0.193927
H17   H     H_    0.539216 0.026298 0.242544 0.265628
O22   O     O_3   0.671660 0.894473 0.967666 -0.632477
C43   C     C_3   0.693659 0.813220 0.015512 0.303338
H18   H     H_    0.749183 0.826626 0.079845 0.047800
H19   H     H_    0.795784 0.765933 0.984167 0.105926
C44   C     C_3   0.500764 0.764411 0.023727 -0.980778
H20   H     H_    0.424944 0.763449 0.962981 0.282830
H21   H     H_    0.525838 0.694058 0.047221 0.215097
H22   H     H_    0.404248 0.798082 0.068504 0.218991
H23   H     H_    0.179350 0.451253 0.447222 0.117870
H24   H     H_    0.820640 0.548618 0.552893 0.118075
H25   H     H_    0.198215 0.561885 0.560330 0.120475
H26   H     H_    0.801776 0.437989 0.439783 0.120430
O23   O     O_3   0.153934 0.484245 0.085819 -0.608994
C45   C     C_3   0.145099 0.558265 0.142101 0.296600
H27   H     H_    0.159744 0.625157 0.109188 0.072219
H28   H     H_    0.260838 0.552023 0.190283 0.067207
C46   C     C_3   0.950742 0.557710 0.185961 -0.889577
H29   H     H_    0.929525 0.491896 0.219333 0.273581
H30   H     H_    0.944806 0.614295 0.231901 0.191698
H31   H     H_    0.832713 0.567314 0.139669 0.247798
O24   O     O_3   0.844251 0.510193 0.908995 -0.615312
C47   C     C_3   0.848444 0.442086 0.846776 0.304330
H32   H     H_    0.735014 0.455355 0.798727 0.065208
H33   H     H_    0.826840 0.372641 0.874052 0.076152
C48   C     C_3   0.044139 0.443186 0.804045 -0.882385
H34   H     H_    0.159801 0.427118 0.849976 0.249890
H35   H     H_    0.046963 0.391169 0.753761 0.192937
H36   H     H_    0.071857 0.511414 0.776154 0.272066

loop_
_geom_bond_atom_site_label_1
_geom_bond_atom_site_label_2
_geom_bond_distance
_ccdc_geom_bond_type
C14   C16   1.393328 A    
C37   C39   1.406152 A    
C46   H29   1.109866 S    
O13   V3    1.710454 S    
O4    C2    1.301712 A    
V1    O19   1.708311 S    
C42   H15   1.106311 S    
C15   C17   1.415747 A    
C36   O24   1.382493 S    
O21   C41   1.421600 S    
C30   H24   1.082760 S    
O9    V1    2.007195 S    
C26   O22   1.382762 S    
C11   C13   1.389687 A    
O3    C1    1.301718 A    
C48   H35   1.110474 S    
C2    C33   1.492719 S    
C41   H14   1.119032 S    
C31   C33   1.408805 A    
C47   H32   1.114394 S    
C6    C28   1.500454 S    
C23   C28   1.407684 A    
C13   H4    1.082712 S    
O23   C45   1.413258 S    
C18   C22   1.417956 A    
C35   C37   1.401888 A    
C32   H26   1.082793 S    
O7    C3    1.298607 A    
C9    C11   1.393238 A    
O5    C7    1.293443 A    
C35   C40   1.414559 A    
O7    V1    2.002191 S    
O6    C8    1.294175 A    
C37   H5    1.083295 S    
O8    V2    2.002188 S    
C23   C25   1.410988 A    
C24   C26   1.403420 A    
C23   H11   1.079190 S    
O3    V1    2.004643 S    
O14   V4    1.710454 S    
C38   H6    1.083342 S    
C44   H21   1.108126 S    
C10   C12   1.394108 A    
C29   H23   1.082752 S    
C1    O11   1.298166 A    
C2    O12   1.298172 A    
C29   C34   1.407350 A    
C17   C19   1.424879 A    
C18   C20   1.425173 A    
C42   H16   1.110810 S    
C26   C28   1.418238 A    
O11   V3    2.008995 S    
C3    C40   1.488996 S    
O17   V3    1.997185 S    
C13   C15   1.393836 A    
C8    C21   1.488287 S    
C24   C27   1.400989 A    
C43   H19   1.111938 S    
C9    C19   1.416329 A    
C10   C20   1.416104 A    
O8    C4    1.299586 A    
C48   H36   1.109451 S    
C41   H13   1.102489 S    
O22   C43   1.419930 S    
O15   V3    2.007899 S    
C25   C27   1.412033 A    
C38   C40   1.406781 A    
C25   O21   1.384318 S    
C24   H12   1.077045 S    
O10   V2    2.007197 S    
O1    V3    1.999252 S    
C44   H22   1.100181 S    
C12   H10   1.082833 S    
C7    C22   1.486454 S    
O18   V4    1.997186 S    
C46   H31   1.110361 S    
C45   H28   1.114364 S    
C29   C31   1.401898 A    
O16   C6    1.304921 A    
O1    C3    1.298905 A    
O12   V4    2.008996 S    
C12   C14   1.390069 A    
C10   H8    1.082015 S    
C1    C34   1.492783 S    
C42   H17   1.108109 S    
C20   C21   1.420059 A    
C15   H1    1.081825 S    
V2    O20   1.708310 S    
C16   H2    1.081755 S    
C11   H9    1.082806 S    
O16   V4    2.007899 S    
C36   C39   1.413689 A    
C43   H18   1.116643 S    
C35   O23   1.383262 S    
C16   C18   1.415825 A    
C43   C44   1.522060 S    
O5    V1    2.001945 S    
O17   C7    1.296764 A    
C45   C46   1.521561 S    
O6    V2    2.001948 S    
O24   C47   1.412421 S    
O10   C6    1.298717 A    
O18   C8    1.297063 A    
C30   C33   1.407333 A    
O2    V4    1.999249 S    
O15   C5    1.304139 A    
C36   C38   1.403131 A    
V3    O19   2.161436 S    
C48   H34   1.110333 S    
V4    O20   2.161435 S    
C41   C42   1.517410 S    
C47   H33   1.115058 S    
C5    C27   1.494298 S    
O9    C5    1.295922 A    
O13   V1    2.158922 S    
C4    C39   1.488847 S    
C30   C32   1.401898 A    
O14   V2    2.158922 S    
O2    C4    1.298459 A    
C19   C22   1.418875 A    
C9    H7    1.081967 S    
O4    V2    2.004644 S    
C14   H3    1.082956 S    
C46   H30   1.110635 S    
C45   H27   1.114931 S    
C31   H25   1.082803 S    
C17   C21   1.418595 A    
C44   H20   1.104132 S    
C32   C34   1.408818 A    
C47   C48   1.521576 S    
