data_mof_unit_11341.cif
_audit_creation_date              2013-03-05T16:05:18-0500
_audit_creation_method            fapswitch 2.2
_symmetry_space_group_name_H-M    P1
_symmetry_Int_Tables_number       1
_space_group_crystal_system       triclinic
_cell_length_a                    27.235076
_cell_length_b                    7.200696
_cell_length_c                    22.787724
_cell_angle_alpha                 89.989116
_cell_angle_beta                  101.417608
_cell_angle_gamma                 89.988384
_cell_volume                      4380.49608839

loop_
_atom_site_label
_atom_site_type_symbol
_atom_site_description
_atom_site_fract_x
_atom_site_fract_y
_atom_site_fract_z
_atom_type_partial_charge
O1    O     O_R   0.707300 0.594030 0.176840 -0.593707
O2    O     O_R   0.292700 0.405970 0.823160 -0.593707
O3    O     O_R   0.792700 0.094030 0.323160 -0.593785
O4    O     O_R   0.207300 0.905970 0.676840 -0.593786
O5    O     O_R   0.697330 0.262360 0.295660 -0.561109
O6    O     O_R   0.302670 0.737640 0.704340 -0.561108
O7    O     O_R   0.802670 0.762360 0.204340 -0.561102
O8    O     O_R   0.197330 0.237640 0.795660 -0.561102
C1    C     C_R   0.684172 0.432426 0.310795 0.955731
C2    C     C_R   0.315828 0.567574 0.689205 0.955731
C3    C     C_R   0.815829 0.932418 0.189205 0.955801
C4    C     C_R   0.184170 0.067582 0.810795 0.955800
O9    O     O_R   0.701410 0.264250 0.175600 -0.571864
O10   O     O_R   0.298590 0.735750 0.824400 -0.571864
O11   O     O_R   0.798590 0.764250 0.324400 -0.571901
O12   O     O_R   0.201410 0.235750 0.675600 -0.571901
O13   O     O_R   0.796800 0.094950 0.202240 -0.589710
O14   O     O_R   0.203200 0.905050 0.797760 -0.589709
O15   O     O_R   0.703200 0.594950 0.297760 -0.589697
O16   O     O_R   0.296800 0.405050 0.702240 -0.589698
C5    C     C_R   0.689725 0.432573 0.153511 0.924040
C6    C     C_R   0.310275 0.567427 0.846489 0.924040
C7    C     C_R   0.810279 0.932508 0.346493 0.924021
C8    C     C_R   0.189721 0.067492 0.653507 0.924022
O17   O     O_3   0.781290 0.427390 0.258880 -0.265945
O18   O     O_3   0.218710 0.572610 0.741120 -0.265945
O19   O     O_3   0.718710 0.927390 0.241120 -0.265891
O20   O     O_3   0.281290 0.072610 0.758880 -0.265891
V1    V     V_3+5 0.744190 0.152150 0.248350 1.231733
V2    V     V_3+5 0.255810 0.847850 0.751650 1.231733
V3    V     V_3+5 0.755810 0.652150 0.251650 1.231780
V4    V     V_3+5 0.244190 0.347850 0.748350 1.231780
C9    C     C_R   0.154675 0.062418 0.595210 -0.095598
C10   C     C_R   0.845325 0.937582 0.404790 -0.095598
C11   C     C_R   0.345313 0.562028 0.904781 -0.095327
C12   C     C_R   0.654687 0.437972 0.095219 -0.095328
C13   C     C_R   0.138972 0.121791 0.488745 -0.163239
C14   C     C_R   0.861028 0.878209 0.511254 -0.163239
C15   C     C_R   0.360820 0.617931 0.011421 -0.163046
C16   C     C_R   0.639180 0.382069 0.988579 -0.163047
C17   C     C_R   0.171875 0.113959 0.543813 -0.173100
C18   C     C_R   0.828125 0.886041 0.456187 -0.173100
C19   C     C_R   0.327974 0.611197 0.956296 -0.173526
C20   C     C_R   0.672026 0.388803 0.043704 -0.173526
C21   C     C_R   0.103710 0.019430 0.591229 -0.193372
C22   C     C_R   0.896290 0.980570 0.408771 -0.193372
C23   C     C_R   0.396349 0.520352 0.908695 -0.193342
C24   C     C_R   0.603651 0.479648 0.091305 -0.193343
C25   C     C_R   0.068963 0.029474 0.535509 0.095332
C26   C     C_R   0.931037 0.970526 0.464491 0.095332
C27   C     C_R   0.431028 0.529213 0.964483 0.095250
C28   C     C_R   0.568972 0.470786 0.035517 0.095250
C29   C     C_R   0.087937 0.081299 0.484155 0.174181
C30   C     C_R   0.912063 0.918700 0.515845 0.174181
C31   C     C_R   0.411920 0.578590 0.015961 0.174229
C32   C     C_R   0.588080 0.421410 0.984039 0.174229
C33   C     C_R   0.016251 0.992366 0.528905 0.055289
C34   C     C_R   0.983749 0.007634 0.471095 0.055289
C35   C     C_R   0.483791 0.493120 0.971049 0.055285
C36   C     C_R   0.516209 0.506880 0.028951 0.055285
C37   C     C_R   0.005076 0.058922 0.421855 -0.161728
C38   C     C_R   0.994924 0.941078 0.578145 -0.161728
C39   C     C_R   0.494751 0.555710 0.078315 -0.161578
C40   C     C_R   0.505249 0.444289 0.921685 -0.161578
C41   C     C_R   0.055953 0.094550 0.428413 -0.221278
C42   C     C_R   0.944047 0.905449 0.571587 -0.221278
C43   C     C_R   0.443827 0.590423 0.071789 -0.221320
C44   C     C_R   0.556173 0.409577 0.928211 -0.221320
H1    H     H_    0.070436 0.134087 0.389172 0.142783
H2    H     H_    0.929564 0.865913 0.610828 0.142783
H3    H     H_    0.429242 0.628042 0.111129 0.142696
H4    H     H_    0.570758 0.371958 0.888871 0.142696
H5    H     H_    0.907521 0.016949 0.367509 0.128754
H6    H     H_    0.092479 0.983051 0.632491 0.128754
H7    H     H_    0.592332 0.514333 0.132650 0.129009
H8    H     H_    0.407668 0.485667 0.867349 0.129010
H9    H     H_    0.789073 0.850699 0.453561 0.105988
H10   H     H_    0.210926 0.149301 0.546439 0.105987
H11   H     H_    0.711145 0.354582 0.046275 0.105947
H12   H     H_    0.288855 0.645417 0.953725 0.105947
H13   H     H_    0.153417 0.162107 0.449571 0.120172
H14   H     H_    0.846583 0.837893 0.550429 0.120172
H15   H     H_    0.346271 0.656348 0.050696 0.120136
H16   H     H_    0.653729 0.343652 0.949304 0.120136
H17   H     H_    0.983386 0.073464 0.377180 0.150727
H18   H     H_    0.016614 0.926536 0.622820 0.150727
H19   H     H_    0.516369 0.568935 0.123071 0.150791
H20   H     H_    0.483631 0.431065 0.876929 0.150791
C45   C     C_R   0.853539 0.089986 0.111155 -0.117877
C46   C     C_R   0.146461 0.910014 0.888845 -0.117878
C47   C     C_R   0.646482 0.589881 0.388873 -0.118123
C48   C     C_R   0.353518 0.410119 0.611127 -0.118123
H21   H     H_    0.824334 0.194155 0.106844 0.137781
H22   H     H_    0.175666 0.805845 0.893156 0.137781
H23   H     H_    0.675703 0.693942 0.393208 0.137695
H24   H     H_    0.324296 0.306058 0.606791 0.137695
C49   C     C_R   0.888557 0.103307 0.074052 -0.113048
C50   C     C_R   0.111443 0.896693 0.925948 -0.113047
C51   C     C_R   0.611463 0.603197 0.425976 -0.113104
C52   C     C_R   0.388537 0.396803 0.574024 -0.113104
H25   H     H_    0.885369 0.217142 0.042469 0.110447
H26   H     H_    0.114630 0.782858 0.957531 0.110447
H27   H     H_    0.614667 0.716922 0.457584 0.110443
H28   H     H_    0.385333 0.283078 0.542416 0.110443
C53   C     C_R   0.926449 0.969667 0.076639 0.058566
C54   C     C_R   0.073551 0.030333 0.923361 0.058566
C55   C     C_R   0.573550 0.469684 0.423357 0.058624
C56   C     C_R   0.426450 0.530316 0.576643 0.058624
C57   C     C_R   0.928592 0.822626 0.117697 -0.264535
C58   C     C_R   0.071408 0.177374 0.882302 -0.264535
C59   C     C_R   0.571386 0.322778 0.382265 -0.264556
C60   C     C_R   0.428614 0.677222 0.617735 -0.264556
H29   H     H_    0.958539 0.721589 0.121697 0.156477
H30   H     H_    0.041461 0.278411 0.878303 0.156477
H31   H     H_    0.541423 0.221850 0.378241 0.156488
H32   H     H_    0.458577 0.778150 0.621759 0.156488
C61   C     C_R   0.894137 0.809266 0.156196 0.368147
C62   C     C_R   0.105863 0.190734 0.843804 0.368148
C63   C     C_R   0.605843 0.309427 0.343768 0.368129
C64   C     C_R   0.394157 0.690573 0.656232 0.368128
C65   C     C_R   0.855327 0.943226 0.152353 -0.290284
C66   C     C_R   0.144673 0.056774 0.847647 -0.290285
C67   C     C_R   0.644673 0.443250 0.347645 -0.290107
C68   C     C_R   0.355327 0.556750 0.652355 -0.290107
C69   C     C_R   0.981155 0.826115 0.011528 -0.176371
C70   C     C_R   0.018845 0.173885 0.988472 -0.176371
C71   C     C_R   0.518818 0.326094 0.488431 -0.176351
C72   C     C_R   0.481182 0.673906 0.511569 -0.176351
H33   H     H_    0.966528 0.690189 0.019012 0.115832
H34   H     H_    0.033472 0.309811 0.980988 0.115832
H35   H     H_    0.533424 0.190146 0.480915 0.115832
H36   H     H_    0.466576 0.809854 0.519085 0.115832
C73   C     C_R   0.016521 0.840738 0.974722 -0.157449
C74   C     C_R   0.983479 0.159262 0.025278 -0.157449
C75   C     C_R   0.483453 0.340708 0.525239 -0.157444
C76   C     C_R   0.516547 0.659292 0.474761 -0.157444
H37   H     H_    0.028088 0.715616 0.954847 0.122260
H38   H     H_    0.971911 0.284384 0.045152 0.122259
H39   H     H_    0.471864 0.215558 0.545082 0.122229
H40   H     H_    0.528136 0.784442 0.454918 0.122229
C77   C     C_R   0.035879 0.014828 0.962692 0.140043
C78   C     C_R   0.964121 0.985172 0.037307 0.140043
C79   C     C_R   0.464122 0.514819 0.537310 0.140018
C80   C     C_R   0.535878 0.485181 0.462690 0.140018
N1    N     N_R   0.900922 0.665106 0.200668 0.237481
O21   O     O_R   0.915820 0.500970 0.187845 -0.410809
O22   O     O_R   0.900470 0.705326 0.256240 -0.410724
N2    N     N_R   0.099078 0.334894 0.799331 0.237481
O23   O     O_R   0.084180 0.499030 0.812155 -0.410809
O24   O     O_R   0.099530 0.294674 0.743759 -0.410724
N3    N     N_R   0.599040 0.165425 0.299264 0.237495
O25   O     O_R   0.584105 0.001308 0.312045 -0.410641
O26   O     O_R   0.599520 0.205801 0.243706 -0.411075
N4    N     N_R   0.400960 0.834576 0.700735 0.237495
O27   O     O_R   0.415895 0.998692 0.687955 -0.410641
O28   O     O_R   0.400480 0.794199 0.756294 -0.411074

loop_
_geom_bond_atom_site_label_1
_geom_bond_atom_site_label_2
_geom_bond_distance
_ccdc_geom_bond_type
O17   V3    1.755621 S    
C51   H27   1.082773 S    
O1    C5    1.327815 A    
O19   V1    1.755936 S    
C9    C21   1.407470 A    
C16   H16   1.083966 S    
O3    C7    1.327936 A    
C10   C18   1.395032 A    
O1    V3    1.983833 S    
C73   H37   1.082885 S    
C76   H40   1.082886 S    
O15   V3    1.980620 S    
C58   C62   1.409052 A    
N1    O21   1.301453 A    
C57   C61   1.409052 A    
C33   C38   1.410943 A    
C5    C12   1.474693 S    
C75   H39   1.082887 S    
C6    C11   1.474693 S    
C38   H18   1.076193 S    
C35   C40   1.410990 A    
C26   C30   1.419527 A    
C36   C39   1.410990 A    
C40   C44   1.387930 A    
O2    V4    1.983835 S    
O9    V1    1.997940 S    
C71   C75   1.400763 A    
C23   H8    1.077105 S    
C14   C18   1.391264 A    
C2    C68   1.492000 S    
C72   C76   1.400763 A    
C54   C58   1.406361 A    
O4    C8    1.327935 A    
C25   C29   1.419527 A    
C44   H4    1.084377 S    
C60   H32   1.083116 S    
C70   H34   1.082930 S    
C48   H24   1.083397 S    
O13   V1    1.980590 S    
C59   C63   1.409050 A    
C62   C66   1.420655 A    
O3    V1    1.983585 S    
C61   C65   1.420655 A    
C28   C36   1.438621 A    
C64   C68   1.420643 A    
C1    O15   1.336954 A    
C52   H28   1.082773 S    
C15   C31   1.403796 A    
C2    O16   1.336953 A    
C16   C32   1.403796 A    
O2    C6    1.327814 A    
C43   H3    1.084377 S    
N3    O25   1.301452 A    
C10   C22   1.407470 A    
C11   C19   1.394981 A    
C58   H30   1.083118 S    
C16   C20   1.391307 A    
N4    O28   1.301533 A    
C57   H29   1.083118 S    
C13   C29   1.403755 A    
C34   C37   1.410943 A    
O11   C7    1.326519 A    
C11   C23   1.407393 A    
C35   C36   1.438453 A    
O12   C8    1.326519 A    
C47   C67   1.407815 A    
C14   H14   1.083950 S    
C45   H21   1.083393 S    
C46   C66   1.407830 A    
C24   H7    1.077105 S    
C13   H13   1.083950 S    
C3    C65   1.492018 S    
O10   V2    1.997943 S    
C72   H36   1.082924 S    
N1    O22   1.301533 A    
C46   H22   1.083393 S    
O5    V1    1.991353 S    
C63   N3    1.436694 S    
C39   C43   1.387930 A    
C52   C56   1.403587 A    
O7    V3    1.991396 S    
C38   C42   1.387921 A    
C26   C34   1.438644 A    
N2    O23   1.301453 A    
C53   C78   1.494159 S    
C60   C64   1.409050 A    
O18   V4    1.755620 S    
C23   C27   1.427222 A    
C19   H12   1.083698 S    
C32   C44   1.393996 A    
C47   H23   1.083397 S    
C56   C60   1.406354 A    
C45   C49   1.397459 A    
C21   H6    1.077088 S    
O8    V4    1.991398 S    
O7    C3    1.340097 A    
O5    C1    1.340120 A    
C69   H33   1.082930 S    
C74   C78   1.407798 A    
C31   C43   1.393996 A    
C14   C30   1.403755 A    
C21   C25   1.427314 A    
C69   C78   1.407145 A    
O8    C4    1.340097 A    
C7    C10   1.474851 S    
C49   H25   1.082785 S    
C64   N4    1.436695 S    
O9    C5    1.326604 A    
N4    O27   1.301452 A    
C37   H17   1.076193 S    
O14   V2    1.980584 S    
O6    V2    1.991353 S    
C61   N1    1.436702 S    
C12   C20   1.394981 A    
C27   C35   1.438621 A    
C17   H10   1.083713 S    
C29   C41   1.394003 A    
C48   C52   1.397463 A    
C54   C77   1.494159 S    
O16   V4    1.980622 S    
C69   C73   1.400759 A    
C53   C57   1.406361 A    
C3    O13   1.336928 A    
C39   H19   1.076197 S    
C55   C59   1.406354 A    
C20   H11   1.083698 S    
N2    O24   1.301533 A    
C74   H38   1.082886 S    
C25   C33   1.438644 A    
C15   C19   1.391307 A    
O11   V3    1.998387 S    
C30   C42   1.394003 A    
C63   C67   1.420643 A    
O12   V4    1.998388 S    
C51   C55   1.403587 A    
C22   C26   1.427314 A    
C70   C77   1.407145 A    
C73   C77   1.407798 A    
C8    C9    1.474851 S    
C50   C54   1.403573 A    
C9    C17   1.395032 A    
O10   C6    1.326604 A    
C48   C68   1.407815 A    
C49   C53   1.403573 A    
C76   C80   1.407795 A    
C50   H26   1.082785 S    
C33   C34   1.438493 A    
C42   H2    1.084367 S    
C45   C65   1.407830 A    
C41   H1    1.084367 S    
C22   H5    1.077088 S    
O20   V2    1.755937 S    
C75   C79   1.407794 A    
C1    C67   1.492000 S    
C46   C50   1.397459 A    
C12   C24   1.407393 A    
C27   C31   1.419544 A    
C71   C80   1.407152 A    
N3    O26   1.301532 A    
C13   C17   1.391264 A    
C72   C79   1.407153 A    
C71   H35   1.082924 S    
O6    C2    1.340121 A    
C15   H15   1.083966 S    
C62   N2    1.436702 S    
C37   C41   1.387921 A    
C24   C28   1.427222 A    
C4    C66   1.492018 S    
C70   C74   1.400759 A    
C18   H9    1.083713 S    
C4    O14   1.336929 A    
C59   H31   1.083116 S    
C47   C51   1.397463 A    
C55   C80   1.494175 S    
C40   H20   1.076197 S    
C56   C79   1.494175 S    
O4    V2    1.983585 S    
C28   C32   1.419544 A    
