data_mof_unit_55763.cif
_audit_creation_date              2012-12-10T18:59:58-0500
_audit_creation_method            fapswitch 2.2
_symmetry_space_group_name_H-M    P1
_symmetry_Int_Tables_number       1
_space_group_crystal_system       triclinic
_cell_length_a                    10.823419
_cell_length_b                    10.647039
_cell_length_c                    9.933056
_cell_angle_alpha                 91.659223
_cell_angle_beta                  91.276166
_cell_angle_gamma                 91.391485
_cell_volume                      1143.53950272

loop_
_atom_site_label
_atom_site_type_symbol
_atom_type_description
_atom_site_fract_x
_atom_site_fract_y
_atom_site_fract_z
_atom_type_partial_charge
C1    C     C_R   0.499053 0.260246 0.498625 0.858885
C2    C     C_R   0.501586 0.739743 0.501495 0.871333
C3    C     C_R   0.872006 0.492345 0.504753 -0.091433
C4    C     C_R   0.126844 0.503441 0.494726 -0.094871
C5    C     C_R   0.942145 0.496109 0.626040 0.010562
C6    C     C_R   0.056085 0.488841 0.373970 0.014094
C7    C     C_R   0.558673 0.062792 0.395651 -0.190063
C8    C     C_R   0.444368 0.937263 0.605879 -0.174714
C9    C     C_R   0.561175 0.934216 0.398299 -0.159829
C10   C     C_R   0.441483 0.065783 0.602956 -0.142839
C11   C     C_R   0.503686 0.872368 0.503198 -0.027280
C12   C     C_R   0.498319 0.127629 0.497593 -0.019043
C13   C     C_R   0.549306 0.598930 0.077466 -0.087525
C14   C     C_R   0.453722 0.399853 0.922377 -0.061958
C15   C     C_R   0.551495 0.599016 0.934440 0.275460
C16   C     C_R   0.453706 0.398610 0.065250 0.239080
C17   C     C_R   0.259914 0.501420 0.498087 0.872632
C18   C     C_R   0.739616 0.496408 0.501766 0.868279
C19   C     C_R   0.181930 0.547275 0.029711 0.289170
C20   C     C_R   0.788030 0.322899 0.906779 0.311359
C21   C     C_R   0.151305 0.566743 0.164534 -0.126691
C22   C     C_R   0.836406 0.350202 0.781382 -0.129892
C23   C     C_R   0.105163 0.466378 0.238448 0.086944
C24   C     C_R   0.890590 0.469008 0.759435 0.084886
C25   C     C_R   0.085960 0.347640 0.175204 -0.170713
C26   C     C_R   0.899021 0.558742 0.865697 -0.145255
C27   C     C_R   0.115985 0.328527 0.040606 -0.177177
C28   C     C_R   0.851565 0.530684 0.991419 -0.184319
C29   C     C_R   0.165585 0.427526 0.968645 -0.164653
C30   C     C_R   0.795566 0.413164 0.011672 -0.162778
C31   C     C_R   0.929703 0.489100 0.380967 -0.246352
C32   C     C_R   0.068268 0.512706 0.618538 -0.227695
H1    H     H_    0.193047 0.409435 0.866459 0.146488
H2    H     H_    0.757045 0.392347 0.108274 0.161046
H3    H     H_    0.161118 0.659887 0.210903 0.155065
H4    H     H_    0.830698 0.279620 0.700567 0.144702
H5    H     H_    0.046017 0.270568 0.229804 0.152197
H6    H     H_    0.941439 0.650302 0.850886 0.171240
H7    H     H_    0.101974 0.236673 0.992382 0.165351
H8    H     H_    0.857190 0.600566 0.072747 0.149292
H9    H     H_    0.876345 0.482943 0.287606 0.168123
H10   H     H_    0.121058 0.526365 0.710885 0.196797
H11   H     H_    0.605684 0.111308 0.316435 0.163215
H12   H     H_    0.398243 0.888747 0.685768 0.177732
H13   H     H_    0.608355 0.883244 0.319444 0.152469
H14   H     H_    0.394373 0.116688 0.681916 0.150145
H15   H     H_    0.588805 0.677589 0.136474 0.143109
H16   H     H_    0.416696 0.320149 0.863183 0.145136
N1    N     N_R   0.499970 0.499970 0.857200 -0.091373
N2    N     N_R   0.500030 0.500030 0.142800 -0.107122
O1    O     O_R   0.499990 0.316750 0.614620 -0.618753
O2    O     O_R   0.500010 0.683250 0.385380 -0.623281
O3    O     O_R   0.499990 0.316780 0.385290 -0.634822
O4    O     O_R   0.500010 0.683220 0.614710 -0.615881
O5    O     O_R   0.316760 0.500000 0.614660 -0.608043
O6    O     O_R   0.683240 0.500000 0.385340 -0.632961
O7    O     O_R   0.316760 0.500020 0.385330 -0.616933
O8    O     O_R   0.683240 0.499980 0.614670 -0.619702
Zn1   Zn    Zn3+2 0.500000 0.499980 0.653120 0.969402
Zn2   Zn    Zn3+2 0.500000 0.500020 0.346880 0.944949
C33   C     C_3   0.612969 0.709522 0.871189 -0.767277
H17   H     H_    0.670351 0.678447 0.786308 0.260798
H18   H     H_    0.542002 0.776016 0.838295 0.263785
H19   H     H_    0.675993 0.761463 0.944271 0.200863
C34   C     C_3   0.403858 0.282241 0.127695 -0.773218
H20   H     H_    0.340582 0.306861 0.209843 0.266296
H21   H     H_    0.350527 0.221368 0.053406 0.201430
H22   H     H_    0.481876 0.225751 0.163262 0.256357
Br1   Br    Br    0.241532 0.685483 0.929003 -0.599740
Br2   Br    Br    0.710741 0.162791 0.934295 -0.594489

loop_
_geom_bond_atom_site_label_1
_geom_bond_atom_site_label_2
_ccdc_geom_bond_type
C10   H14   S    
C33   H19   S    
C14   H16   S    
C9    H13   S    
C21   H3    S    
C7    H11   S    
C27   C29   A    
C22   H4    S    
C17   O5    A    
C26   C28   A    
C33   H17   S    
N1    Zn1   S    
C18   O6    A    
C9    C11   A    
C34   H22   S    
N2    Zn2   S    
C5    C32   A    
C28   C30   A    
C6    C31   A    
C15   C33   S    
C20   C30   A    
C15   N1    A    
C3    C31   A    
C1    O1    A    
C34   H21   S    
C20   Br2   S    
C4    C32   A    
C1    C12   S    
C2    O2    A    
O2    Zn2   S    
C8    C11   A    
C2    C11   S    
C10   C12   A    
C22   C24   A    
C8    C10   A    
C19   C21   A    
O3    Zn2   S    
C20   C22   A    
O5    Zn1   S    
O4    Zn1   S    
C13   C15   A    
C21   C23   A    
C7    C12   A    
C16   N2    A    
C14   C16   A    
C19   Br1   S    
C14   N1    A    
O1    Zn1   S    
C28   H8    S    
C25   C27   A    
C27   H7    S    
C13   N2    A    
C19   C29   A    
C30   H2    S    
C7    C9    A    
C23   C25   A    
C3    C18   S    
C4    C6    A    
C34   H20   S    
C2    O4    A    
C17   O7    A    
C33   H18   S    
C1    O3    A    
C5    C24   S    
O7    Zn2   S    
C32   H10   S    
C16   C34   S    
C31   H9    S    
C25   H5    S    
O8    Zn1   S    
C6    C23   S    
C13   H15   S    
C18   O8    A    
C26   H6    S    
O6    Zn2   S    
C29   H1    S    
C24   C26   A    
C3    C5    A    
C8    H12   S    
C4    C17   S    
