data_mof_unit_17302.cif
_audit_creation_date              2012-12-10T19:55:03-0500
_audit_creation_method            fapswitch 2.2
_symmetry_space_group_name_H-M    P1
_symmetry_Int_Tables_number       1
_space_group_crystal_system       triclinic
_cell_length_a                    14.133081
_cell_length_b                    15.000794
_cell_length_c                    15.387471
_cell_angle_alpha                 90.382957
_cell_angle_beta                  85.853882
_cell_angle_gamma                 89.820903
_cell_volume                      3253.62668196

loop_
_atom_site_label
_atom_site_type_symbol
_atom_type_description
_atom_site_fract_x
_atom_site_fract_y
_atom_site_fract_z
_atom_type_partial_charge
C1    C     C_R   0.500008 0.672634 0.497754 0.887467
C2    C     C_R   0.500189 0.328043 0.500277 0.923936
C3    C     C_R   0.421673 0.909008 0.470366 -0.269261
C4    C     C_R   0.558338 0.092669 0.546348 -0.281942
C5    C     C_R   0.418331 0.816716 0.472738 0.467639
C6    C     C_R   0.557318 0.185177 0.552105 0.458450
C7    C     C_R   0.501081 0.768823 0.489545 -0.148916
C8    C     C_R   0.501666 0.232894 0.496594 -0.114933
C9    C     C_R   0.587285 0.813596 0.495968 -0.270059
C10   C     C_R   0.451677 0.190171 0.433484 -0.280631
C11   C     C_R   0.590595 0.905224 0.489930 -0.185597
C12   C     C_R   0.456372 0.098575 0.425546 -0.176423
C13   C     C_R   0.507418 0.953170 0.479302 0.079930
C14   C     C_R   0.508757 0.049605 0.482603 0.085399
C15   C     C_R   0.891289 0.569196 0.540469 -0.280553
C16   C     C_R   0.110889 0.462018 0.430438 -0.282082
C17   C     C_R   0.791967 0.567481 0.540254 0.010002
C18   C     C_R   0.210083 0.461936 0.432263 0.002914
C19   C     C_R   0.798862 0.432879 0.459320 0.011292
C20   C     C_R   0.199057 0.538280 0.567498 0.031655
C21   C     C_R   0.898273 0.431650 0.458514 -0.286272
C22   C     C_R   0.099605 0.538739 0.568864 -0.287459
C23   C     C_R   0.487177 0.499875 0.657923 0.888405
C24   C     C_R   0.512595 0.502991 0.342158 0.856006
C25   C     C_R   0.946642 0.500456 0.499479 0.149739
C26   C     C_R   0.053395 0.500446 0.499569 0.137347
C27   C     C_R   0.478343 0.518456 0.753219 -0.107744
C28   C     C_R   0.516104 0.526601 0.247972 -0.115127
C29   C     C_R   0.549706 0.569110 0.788508 -0.244534
C30   C     C_R   0.434774 0.508490 0.203759 -0.246023
C31   C     C_R   0.531260 0.616401 0.866053 -0.220477
C32   C     C_R   0.415312 0.556060 0.129948 -0.230219
C33   C     C_R   0.440801 0.615293 0.909431 0.094107
C34   C     C_R   0.476889 0.622640 0.097859 0.092484
C35   C     C_R   0.371603 0.555457 0.881331 0.227227
C36   C     C_R   0.567017 0.631539 0.131806 0.231816
C37   C     C_R   0.392352 0.503510 0.804604 0.181935
C38   C     C_R   0.587355 0.582952 0.207799 0.165133
C39   C     C_2   0.413814 0.692921 0.966356 0.143694
C40   C     C_2   0.434524 0.697963 0.051351 0.161575
H1    H     H_    0.616898 0.579953 0.751687 0.165118
H2    H     H_    0.380636 0.464071 0.231761 0.157357
H3    H     H_    0.924143 0.624836 0.571544 0.132081
H4    H     H_    0.079930 0.433163 0.374511 0.134212
H5    H     H_    0.750303 0.620523 0.572089 0.118921
H6    H     H_    0.253329 0.432082 0.378877 0.120451
H7    H     H_    0.762605 0.379630 0.427763 0.120877
H8    H     H_    0.233600 0.568469 0.620766 0.133198
H9    H     H_    0.936456 0.376111 0.427328 0.129671
H10   H     H_    0.059555 0.567901 0.624580 0.134613
H11   H     H_    0.346325 0.548345 0.104729 0.157348
H12   H     H_    0.584532 0.662130 0.886707 0.150891
H13   H     H_    0.356697 0.945897 0.463172 0.149889
H14   H     H_    0.595445 0.054583 0.592926 0.140982
H15   H     H_    0.652251 0.778072 0.506610 0.173749
H16   H     H_    0.410730 0.227924 0.389420 0.157489
H17   H     H_    0.657713 0.938803 0.495256 0.137134
H18   H     H_    0.418754 0.065953 0.375394 0.138032
N1    N     N_R   0.747530 0.500020 0.500000 -0.086899
N2    N     N_R   0.252470 0.499980 0.500000 -0.088152
O1    O     O_R   0.420520 0.630930 0.499990 -0.561909
O2    O     O_R   0.579480 0.369070 0.500010 -0.606554
O3    O     O_R   0.579480 0.630940 0.499990 -0.636727
O4    O     O_R   0.420520 0.369060 0.500010 -0.617262
O5    O     O_R   0.411130 0.500010 0.615800 -0.599563
O6    O     O_R   0.588870 0.499990 0.384200 -0.598902
O7    O     O_R   0.570080 0.500020 0.615800 -0.605060
O8    O     O_R   0.429920 0.499980 0.384200 -0.614772
Zn1   Zn    Zn3+2 0.393860 0.499990 0.500000 0.944039
Zn2   Zn    Zn3+2 0.606140 0.500010 0.500000 0.920288
C41   C     C_3   0.680063 0.596419 0.249912 -0.873536
H19   H     H_    0.666841 0.633323 0.312419 0.251782
H20   H     H_    0.712927 0.530675 0.261679 0.246493
H21   H     H_    0.733727 0.634398 0.209725 0.236943
C42   C     C_3   0.321867 0.434795 0.777265 -0.876139
H22   H     H_    0.352649 0.389777 0.725090 0.245441
H23   H     H_    0.300232 0.391052 0.833018 0.238478
H24   H     H_    0.258217 0.468391 0.754458 0.238071
C43   C     C_3   0.411492 0.780536 0.105945 -0.916819
H25   H     H_    0.334021 0.793918 0.109541 0.242498
H26   H     H_    0.432074 0.772194 0.173776 0.236862
H27   H     H_    0.450839 0.838650 0.077569 0.248106
C44   C     C_3   0.367188 0.768771 0.920494 -0.884935
H28   H     H_    0.416002 0.792116 0.865612 0.240697
H29   H     H_    0.301070 0.744618 0.893583 0.244920
H30   H     H_    0.348095 0.827198 0.962460 0.246987
C45   C     C_3   0.274308 0.550104 0.929193 -0.961220
H31   H     H_    0.262587 0.482162 0.955824 0.244603
H32   H     H_    0.264651 0.597560 0.984595 0.242508
H33   H     H_    0.218932 0.565509 0.883870 0.248913
C46   C     C_3   0.637791 0.697225 0.090774 -0.944817
H34   H     H_    0.612373 0.730198 0.032524 0.241230
H35   H     H_    0.652714 0.750103 0.138686 0.250122
H36   H     H_    0.704407 0.661857 0.068637 0.241443
O9    O     O_3   0.332779 0.774573 0.463504 -0.630263
C47   C     C_3   0.321702 0.762392 0.373690 0.082280
H37   H     H_    0.381699 0.722358 0.342354 0.136264
H38   H     H_    0.318126 0.827962 0.340377 0.125810
C48   C     C_3   0.229351 0.712284 0.362909 -0.280740
H39   H     H_    0.231667 0.647475 0.396922 0.242840
H40   H     H_    0.168657 0.751671 0.393044 0.218224
C49   C     C_3   0.214029 0.695216 0.267134 -0.993192
H41   H     H_    0.208205 0.759371 0.232298 0.264629
H42   H     H_    0.147397 0.657172 0.261877 0.267831
H43   H     H_    0.273848 0.655692 0.235909 0.279685
O10   O     O_3   0.601637 0.229330 0.617259 -0.647239
C50   C     C_3   0.701022 0.219225 0.603357 0.083867
H44   H     H_    0.725663 0.229072 0.533472 0.126660
H45   H     H_    0.722640 0.151744 0.624252 0.134411
C51   C     C_3   0.748960 0.289229 0.657715 -0.294173
H46   H     H_    0.728913 0.356901 0.636279 0.241969
H47   H     H_    0.724027 0.281959 0.727485 0.224873
C52   C     C_3   0.856759 0.279691 0.648342 -0.974185
H48   H     H_    0.878491 0.214393 0.674245 0.262984
H49   H     H_    0.889412 0.333714 0.685614 0.271301
H50   H     H_    0.883328 0.284561 0.578878 0.267094

loop_
_geom_bond_atom_site_label_1
_geom_bond_atom_site_label_2
_ccdc_geom_bond_type
C45   H31   S    
C27   C29   A    
C11   C13   A    
O9    C47   S    
C31   H12   S    
C21   H9    S    
C33   C39   S    
C34   C40   S    
C35   C37   A    
C17   H5    S    
C19   H7    S    
C15   C25   A    
O10   C50   S    
C47   C48   S    
C1    O3    A    
O2    Zn2   S    
C49   H43   S    
C7    C9    A    
C23   O7    A    
C51   H46   S    
C41   H21   S    
C35   C45   S    
C44   H28   S    
O8    Zn1   S    
C47   H38   S    
C50   H44   S    
C31   C33   A    
C9    H15   S    
C23   C27   S    
C20   N2    A    
C15   H3    S    
C10   H16   S    
C16   H4    S    
C3    C13   A    
C24   O6    A    
C22   H10   S    
C52   H50   S    
C4    H14   S    
C37   C42   S    
C13   C14   S    
C50   H45   S    
C18   H6    S    
C5    O9    S    
C2    O4    A    
C16   C26   A    
C4    C6    A    
C39   C40   D    
C41   H20   S    
C6    C8    A    
C19   N1    A    
C25   C26   S    
C32   C34   A    
C42   H22   S    
C32   H11   S    
C46   H35   S    
C42   H23   S    
C48   H39   S    
O3    Zn2   S    
C28   C38   A    
C47   H37   S    
C44   H30   S    
C6    O10   S    
C40   C43   S    
C16   C18   A    
O4    Zn1   S    
C49   H42   S    
C9    C11   A    
C51   C52   S    
C20   H8    S    
C10   C12   A    
C17   N1    A    
C36   C46   S    
C18   N2    A    
C44   H29   S    
C20   C22   A    
C45   H32   S    
C50   C51   S    
C46   H34   S    
C5    C7    A    
C52   H48   S    
O1    Zn1   S    
C15   C17   A    
C21   C25   A    
C38   C41   S    
C29   H1    S    
C1    C7    S    
C2    C8    S    
C24   C28   S    
C12   C14   A    
C3    C5    A    
C1    O1    A    
C43   H27   S    
C43   H26   S    
O7    Zn2   S    
C23   O5    A    
C28   C30   A    
C12   H18   S    
C41   H19   S    
C29   C31   A    
C46   H36   S    
C30   C32   A    
C3    H13   S    
O6    Zn2   S    
N2    Zn1   S    
C27   C37   A    
O5    Zn1   S    
C36   C38   A    
C33   C35   A    
C34   C36   A    
C4    C14   A    
C49   H41   S    
C42   H24   S    
C51   H47   S    
C24   O8    A    
N1    Zn2   S    
C39   C44   S    
C43   H25   S    
C48   C49   S    
C8    C10   A    
C22   C26   A    
C45   H33   S    
C30   H2    S    
C52   H49   S    
C11   H17   S    
C48   H40   S    
C2    O2    A    
C19   C21   A    
