data_mof_unit_67309.cif
_audit_creation_date              2013-03-05T16:02:35-0500
_audit_creation_method            fapswitch 2.2
_symmetry_space_group_name_H-M    P1
_symmetry_Int_Tables_number       1
_space_group_crystal_system       triclinic
_cell_length_a                    8.842853
_cell_length_b                    14.880651
_cell_length_c                    16.998364
_cell_angle_alpha                 107.322623
_cell_angle_beta                  80.748932
_cell_angle_gamma                 93.107371
_cell_volume                      2107.49715237

loop_
_atom_site_label
_atom_site_type_symbol
_atom_site_description
_atom_site_fract_x
_atom_site_fract_y
_atom_site_fract_z
_atom_type_partial_charge
P1    P     P_3+3 0.619500 0.379780 0.307000 0.583002
O1    O     O_2   0.449810 0.404330 0.292300 -0.302264
O2    O     O_3   0.665430 0.428070 0.399450 -0.351643
O3    O     O_3   0.183150 0.584440 0.337010 -0.405653
O4    O     O_2   0.325331 0.482368 0.189718 -0.253107
O5    O     O_3   0.605299 0.256355 0.276703 -0.553000
O6    O     O_3   0.237129 0.652844 0.203228 -0.450258
H1    H     H_    0.055235 0.709723 0.298836 0.083254
C1    C     C_3   0.139349 0.809565 0.236410 -0.814584
H2    H     H_    0.156683 0.814444 0.171672 0.273531
P2    P     P_3+3 0.105540 0.727570 0.557610 0.620831
P3    P     P_3+3 0.626480 0.757705 0.381977 0.532215
O7    O     O_2   0.286000 0.735700 0.531070 -0.284455
O8    O     O_3   0.580930 0.641410 0.378050 -0.366235
O9    O     O_2   0.488117 0.813986 0.438619 -0.260927
O10   O     O_3   0.105732 0.797398 0.664923 -0.475324
O11   O     O_3   0.610580 0.777886 0.286958 -0.488262
C2    C     C_3   0.703834 0.716544 0.219481 0.703319
H3    H     H_    0.792504 0.683648 0.240367 -0.124712
C3    C     C_3   0.778439 0.772334 0.158871 -0.685948
C4    C     C_3   0.592146 0.816353 0.693921 -0.016476
C5    C     C_3   0.553217 0.922305 0.755831 -0.288243
Ba1   Ba    Ba6+2 0.356390 0.534880 0.456030 1.700071
C6    C     C_3   0.511732 0.222149 0.336138 0.638632
H4    H     H_    0.398998 0.256982 0.353621 0.063654
C7    C     C_3   0.493855 0.114659 0.300045 -0.086704
H5    H     H_    0.379882 0.100032 0.282823 0.099979
H6    H     H_    0.576818 0.087451 0.242553 0.243456
C8    C     C_3   0.064910 0.755565 0.730725 0.115990
H7    H     H_    0.966333 0.709318 0.718441 0.131752
C9    C     C_3   0.024609 0.831866 0.822029 -0.334650
P4    P     P_3+3 0.570190 0.620290 0.693000 0.634130
O12   O     O_2   0.739870 0.595710 0.707750 -0.343128
O13   O     O_3   0.524260 0.572010 0.600550 -0.308047
O14   O     O_3   0.006540 0.415640 0.663000 -0.342646
O15   O     O_3   0.535919 0.746727 0.735955 -0.490108
P5    P     P_3+3 0.560212 0.239039 0.619471 0.550722
O16   O     O_3   0.149240 0.378950 0.461440 -0.303626
O17   O     O_3   0.608760 0.358670 0.621950 -0.345475
O18   O     O_2   0.696432 0.180824 0.561965 -0.259172
O19   O     O_3   0.573611 0.220985 0.715449 -0.527528
Ba2   Ba    Ba6+2 0.833430 0.465200 0.543970 1.723553
P6    P     P_3+3 0.187702 0.549507 0.228902 0.548810
C10   C     C_3   0.106248 0.708991 0.234396 0.274250
H8    H     H_    0.022480 0.682361 0.191936 0.041245
H9    H     H_    0.038497 0.851869 0.273483 0.194227
O20   O     O_3   0.040450 0.621130 0.538560 -0.367144
C11   C     C_3   0.093620 0.209306 0.255580 -0.084068
C12   C     C_3   0.145258 0.128756 0.167318 -0.807197
P7    P     P_3+3 0.087311 0.256667 0.436671 0.552978
O21   O     O_2   0.903680 0.264350 0.468980 -0.250596
O22   O     O_3   0.145295 0.190852 0.325992 -0.624246
H10   H     H_    0.855216 0.825646 0.193228 0.181656
C13   C     C_3   0.610229 0.306381 0.771938 0.298809
H11   H     H_    0.709609 0.341270 0.743954 0.148973
H12   H     H_    0.510740 0.354454 0.791205 0.004533
C14   C     C_3   0.655922 0.287648 0.848455 0.013745
H13   H     H_    0.758367 0.242267 0.829608 0.203797
H14   H     H_    0.682056 0.355288 0.893959 0.145090
P8    P     P_3+3 0.013069 0.438002 0.770235 0.463637
C15   C     C_3   0.088486 0.262747 0.733690 0.319578
H15   H     H_    0.162711 0.291434 0.688393 0.043598
O23   O     O_2   0.871102 0.497715 0.819321 -0.379735
O24   O     O_3   0.982065 0.328811 0.788917 -0.555054
H16   H     H_    0.270944 0.286984 0.808202 0.226882
C16   C     C_3   0.197429 0.227991 0.779339 -0.790894
H17   H     H_    0.274701 0.173245 0.735274 0.256182
H18   H     H_    0.134251 0.195719 0.825945 0.283286
C17   C     C_2   0.311337 0.501035 0.748988 -0.417341
C18   C     C_R   0.890226 0.474565 0.253692 -0.499917
C19   C     C_2   0.470038 0.577536 0.851507 0.269769
C20   C     C_2   0.452512 0.557716 0.769865 0.251443
C21   C     C_2   0.197154 0.483005 0.807134 0.159467
C22   C     C_3   0.217100 0.511813 0.900278 -0.086646
C23   C     C_3   0.388013 0.520615 0.906833 0.059565
C24   C     C_2   0.119566 0.467600 0.965009 -0.057956
C25   C     C_2   0.077769 0.519699 0.045933 -0.191449
C26   C     C_R   0.836781 0.437481 0.090650 0.251897
C27   C     C_R   0.974172 0.484165 0.111376 -0.074306
C28   C     C_R   0.732098 0.405629 0.147953 -0.223522
C29   C     C_R   0.756192 0.425141 0.230657 0.311642
C30   C     C_R   0.003112 0.499712 0.194491 0.191727
H19   H     H_    0.630461 0.367727 0.127954 0.198392
H20   H     H_    0.281261 0.496687 0.689925 0.228677
H21   H     H_    0.909277 0.490858 0.317655 0.129568
H22   H     H_    0.120149 0.591143 0.064003 0.204714
C31   C     C_R   0.186054 0.945346 0.533849 0.013458
C32   C     C_R   0.024490 0.796555 0.495713 0.380514
C33   C     C_R   0.901131 0.752722 0.453947 -0.530463
C34   C     C_R   0.803316 0.804941 0.427076 0.111964
C35   C     C_R   0.834334 0.898424 0.436437 -0.100172
C36   C     C_R   0.969351 0.942331 0.463676 -0.077911
C37   C     C_R   0.061783 0.894056 0.498658 -0.036774
H23   H     H_    0.875332 0.679142 0.446934 0.134883
C38   C     C_R   0.133692 0.086986 0.492359 -0.127112
C39   C     C_R   0.221903 0.039739 0.531890 0.041538
C40   C     C_R   0.172110 0.185187 0.495807 0.208321
C41   C     C_R   0.291697 0.229565 0.540726 -0.073590
C42   C     C_R   0.383628 0.180950 0.574194 0.186967
C43   C     C_R   0.347112 0.086696 0.569642 -0.192370
C44   C     C_R   0.009152 0.033635 0.455722 0.337002
H24   H     H_    0.748015 0.935703 0.420951 0.228093
H25   H     H_    0.416684 0.049733 0.596531 0.234956
H26   H     H_    0.254181 0.912819 0.564648 0.215516
C45   C     C_2   0.562632 0.930647 0.846087 1.217991
O25   O     O_2   0.628928 0.871486 0.863633 -0.620636
O26   O     O_R   0.500620 0.008932 0.909715 -0.661023
H27   H     H_    0.518540 0.007801 0.966807 0.372042
C46   C     C_2   0.649346 0.001054 0.731661 1.146821
O27   O     O_2   0.723320 0.055461 0.780685 -0.629541
O28   O     O_R   0.651263 0.012297 0.652835 -0.743964
H28   H     H_    0.716087 0.067181 0.643880 0.367216
Br1   Br    Br    0.348819 0.964204 0.754484 -0.381507
Br2   Br    Br    0.607025 0.248414 0.431384 -0.286934
Br3   Br    Br    0.510632 0.036336 0.372080 -0.406033
C47   C     C_2   0.186154 0.689951 0.728995 1.002330
O29   O     O_2   0.254268 0.644808 0.662161 -0.551695
O30   O     O_R   0.218416 0.675344 0.801534 -0.787766
H29   H     H_    0.126883 0.676720 0.845664 0.317611
C48   C     C_2   0.275539 0.847925 0.277195 1.354792
O31   O     O_2   0.286644 0.838686 0.344799 -0.565777
O32   O     O_R   0.388076 0.897100 0.239716 -0.738338
H30   H     H_    0.363341 0.905625 0.186361 0.332883
Br4   Br    Br    0.189643 0.866174 0.891224 -0.315134
C49   C     C_2   0.903930 0.792442 0.876705 1.065877
O33   O     O_2   0.859908 0.710939 0.853402 -0.623966
O34   O     O_R   0.849483 0.848285 0.957136 -0.644465
H31   H     H_    0.763970 0.816184 0.985217 0.351539
C50   C     C_2   0.972788 0.927731 0.822121 1.199151
O35   O     O_2   0.008421 0.955591 0.761305 -0.504649
O36   O     O_R   0.902907 0.990726 0.896471 -0.727497
H32   H     H_    0.888979 0.055863 0.891493 0.346355
C51   C     C_2   0.925414 0.217103 0.274550 1.128395
O37   O     O_2   0.842225 0.153121 0.242767 -0.551124
O38   O     O_R   0.861528 0.295779 0.333970 -0.740847
H33   H     H_    0.929047 0.349442 0.359370 0.286795
C52   C     C_2   0.152941 0.302796 0.246744 0.939672
O39   O     O_2   0.153716 0.324170 0.182694 -0.607661
O40   O     O_R   0.185295 0.369839 0.316816 -0.708040
H34   H     H_    0.139122 0.431573 0.323350 0.323727
C53   C     C_2   0.076538 0.031818 0.167579 1.273677
O41   O     O_2   0.999637 0.988416 0.114479 -0.490587
O42   O     O_R   0.101118 0.989615 0.226669 -0.806069
H35   H     H_    0.170446 0.025868 0.266524 0.321661
C54   C     C_2   0.094256 0.150703 0.092087 1.186189
O43   O     O_2   0.964596 0.178537 0.096461 -0.626617
O44   O     O_R   0.193414 0.133496 0.016145 -0.666589
H36   H     H_    0.143815 0.145107 0.970327 0.356419
C55   C     C_2   0.319450 0.120348 0.146872 1.057575
O45   O     O_2   0.380370 0.043178 0.124940 -0.687850
O46   O     O_R   0.410073 0.199985 0.145280 -0.721685
H37   H     H_    0.522605 0.184355 0.125551 0.353735
Br5   Br    Br    0.499732 0.221363 0.902675 -0.325244
C56   C     C_2   0.000643 0.182843 0.686120 0.935122
O47   O     O_2   0.918946 0.197487 0.640337 -0.611508
O48   O     O_R   0.013352 0.092440 0.692439 -0.733358
H38   H     H_    0.956798 0.043596 0.652256 0.354447
Br6   Br    Br    0.578876 0.613874 0.165470 -0.350437
Br7   Br    Br    0.535408 0.696980 0.911810 -0.276539
C57   C     C_2   0.104449 0.365523 0.951151 1.056974
O49   O     O_2   0.207800 0.323755 0.964414 -0.574585
O50   O     O_R   0.963427 0.320779 0.938962 -0.787594
H39   H     H_    0.959757 0.254292 0.943505 0.323816
Br8   Br    Br    0.333149 0.360558 0.562192 -0.433556
Br9   Br    Br    0.894671 0.071159 0.384219 -0.402789
C58   C     C_2   0.872073 0.714317 0.079100 0.964891
O51   O     O_2   0.002951 0.738899 0.058704 -0.595236
O52   O     O_R   0.805960 0.638441 0.024650 -0.718801
H40   H     H_    0.878884 0.608967 0.971779 0.360097
C59   C     C_2   0.664204 0.826280 0.135340 1.242424
O53   O     O_2   0.558561 0.785325 0.100559 -0.567055
O54   O     O_R   0.686021 0.922917 0.148057 -0.704630
H41   H     H_    0.614236 0.949872 0.120291 0.356925
C60   C     C_2   0.758628 0.803119 0.662905 0.767345
O55   O     O_2   0.841954 0.868261 0.654723 -0.635834
O56   O     O_R   0.815288 0.713669 0.628789 -0.746584
H42   H     H_    0.769579 0.671828 0.580403 0.297759
C61   C     C_2   0.526958 0.801018 0.615542 1.051263
O57   O     O_2   0.495625 0.866758 0.592594 -0.580407
O58   O     O_R   0.529896 0.712145 0.560772 -0.686203
H43   H     H_    0.617065 0.705297 0.514572 0.274035

loop_
_geom_bond_atom_site_label_1
_geom_bond_atom_site_label_2
_geom_bond_distance
_ccdc_geom_bond_type
C3    C59   1.494613 S    
O2    Ba2   2.970405 S    
C6    Br2   1.873560 S    
C15   O24   1.414217 S    
C21   C22   1.548913 S    
C13   H11   1.109649 S    
C16   H18   1.107038 S    
C38   C39   1.436523 A    
O13   Ba2   3.105001 S    
C15   C56   1.483336 S    
C54   O43   1.223691 D    
C14   H13   1.106133 S    
C55   O45   1.222883 D    
O38   H33   1.003222 S    
P4    C20   1.959414 S    
C4    O15   1.449806 S    
C10   H8    1.093806 S    
C52   O40   1.366329 S    
C7    H5    1.087188 S    
O50   H39   1.013453 S    
Ba1   Ba2   4.952696 S    
C22   C24   1.565852 S    
C11   C52   1.501051 S    
P8    O23   1.550610 D    
O12   Ba2   2.901839 S    
P4    O15   1.826878 S    
P3    C34   1.863435 S    
O48   H38   1.009808 S    
C6    C7    1.542474 S    
C9    Br4   1.971642 S    
O16   Ba2   3.077498 S    
P5    O18   1.545067 D    
C55   O46   1.398722 S    
C28   C29   1.397345 A    
C26   C28   1.402799 A    
C14   H14   1.110590 S    
C59   O53   1.222688 D    
P1    C29   1.878719 S    
O42   H35   1.002946 S    
C41   C42   1.401933 A    
C31   C37   1.412978 A    
P8    C21   1.857872 S    
C47   O29   1.214118 D    
O7    Ba1   2.936165 S    
P1    O1    1.637643 D    
C33   H23   1.081210 S    
C18   C29   1.407924 A    
O14   Ba2   2.997969 S    
O30   H29   1.007821 S    
O44   H36   1.013391 S    
C60   O55   1.213200 D    
P2    O20   1.612619 S    
C15   C16   1.526771 S    
C5    Br1   1.949396 S    
O28   H28   1.006975 S    
P7    C40   1.915643 S    
C12   C53   1.535587 S    
P3    O11   1.756455 S    
P7    O22   1.846248 S    
O46   H37   1.013970 S    
C17   C21   1.369692 D    
O6    P6    1.735379 S    
C1    H2    1.109902 S    
C56   O48   1.392901 S    
Ba2   O21   2.936239 S    
C5    C46   1.526763 S    
C16   H17   1.106366 S    
O4    P6    1.548511 D    
C1    H9    1.110255 S    
C4    C5    1.632813 S    
C58   O52   1.397629 S    
C58   O51   1.222310 D    
C28   H19   1.081914 S    
C54   O44   1.401564 S    
C48   O32   1.387975 S    
C40   C41   1.421629 A    
O17   Ba2   2.877541 S    
O32   H30   1.010828 S    
C25   C27   1.525260 S    
C13   H12   1.108639 S    
Ba1   O20   3.078483 S    
C22   C23   1.528972 S    
P1    O5    1.756923 S    
C61   O57   1.215445 D    
C11   C51   1.473799 S    
C7    Br3   1.951100 S    
C24   C25   1.364686 D    
C35   C36   1.407041 A    
O3    Ba1   2.998553 S    
C26   C27   1.408227 A    
C2    H3    1.102311 S    
P7    O21   1.627109 D    
O2    Ba1   3.104012 S    
C14   Br5   1.927277 S    
C43   H25   1.080175 S    
O14   P8    1.762739 S    
P1    O2    1.628506 S    
C53   O42   1.382442 S    
C57   O50   1.397232 S    
O8    Ba1   2.876867 S    
C17   C20   1.498629 S    
C8    H7    1.088570 S    
C2    Br6   1.925077 S    
C45   O26   1.398502 S    
P2    O10   1.810878 S    
C41   Br8   1.899771 S    
C42   C43   1.404173 A    
P3    O9    1.541938 D    
P2    C32   1.907850 S    
O26   H27   1.013254 S    
Ba1   O13   2.969691 S    
O5    C6    1.398649 S    
C31   C39   1.432049 A    
O11   C2    1.408147 S    
C12   C54   1.547750 S    
O6    C10   1.400842 S    
C6    H4    1.104453 S    
C44   Br9   1.917020 S    
C56   O47   1.214036 D    
C36   C44   1.424916 A    
C4    C61   1.486956 S    
O52   H40   1.012677 S    
C8    C47   1.479841 S    
P3    O8    1.739478 S    
C25   H22   1.079070 S    
H16   C16   1.103690 S    
C49   O33   1.221345 D    
C9    C49   1.511519 S    
C35   H24   1.075694 S    
O34   H31   1.004182 S    
C5    C45   1.517450 S    
P5    C42   1.903075 S    
C3    C58   1.512944 S    
O54   H41   1.011573 S    
C49   O34   1.395257 S    
C50   O35   1.214979 D    
C45   O25   1.214992 D    
P6    C30   1.863697 S    
C32   C37   1.458255 A    
C24   C57   1.468213 S    
C1    C10   1.500634 S    
C8    C9    1.625281 S    
H1    C10   1.112654 S    
C3    H10   1.106596 S    
C27   C30   1.424879 A    
C61   O58   1.370835 S    
O40   H34   0.994120 S    
C38   C40   1.468258 A    
P1    Ba1   3.516088 S    
O16   P7    1.816085 S    
O3    P6    1.748837 S    
Ba1   O16   2.891371 S    
C19   Br7   1.881011 S    
C52   O39   1.220713 D    
C7    H6    1.106009 S    
C12   C55   1.527088 S    
P8    O24   1.745599 S    
P4    O12   1.638013 D    
C46   O28   1.396254 S    
O10   C8    1.424558 S    
C19   C20   1.362863 D    
C9    C50   1.521283 S    
C17   H20   1.062172 S    
C53   O41   1.223462 D    
C57   O49   1.218055 D    
C19   C23   1.521985 S    
P2    O7    1.595237 D    
C34   C35   1.369877 A    
C51   O37   1.218628 D    
C59   O54   1.396441 S    
C11   C12   1.632276 S    
C39   C43   1.415454 A    
P2    Ba1   3.554354 S    
C36   C37   1.418448 A    
C47   O30   1.388695 S    
C2    C3    1.554773 S    
Ba2   O20   2.890698 S    
P5    O19   1.753426 S    
C15   H15   1.099445 S    
C18   C30   1.417729 A    
C60   O56   1.370507 S    
O19   C13   1.403705 S    
O56   H42   1.001085 S    
C31   H26   1.074804 S    
C38   C44   1.436058 A    
C11   O22   1.449800 S    
C32   C33   1.419689 A    
P5    O17   1.798182 S    
C4    C60   1.484619 S    
O1    Ba1   2.901261 S    
C51   O38   1.376244 S    
C1    C48   1.488313 S    
P4    Ba2   3.516688 S    
C48   O31   1.216945 D    
C33   C34   1.404239 A    
C46   O27   1.222248 D    
C18   H21   1.080181 S    
O58   H43   0.993726 S    
O36   H32   1.013389 S    
P4    O13   1.628485 S    
C50   O36   1.401451 S    
C13   C14   1.526353 S    
