data_mof_unit_38329.cif
_audit_creation_date              2012-10-26T20:19:14-0400
_audit_creation_method            fapswitch 2.2
_symmetry_space_group_name_H-M    P1
_symmetry_Int_Tables_number       1
_space_group_crystal_system       triclinic
_cell_length_a                    15.063598
_cell_length_b                    13.114529
_cell_length_c                    11.750747
_cell_angle_alpha                 97.690654
_cell_angle_beta                  91.705046
_cell_angle_gamma                 92.441957
_cell_volume                      2296.93943964

loop_
_atom_site_label
_atom_site_type_symbol
_atom_type_description
_atom_site_fract_x
_atom_site_fract_y
_atom_site_fract_z
_atom_type_partial_charge
Br1   Br    Br    0.097317 0.237859 0.265949 -0.452333
Br2   Br    Br    0.903541 0.746792 0.760038 -0.458306
Br3   Br    Br    0.316585 0.983258 0.288008 -0.484900
Br4   Br    Br    0.680749 0.018775 0.710666 -0.490711
Br5   Br    Br    0.368311 0.370119 0.766039 -0.508854
Br6   Br    Br    0.630304 0.631601 0.234281 -0.492472
C1    C     C_R   0.499752 0.300206 0.481314 0.540786
C2    C     C_R   0.558714 0.864621 0.611415 -0.103118
C3    C     C_R   0.532670 0.135122 0.560856 -0.027511
C4    C     C_R   0.462978 0.863450 0.440332 -0.026706
C5    C     C_R   0.527630 0.026139 0.544058 0.002035
C6    C     C_R   0.469806 0.972608 0.454433 -0.001902
C7    C     C_R   0.407356 0.411998 0.032708 -0.176138
C8    C     C_R   0.590212 0.591383 0.967774 -0.176887
C9    C     C_R   0.418245 0.418069 0.151908 0.009777
C10   C     C_R   0.580909 0.583103 0.848242 0.005165
C11   C     C_R   0.540296 0.539080 0.151767 0.301156
C12   C     C_R   0.499265 0.699549 0.518842 0.552498
C13   C     C_R   0.458051 0.463178 0.848515 0.288130
C14   C     C_R   0.532439 0.534116 0.030433 -0.017197
C15   C     C_R   0.464761 0.469768 0.970098 -0.016064
C16   C     C_R   0.329517 0.504229 0.502623 0.553102
C17   C     C_R   0.670816 0.497537 0.497731 0.547482
C18   C     C_R   0.816367 0.566423 0.574237 -0.105809
C19   C     C_R   0.184403 0.428104 0.437424 -0.105692
C20   C     C_R   0.767503 0.495702 0.494335 -0.006174
C21   C     C_R   0.233251 0.505390 0.508277 -0.006700
C22   C     C_R   0.811118 0.424847 0.416282 -0.025153
C23   C     C_R   0.042962 0.346205 0.362853 0.161417
C24   C     C_R   0.190380 0.581412 0.580883 -0.027090
C25   C     C_R   0.904843 0.422413 0.425310 -0.019324
C26   C     C_R   0.096545 0.576777 0.581893 -0.013996
C27   C     C_R   0.953707 0.497160 0.503708 0.018271
C28   C     C_R   0.047463 0.499072 0.507327 0.017334
C29   C     C_R   0.909061 0.570210 0.577979 0.029085
C30   C     C_R   0.091956 0.423999 0.435275 0.028433
C31   C     C_R   0.950826 0.345729 0.358811 -0.090989
C32   C     C_R   0.050632 0.648072 0.655649 -0.084624
C33   C     C_R   0.760738 0.354345 0.324665 0.041980
C34   C     C_R   0.958194 0.644976 0.654740 0.161713
C35   C     C_R   0.777296 0.361107 0.208816 -0.077762
C36   C     C_R   0.742501 0.285049 0.122740 -0.109463
C37   C     C_R   0.686493 0.205039 0.150553 -0.092681
C38   C     C_R   0.667295 0.199568 0.265169 -0.085820
C39   C     C_R   0.705243 0.273151 0.352058 -0.055560
C40   C     C_R   0.242749 0.670781 0.645142 0.004294
C41   C     C_R   0.241977 0.767295 0.605771 -0.115694
C42   C     C_R   0.294836 0.850407 0.661504 -0.098546
C43   C     C_R   0.347703 0.838129 0.757964 -0.086779
C44   C     C_R   0.346317 0.743319 0.799962 -0.080530
C45   C     C_R   0.503266 0.811265 0.525055 -0.027021
C46   C     C_R   0.292822 0.660393 0.745210 -0.047734
C47   C     C_R   0.426600 0.804593 0.330457 0.097101
C48   C     C_R   0.469829 0.814423 0.227871 -0.020095
C49   C     C_R   0.436659 0.760144 0.123907 -0.082806
C50   C     C_R   0.360727 0.694635 0.121423 -0.083363
C51   C     C_R   0.317791 0.683516 0.223081 -0.059377
C52   C     C_R   0.350267 0.738510 0.327161 -0.012670
C53   C     C_R   0.558717 0.190584 0.676881 0.100717
C54   C     C_R   0.633763 0.259249 0.695496 0.004143
C55   C     C_R   0.654578 0.311603 0.805152 -0.069830
C56   C     C_R   0.494762 0.188158 0.475153 -0.041882
C57   C     C_R   0.602303 0.293741 0.897233 -0.104901
C58   C     C_R   0.530190 0.222400 0.880818 -0.083148
C59   C     C_R   0.507832 0.171698 0.770998 -0.023744
C60   C     C_R   0.421374 0.030727 0.382046 0.138031
C61   C     C_R   0.576835 0.968755 0.616203 0.140764
C62   C     C_R   0.440709 0.134913 0.386968 -0.107398
Cu1   Cu    Cu3+1 0.506660 0.507730 0.615930 0.996526
Cu2   Cu    Cu3+1 0.493340 0.492270 0.384070 1.011436
H1    H     H_    0.780706 0.620307 0.631812 0.173136
H2    H     H_    0.373852 0.373065 0.198522 0.149046
H3    H     H_    0.821101 0.422232 0.185950 0.140760
H4    H     H_    0.759829 0.287777 0.034501 0.133857
H5    H     H_    0.658837 0.146735 0.083471 0.140784
H6    H     H_    0.624952 0.136792 0.286900 0.121311
H7    H     H_    0.693371 0.265188 0.440312 0.089103
H8    H     H_    0.201343 0.777618 0.530938 0.137102
H9    H     H_    0.295446 0.923989 0.629283 0.148031
H10   H     H_    0.389545 0.902058 0.800248 0.121137
H11   H     H_    0.387304 0.733697 0.874216 0.100666
H12   H     H_    0.219993 0.371261 0.383526 0.172923
H13   H     H_    0.291814 0.587710 0.779343 0.155736
H14   H     H_    0.529143 0.864241 0.228630 0.131908
H15   H     H_    0.470881 0.768010 0.045771 0.109440
H16   H     H_    0.335720 0.651532 0.041068 0.111609
H17   H     H_    0.259599 0.631912 0.221383 0.121321
H18   H     H_    0.317235 0.728151 0.405062 0.096622
H19   H     H_    0.675285 0.273341 0.625678 0.099541
H20   H     H_    0.710741 0.366660 0.818587 0.117660
H21   H     H_    0.616171 0.337043 0.981041 0.122604
H22   H     H_    0.490197 0.208464 0.952667 0.122690
H23   H     H_    0.354191 0.361223 0.991315 0.170231
H24   H     H_    0.450459 0.118185 0.758937 0.121071
H25   H     H_    0.643091 0.642555 0.009231 0.172556
H26   H     H_    0.915836 0.283526 0.303341 0.166951
H27   H     H_    0.086126 0.706687 0.715642 0.168140
H28   H     H_    0.595331 0.823063 0.669893 0.170944
H29   H     H_    0.405312 0.176836 0.327721 0.173187
H30   H     H_    0.625766 0.627452 0.801526 0.151324
N1    N     N_R   0.516670 0.519360 0.790130 -0.228132
N2    N     N_R   0.483330 0.480640 0.209870 -0.223301
O1    O     O_R   0.504720 0.354460 0.582000 -0.461769
O2    O     O_R   0.495280 0.645540 0.418000 -0.464320
O3    O     O_R   0.493480 0.341410 0.386200 -0.519219
O4    O     O_R   0.506520 0.658590 0.613800 -0.519632
O5    O     O_R   0.375880 0.506510 0.597910 -0.455688
O6    O     O_R   0.624120 0.493490 0.402090 -0.441531
O7    O     O_R   0.364640 0.493450 0.402110 -0.530889
O8    O     O_R   0.635360 0.506550 0.597890 -0.532832

loop_
_geom_bond_atom_site_label_1
_geom_bond_atom_site_label_2
_ccdc_geom_bond_type
C60   C62   A    
C49   C50   A    
C35   C36   A    
C37   C38   A    
C48   H14   S    
Cu1   O5    S    
C33   C35   A    
C54   H19   S    
C38   C39   A    
C9    H2    S    
C23   C30   A    
C42   H9    S    
C13   C15   A    
C18   C20   A    
Cu2   O2    S    
C16   O5    A    
C40   C46   A    
C11   C14   A    
C50   C51   A    
C38   H6    S    
C17   C20   S    
C55   C57   A    
C4    C47   S    
C2    H28   S    
C40   C41   A    
C44   C46   A    
C1    O3    A    
C26   C32   A    
C33   C39   A    
C53   C54   A    
C32   C34   A    
C1    O1    A    
C21   C24   A    
C17   O8    A    
C32   H27   S    
C4    C45   A    
C5    C61   A    
C12   C45   S    
Cu1   O1    S    
C37   H5    S    
C36   H4    S    
C18   C29   A    
C25   C27   A    
C3    C56   A    
C8    C14   A    
C10   H30   S    
C22   C33   S    
C47   C48   A    
C6    C60   A    
C51   H17   S    
C31   H26   S    
C7    H23   S    
C54   C55   A    
C3    C53   S    
C26   C28   A    
C49   H15   S    
C46   H13   S    
C11   N2    A    
C12   O4    A    
C1    C56   S    
Cu2   O7    S    
Br2   C34   S    
Cu1   O8    S    
C50   H16   S    
C41   C42   A    
C5    C6    A    
C16   O7    A    
Br1   C23   S    
C27   C28   A    
C7    C15   A    
C12   O2    A    
C3    C5    A    
C2    C45   A    
C4    C6    A    
C59   H24   S    
C16   C21   S    
C7    C9    A    
C19   H12   S    
C8    C10   A    
Br3   C60   S    
C36   C37   A    
C58   H22   S    
C57   H21   S    
C8    H25   S    
C55   H20   S    
Br6   C11   S    
C48   C49   A    
C42   C43   A    
Cu1   O4    S    
C24   C40   S    
C22   C25   A    
Cu2   O3    S    
C52   H18   S    
Br4   C61   S    
C47   C52   A    
Cu2   N2    S    
Br5   C13   S    
Cu1   N1    S    
C19   C21   A    
C20   C22   A    
C43   H10   S    
C56   C62   A    
C58   C59   A    
C29   C34   A    
C62   H29   S    
Cu2   O6    S    
C53   C59   A    
C24   C26   A    
C13   N1    A    
C51   C52   A    
C17   O6    A    
C27   C29   A    
C28   C30   A    
C9    N2    A    
Cu1   Cu2   S    
C19   C30   A    
C35   H3    S    
C57   C58   A    
C25   C31   A    
C10   N1    A    
C14   C15   A    
C44   H11   S    
C2    C61   A    
C43   C44   A    
C23   C31   A    
C39   H7    S    
C41   H8    S    
C18   H1    S    
