data_mof_unit_66597.cif
_audit_creation_date              2012-12-11T16:30:29-0500
_audit_creation_method            fapswitch 2.2
_symmetry_space_group_name_H-M    P1
_symmetry_Int_Tables_number       1
_space_group_crystal_system       triclinic
_cell_length_a                    6.936183
_cell_length_b                    14.192303
_cell_length_c                    16.388533
_cell_angle_alpha                 89.934501
_cell_angle_beta                  89.289673
_cell_angle_gamma                 90.048623
_cell_volume                      1613.16828696

loop_
_atom_site_label
_atom_site_type_symbol
_atom_type_description
_atom_site_fract_x
_atom_site_fract_y
_atom_site_fract_z
_atom_type_partial_charge
O1    O     O_R   0.611670 0.415650 0.164070 -0.547305
O2    O     O_R   0.388330 0.915650 0.835930 -0.544595
O3    O     O_R   0.940950 0.405490 0.337780 -0.504065
O4    O     O_R   0.059050 0.905490 0.662220 -0.504775
O5    O     O_R   0.111350 0.584350 0.338470 -0.535209
O6    O     O_R   0.888650 0.084350 0.661530 -0.530397
C1    C     C_R   0.771108 0.383040 0.366706 0.807757
C2    C     C_R   0.228724 0.883524 0.632803 0.804844
O7    O     O_R   0.941380 0.404630 0.164680 -0.545342
O8    O     O_R   0.058620 0.904630 0.835320 -0.544989
O9    O     O_R   0.111780 0.583470 0.164130 -0.531719
O10   O     O_R   0.888220 0.083470 0.835870 -0.531921
C3    C     C_R   0.773098 0.378563 0.139072 0.661261
C4    C     C_R   0.226389 0.880215 0.862375 0.665084
O11   O     O_R   0.611240 0.416530 0.338400 -0.534629
O12   O     O_R   0.388760 0.916530 0.661600 -0.532817
O13   O     O_3   0.778020 0.558680 0.251290 -0.350197
O14   O     O_3   0.221980 0.058680 0.748710 -0.356996
V1    V     V_3+5 0.052840 0.489110 0.251260 1.610579
V2    V     V_3+5 0.947160 0.989110 0.748740 1.607664
O15   O     O_R   0.441500 0.594510 0.164760 -0.535538
O16   O     O_R   0.558500 0.094510 0.835240 -0.557003
C5    C     C_R   0.274284 0.621919 0.139969 0.696743
C6    C     C_R   0.726467 0.122433 0.859665 0.656185
O17   O     O_R   0.441080 0.595370 0.337860 -0.516380
O18   O     O_R   0.558920 0.095370 0.662140 -0.514585
C7    C     C_R   0.271822 0.617315 0.367421 0.801742
C8    C     C_R   0.728348 0.116474 0.631866 0.799922
V3    V     V_3+5 0.552850 0.510890 0.251270 1.583153
V4    V     V_3+5 0.447150 0.010890 0.748730 1.573524
O19   O     O_3   0.277800 0.441320 0.251250 -0.367025
O20   O     O_3   0.722200 0.941320 0.748750 -0.361745
C9    C     C_3   0.100055 0.661348 0.500722 -0.482351
C10   C     C_3   0.895837 0.159124 0.497113 -0.483803
H1    H     H_    0.959903 0.650989 0.469837 0.229857
H2    H     H_    0.036911 0.146715 0.526755 0.227687
H3    H     H_    0.136473 0.592856 0.529818 0.240632
H4    H     H_    0.854005 0.091444 0.468001 0.238118
C11   C     C_3   0.076124 0.738360 0.567160 0.408818
C12   C     C_3   0.920929 0.236597 0.430951 0.407142
H5    H     H_    0.936337 0.774457 0.557213 0.254652
H6    H     H_    0.062204 0.271581 0.440587 0.249391
C13   C     C_3   0.223081 0.791498 0.406307 -0.269039
C14   C     C_3   0.785289 0.290582 0.592290 -0.295105
C15   C     C_3   0.453137 0.689951 0.486011 0.474473
C16   C     C_3   0.545145 0.191515 0.515237 0.479916
C17   C     C_3   0.260872 0.688867 0.437874 -0.286096
C18   C     C_3   0.739792 0.188281 0.561427 -0.279326
H7    H     H_    0.480653 0.617032 0.508243 0.067430
H8    H     H_    0.512642 0.118854 0.493710 0.063415
C19   C     C_3   0.242184 0.812552 0.562133 -0.321485
C20   C     C_3   0.757555 0.312020 0.437135 -0.317330
C21   C     C_3   0.217208 0.864060 0.478783 0.377152
C22   C     C_3   0.787653 0.363346 0.519930 0.368076
C23   C     C_3   0.444834 0.761456 0.558632 0.374493
C24   C     C_3   0.552970 0.262697 0.442295 0.368795
H9    H     H_    0.346236 0.812070 0.366464 0.153508
H10   H     H_    0.666723 0.313109 0.633654 0.171130
H11   H     H_    0.336779 0.915578 0.470063 0.163329
H12   H     H_    0.668807 0.414905 0.529787 0.170161
C25   C     C_R   0.253390 0.947295 0.027676 -0.241437
C26   C     C_R   0.737588 0.450010 0.977654 -0.241461
C27   C     C_R   0.291504 0.984047 0.104770 0.027976
C28   C     C_R   0.691385 0.490864 0.903346 0.002577
C29   C     C_R   0.359890 0.923966 0.165474 -0.077368
C30   C     C_R   0.633098 0.433090 0.839811 -0.031907
C31   C     C_R   0.385755 0.827766 0.149926 -0.066016
C32   C     C_R   0.631233 0.334727 0.848113 -0.047792
C33   C     C_R   0.309161 0.787179 0.077790 0.079761
C34   C     C_R   0.700679 0.290569 0.920708 0.013303
C35   C     C_R   0.264085 0.849420 0.012457 0.054660
C36   C     C_R   0.736679 0.351014 0.988758 0.065946
C37   C     C_R   0.273627 0.688396 0.068759 -0.133496
C38   C     C_R   0.729669 0.190475 0.929866 -0.155778
C39   C     C_R   0.231348 0.652629 0.990257 0.048974
C40   C     C_R   0.762727 0.153231 0.008951 0.063498
C41   C     C_R   0.218781 0.714594 0.921970 0.048674
C42   C     C_R   0.774406 0.213912 0.077901 0.034811
C43   C     C_R   0.232621 0.813594 0.933149 -0.143778
C44   C     C_R   0.766213 0.313126 0.067574 -0.141955
C45   C     C_R   0.210090 0.554606 0.977719 -0.204920
C46   C     C_R   0.775689 0.054655 0.021259 -0.210819
C47   C     C_R   0.184152 0.518067 0.900142 -0.139900
C48   C     C_R   0.789664 0.016604 0.098905 -0.145578
C49   C     C_R   0.180059 0.577760 0.832616 0.014330
C50   C     C_R   0.790983 0.075131 0.167127 0.042673
C51   C     C_R   0.193145 0.675461 0.843669 -0.135548
C52   C     C_R   0.790123 0.173248 0.156342 -0.150707
H13   H     H_    0.210896 0.995852 0.980149 0.106965
H14   H     H_    0.775385 0.497081 0.026890 0.118144
H15   H     H_    0.409354 0.953394 0.222504 0.152550
H16   H     H_    0.585144 0.464874 0.783350 0.164246
H17   H     H_    0.219290 0.504374 0.027185 0.126122
H18   H     H_    0.768266 0.004908 0.971476 0.132781
H19   H     H_    0.173519 0.442385 0.892639 0.180869
H20   H     H_    0.792878 0.940667 0.105593 0.186022
H21   H     H_    0.181310 0.720651 0.790977 0.135347
H22   H     H_    0.800333 0.217623 0.209478 0.135656
F1    F     F_    0.586718 0.829225 0.545722 -0.643936
F2    F     F_    0.413930 0.331551 0.455956 -0.643525
C53   C     C_2   0.167965 0.537559 0.750182 0.559438
H23   H     H_    0.237789 0.572155 0.699049 0.084352
O21   O     O_2   0.081543 0.464124 0.738691 -0.484827
C54   C     C_2   0.784212 0.033653 0.249745 0.484918
H24   H     H_    0.745420 0.076104 0.301858 0.110045
O22   O     O_2   0.815453 0.950074 0.260396 -0.516591
C55   C     C_2   0.273610 0.086673 0.118615 0.409976
H25   H     H_    0.229656 0.132610 0.069208 0.042924
O23   O     O_2   0.306454 0.121222 0.185178 -0.502740
C56   C     C_2   0.697239 0.594644 0.894396 0.402831
H26   H     H_    0.734251 0.638521 0.946136 0.060567
O24   O     O_2   0.662491 0.632444 0.829268 -0.511191
C57   C     C_2   0.537913 0.781333 0.197522 0.423830
H27   H     H_    0.544494 0.790152 0.262860 0.089284
O25   O     O_2   0.670306 0.740826 0.162560 -0.503029
C58   C     C_2   0.534158 0.283822 0.782688 0.424301
H28   H     H_    0.610071 0.230953 0.748955 0.057225
O26   O     O_2   0.369718 0.304068 0.763783 -0.486723
F3    F     F_    0.063051 0.698232 0.643636 -0.706961
F4    F     F_    0.931174 0.197265 0.354177 -0.703577
C59   C     C_2   0.044337 0.795807 0.354816 0.554633
H29   H     H_    0.902626 0.796438 0.383301 0.184628
O27   O     O_2   0.057914 0.796499 0.280506 -0.523407
C60   C     C_2   0.969579 0.292769 0.640386 0.593441
H30   H     H_    0.107161 0.302664 0.609715 0.205626
O28   O     O_2   0.965957 0.280445 0.714094 -0.516527
F5    F     F_    0.048133 0.916506 0.479454 -0.684709
F6    F     F_    0.956576 0.416028 0.517450 -0.686698
F7    F     F_    0.606058 0.713043 0.434467 -0.674560
F8    F     F_    0.396615 0.216407 0.568245 -0.657978
C61   C     C_2   0.494136 0.712654 0.637832 0.461303
H31   H     H_    0.410170 0.725347 0.692588 0.023302
O29   O     O_2   0.636840 0.662662 0.642301 -0.471648
C62   C     C_2   0.498471 0.214263 0.363688 0.456122
H32   H     H_    0.575844 0.229188 0.307635 0.021135
O30   O     O_2   0.357805 0.162597 0.361173 -0.473545

loop_
_geom_bond_atom_site_label_1
_geom_bond_atom_site_label_2
_ccdc_geom_bond_type
C11   C19   S    
C27   C29   A    
C15   F7    S    
C53   H23   S    
C46   H18   S    
O13   V3    S    
C30   C32   A    
O4    C2    A    
C50   C54   S    
C54   O22   D    
C21   H11   S    
C11   H5    S    
C22   H12   S    
C24   C62   S    
O9    V1    S    
C9    C11   S    
C38   C40   A    
C10   C12   S    
C48   C50   A    
C1    C20   S    
O3    C1    A    
C42   C44   A    
O12   V4    S    
C58   H28   S    
C25   C27   A    
O7    V1    S    
C48   H20   S    
C33   C35   A    
O7    C3    A    
C56   H26   S    
C46   C48   A    
C26   C28   A    
C21   F5    S    
O13   V1    S    
O5    C7    A    
C13   C21   S    
O6    C8    A    
O8    V2    S    
C29   C31   A    
C34   C38   A    
C55   H25   S    
C33   C37   A    
O14   V4    S    
C13   C59   S    
O14   V2    S    
C25   C35   A    
C2    O12   A    
C49   C51   A    
C3    C44   S    
V1    O19   S    
C53   O21   D    
C37   C39   A    
C8    C18   S    
C5    C37   S    
C35   C43   A    
C54   H24   S    
C45   C47   A    
C25   H13   S    
O11   V3    S    
C15   C17   S    
O17   V3    S    
C16   C18   S    
O8    C4    A    
C40   C46   A    
C39   C45   A    
C30   H16   S    
C1    O11   A    
C19   C23   S    
C12   C20   S    
O15   V3    S    
C14   C60   S    
C9    H3    S    
C36   C44   A    
C57   O25   D    
C19   C21   S    
C28   C30   A    
C45   H17   S    
C28   C56   S    
C15   H7    S    
C47   H19   S    
O10   V2    S    
O1    V3    S    
C41   C43   A    
C26   C36   A    
C4    C43   S    
O3    V1    S    
C39   C41   A    
C2    C19   S    
C15   C23   S    
C59   H29   S    
C32   C58   S    
C12   F4    S    
O18   V4    S    
C23   C61   S    
O15   C5    A    
C9    C17   S    
O16   C6    A    
O1    C3    A    
C24   F2    S    
C27   C55   S    
C61   H31   S    
C14   H10   S    
C49   C53   S    
C60   O28   D    
C57   H27   S    
V2    O20   S    
C7    C17   S    
C29   H15   S    
C16   H8    S    
C42   C52   A    
O16   V4    S    
C47   C49   A    
C10   H4    S    
C40   C42   A    
C12   H6    S    
C61   O29   D    
C16   C24   S    
C16   F8    S    
C62   O30   D    
C62   H32   S    
O5    V1    S    
O17   C7    A    
O6    V2    S    
O10   C6    A    
O18   C8    A    
O2    V4    S    
C31   C57   S    
V3    O19   S    
C14   C18   S    
V4    O20   S    
C6    C38   S    
C55   O23   D    
C22   F6    S    
C11   F3    S    
C26   H14   S    
O9    C5    A    
C9    H1    S    
C10   H2    S    
C58   O26   D    
C20   C22   S    
C50   C52   A    
O2    C4    A    
C56   O24   D    
C59   O27   D    
C13   H9    S    
O4    V2    S    
C14   C22   S    
C10   C18   S    
C41   C51   A    
C32   C34   A    
C23   F1    S    
C34   C36   A    
C31   C33   A    
C13   C17   S    
C52   H22   S    
C20   C24   S    
C60   H30   S    
C51   H21   S    
