data_mof_unit_16069.cif
_audit_creation_date              2012-10-26T19:23:50-0400
_audit_creation_method            fapswitch 2.2
_symmetry_space_group_name_H-M    P1
_symmetry_Int_Tables_number       1
_space_group_crystal_system       triclinic
_cell_length_a                    27.715387
_cell_length_b                    13.006723
_cell_length_c                    11.657141
_cell_angle_alpha                 99.360397
_cell_angle_beta                  93.06666
_cell_angle_gamma                 90.479394
_cell_volume                      4139.72785005

loop_
_atom_site_label
_atom_site_type_symbol
_atom_type_description
_atom_site_fract_x
_atom_site_fract_y
_atom_site_fract_z
_atom_type_partial_charge
C1    C     C_R   0.499986 0.299793 0.479366 0.541899
C2    C     C_R   0.873350 0.397699 0.495299 0.012388
C3    C     C_R   0.354297 0.495675 0.502583 0.007041
C4    C     C_R   0.646154 0.501650 0.497917 0.001656
C5    C     C_R   0.975197 0.402520 0.494718 0.014943
C6    C     C_R   0.028860 0.581498 0.594922 0.012476
C7    C     C_R   0.977593 0.584039 0.587398 0.001368
C8    C     C_R   0.023969 0.413663 0.467035 0.001849
C9    C     C_R   0.950699 0.492595 0.541098 0.004403
C10   C     C_R   0.051520 0.501060 0.522269 0.002388
C11   C     C_R   0.950694 0.304930 0.481920 0.011142
C12   C     C_R   0.500011 0.700220 0.520647 0.544000
C13   C     C_R   0.058192 0.656810 0.669786 0.024566
C14   C     C_R   0.899341 0.302187 0.468197 0.021503
C15   C     C_R   0.106307 0.672885 0.641283 0.032475
C16   C     C_R   0.407430 0.497994 0.500842 0.543475
C17   C     C_R   0.592728 0.501645 0.499067 0.543608
C18   C     C_R   0.044687 0.343222 0.380497 -0.123783
C19   C     C_R   0.953024 0.677447 0.614655 -0.123649
C20   C     C_R   0.502747 0.812447 0.530374 0.016069
C21   C     C_R   0.497223 0.187601 0.469714 0.015585
C22   C     C_R   0.449330 0.032645 0.401539 -0.144930
C23   C     C_R   0.101748 0.506027 0.507772 -0.063082
C24   C     C_R   0.550587 0.967458 0.598734 -0.144444
C25   C     C_R   0.458313 0.137155 0.402719 -0.158364
C26   C     C_R   0.541609 0.862938 0.597530 -0.156078
C27   C     C_R   0.529558 0.132942 0.534684 0.006490
C28   C     C_R   0.470409 0.867129 0.465443 0.006740
C29   C     C_R   0.520323 0.025411 0.533690 0.049092
C30   C     C_R   0.479619 0.974679 0.466512 0.049245
C31   C     C_R   0.457170 0.396602 0.023137 -0.176411
C32   C     C_R   0.542935 0.603244 0.976852 -0.177735
C33   C     C_R   0.460906 0.407288 0.145232 0.052010
C34   C     C_R   0.899650 0.491791 0.539004 -0.062769
C35   C     C_R   0.539081 0.592750 0.854765 0.050160
C36   C     C_R   0.518093 0.545524 0.156318 0.030484
C37   C     C_R   0.482093 0.454176 0.843691 0.034050
C38   C     C_R   0.515501 0.537712 0.033682 0.006503
C39   C     C_R   0.484642 0.462080 0.966328 0.007173
C40   C     C_R   0.174512 0.431898 0.423153 0.382988
C41   C     C_R   0.824236 0.583335 0.570950 0.381339
C42   C     C_R   0.180492 0.584136 0.568769 0.377839
C43   C     C_R   0.822180 0.403949 0.483565 0.380928
C44   C     C_R   0.278294 0.554208 0.426526 -0.079220
C45   C     C_R   0.123728 0.427243 0.429307 0.032827
C46   C     C_R   0.721472 0.461153 0.594672 -0.079097
C47   C     C_R   0.328282 0.551990 0.428179 -0.170014
C48   C     C_R   0.671503 0.462463 0.588252 -0.173089
C49   C     C_R   0.329469 0.437419 0.575065 -0.007816
C50   C     C_R   0.672082 0.540938 0.411369 -0.006640
C51   C     C_R   0.278035 0.441185 0.574760 0.086320
C52   C     C_R   0.723606 0.536024 0.416002 0.086869
C53   C     C_R   0.253058 0.500262 0.499039 0.249035
C54   C     C_R   0.747666 0.497392 0.510223 0.251123
C55   C     C_3   0.358326 0.370500 0.648157 -0.385735
C56   C     C_R   0.875201 0.586272 0.576141 0.034175
C57   C     C_3   0.644569 0.590355 0.318827 -0.385647
C58   C     C_3   0.249442 0.384476 0.654408 -0.251085
C59   C     C_3   0.255598 0.437686 0.781351 -0.430779
C60   C     C_3   0.753261 0.568524 0.320965 -0.250264
C61   C     C_3   0.747476 0.489719 0.208431 -0.438712
C62   C     C_3   0.112623 0.266129 0.267017 -0.355854
C63   C     C_3   0.880271 0.786244 0.643474 -0.356756
C64   C     C_3   0.874207 0.197828 0.420556 -0.232631
C65   C     C_3   0.851083 0.149314 0.516166 -0.399537
C66   C     C_3   0.129726 0.781209 0.675740 -0.245792
C67   C     C_R   0.093953 0.347715 0.360933 -0.002758
C68   C     C_3   0.096060 0.868542 0.650018 -0.468869
C69   C     C_3   0.978562 0.208305 0.506614 -0.271355
C70   C     C_3   0.008092 0.229011 0.623121 -0.432632
C71   C     C_3   0.043080 0.701760 0.792042 -0.269053
C72   C     C_3   0.029538 0.615635 0.860074 -0.431242
C73   C     C_3   0.425636 0.811578 0.400630 -0.266855
C74   C     C_3   0.432118 0.782373 0.269798 -0.414906
C75   C     C_3   0.574345 0.188494 0.599482 -0.265427
C76   C     C_3   0.567862 0.217761 0.730310 -0.416196
C77   C     C_R   0.902641 0.680375 0.612051 -0.001559
C78   C     C_R   0.129700 0.590471 0.570682 0.008167
Cu1   Cu    Cu3+1 0.503580 0.507730 0.615930 0.918725
Cu2   Cu    Cu3+1 0.496420 0.492270 0.384070 0.917355
H1    H     H_    0.566458 0.819973 0.646211 0.119291
H2    H     H_    0.567090 0.662151 0.026257 0.085488
H3    H     H_    0.652478 0.432204 0.654808 0.127249
H4    H     H_    0.346876 0.595793 0.371834 0.119780
H5    H     H_    0.740212 0.431209 0.665898 0.120170
H6    H     H_    0.258846 0.598955 0.368970 0.122215
H7    H     H_    0.021788 0.286248 0.324366 0.109144
H8    H     H_    0.973179 0.750300 0.630420 0.108876
H9    H     H_    0.336521 0.312678 0.683278 0.116115
H10   H     H_    0.385318 0.324957 0.594845 0.135562
H11   H     H_    0.377091 0.421352 0.723117 0.143617
H12   H     H_    0.433441 0.180145 0.354122 0.118205
H13   H     H_    0.667360 0.633615 0.267564 0.113954
H14   H     H_    0.624712 0.528983 0.256355 0.149474
H15   H     H_    0.618775 0.647928 0.360298 0.137701
H16   H     H_    0.293888 0.439076 0.814383 0.149712
H17   H     H_    0.242622 0.518952 0.790163 0.200722
H18   H     H_    0.233936 0.394733 0.836191 0.133164
H19   H     H_    0.210197 0.381577 0.630145 0.157923
H20   H     H_    0.259613 0.301417 0.645365 0.131793
H21   H     H_    0.759750 0.411950 0.224451 0.187341
H22   H     H_    0.709369 0.482817 0.173600 0.150396
H23   H     H_    0.417890 0.999353 0.349801 0.117342
H24   H     H_    0.769935 0.515035 0.141687 0.133387
H25   H     H_    0.743882 0.647981 0.305461 0.134293
H26   H     H_    0.792397 0.574412 0.346328 0.159305
H27   H     H_    0.083234 0.214374 0.220635 0.091335
H28   H     H_    0.129876 0.304235 0.200679 0.172056
H29   H     H_    0.138643 0.215415 0.305997 0.174476
H30   H     H_    0.907872 0.850017 0.663097 0.088379
H31   H     H_    0.856526 0.803660 0.569520 0.166204
H32   H     H_    0.859630 0.788631 0.722843 0.178841
H33   H     H_    0.831111 0.076779 0.476452 0.137882
H34   H     H_    0.582012 0.000762 0.650526 0.117527
H35   H     H_    0.879074 0.129320 0.580121 0.124415
H36   H     H_    0.825554 0.203098 0.564324 0.195886
H37   H     H_    0.847809 0.204962 0.347751 0.194236
H38   H     H_    0.899644 0.141214 0.376173 0.104983
H39   H     H_    0.081283 0.852163 0.558265 0.154610
H40   H     H_    0.065774 0.877910 0.708943 0.140730
H41   H     H_    0.116615 0.943604 0.663304 0.138124
H42   H     H_    0.142318 0.794607 0.769056 0.155693
H43   H     H_    0.161298 0.790001 0.623602 0.198818
H44   H     H_    0.038916 0.283199 0.620065 0.162686
H45   H     H_    0.458801 0.395789 0.790894 0.107233
H46   H     H_    0.984773 0.262293 0.694067 0.152681
H47   H     H_    0.023023 0.154670 0.643550 0.127096
H48   H     H_    0.954298 0.142263 0.513933 0.141374
H49   H     H_    0.002263 0.177890 0.436095 0.130503
H50   H     H_    0.996090 0.573590 0.820983 0.161543
H51   H     H_    0.059406 0.559291 0.861195 0.154571
H52   H     H_    0.022945 0.650386 0.951251 0.134183
H53   H     H_    0.073269 0.746755 0.843744 0.143495
H54   H     H_    0.013105 0.757084 0.791856 0.128783
H55   H     H_    0.463633 0.731303 0.253243 0.182483
H56   H     H_    0.541648 0.603458 0.209115 0.108508
H57   H     H_    0.399329 0.739817 0.227183 0.135188
H58   H     H_    0.437738 0.852332 0.228785 0.140155
H59   H     H_    0.416564 0.739628 0.435234 0.154480
H60   H     H_    0.393187 0.860206 0.416254 0.126746
H61   H     H_    0.600637 0.260396 0.772896 0.133098
H62   H     H_    0.536329 0.268775 0.746825 0.181734
H63   H     H_    0.562271 0.147833 0.771392 0.139622
H64   H     H_    0.606778 0.139805 0.583902 0.128791
H65   H     H_    0.583461 0.260438 0.564872 0.157026
H66   H     H_    0.560250 0.643692 0.811593 0.126835
H67   H     H_    0.439675 0.356455 0.188405 0.127473
H68   H     H_    0.433029 0.337675 0.973716 0.085199
N1    N     N_R   0.201299 0.506690 0.495437 -0.397915
N2    N     N_R   0.799526 0.494742 0.521933 -0.398221
N3    N     N_R   0.508960 0.519350 0.790140 -0.228831
N4    N     N_R   0.491040 0.480650 0.209860 -0.229332
O1    O     O_R   0.502540 0.354460 0.582000 -0.513482
O2    O     O_2   0.798880 0.667873 0.612861 -0.526099
O3    O     O_2   0.794517 0.321508 0.433819 -0.537890
O4    O     O_2   0.209243 0.650073 0.644626 -0.534760
O5    O     O_R   0.497460 0.645540 0.418000 -0.512380
O6    O     O_R   0.496500 0.341410 0.386200 -0.502946
O7    O     O_R   0.503500 0.658590 0.613800 -0.502323
O8    O     O_R   0.433290 0.506540 0.597890 -0.496434
O9    O     O_R   0.566710 0.493460 0.402110 -0.499831
O10   O     O_R   0.427240 0.493490 0.402090 -0.506008
O11   O     O_R   0.572760 0.506510 0.597910 -0.507981
O12   O     O_2   0.197672 0.360924 0.349317 -0.525177

loop_
_geom_bond_atom_site_label_1
_geom_bond_atom_site_label_2
_ccdc_geom_bond_type
C70   H47   S    
C22   H23   S    
C66   C68   S    
C34   C56   A    
C23   C45   A    
C16   O8    A    
C73   C74   S    
C42   O4    S    
C71   H54   S    
C3    C49   A    
C54   N2    S    
C75   H65   S    
C1    C21   S    
C74   H58   S    
C20   C26   A    
C62   C67   S    
C1    O6    A    
C24   C26   A    
C40   O12   S    
C55   H10   S    
C68   H39   S    
Cu1   O7    S    
C38   C39   A    
C11   C14   A    
C43   O3    S    
C15   C78   A    
C62   H28   S    
C64   H38   S    
C27   C29   A    
Cu2   N4    S    
C3    C47   A    
C63   H32   S    
C19   C77   A    
C42   N1    A    
C24   C29   A    
C55   H11   S    
C33   H67   S    
C44   C53   A    
C3    C16   S    
C69   H48   S    
C49   C51   A    
C22   C25   A    
C45   C67   A    
C50   C52   A    
C31   C33   A    
C32   C38   A    
C12   O5    A    
C52   C60   S    
C72   H50   S    
C44   C47   A    
C46   H5    S    
C76   H61   S    
C70   H46   S    
C21   C27   A    
C23   C78   A    
C57   H13   S    
C53   N1    S    
C65   H35   S    
C12   C20   S    
C35   N3    A    
C37   N3    A    
C44   H6    S    
C28   C73   S    
C36   H56   S    
C52   C54   A    
C72   H52   S    
C37   H45   S    
C40   C45   A    
C37   C39   A    
C74   H57   S    
C46   C48   A    
C32   C35   A    
C61   H24   S    
C58   H20   S    
C19   H8    S    
C75   H64   S    
Cu1   O8    S    
C36   N4    A    
C62   H27   S    
C13   C71   S    
C16   O10   A    
C58   C59   S    
C49   C55   S    
C15   C66   S    
C8    C18   A    
C64   H37   S    
C4    C50   A    
C60   C61   S    
C51   C53   A    
C35   H66   S    
C61   H21   S    
C75   C76   S    
C41   C56   A    
C5    C9    A    
C29   C30   A    
Cu1   O1    S    
Cu2   O6    S    
C2    C43   A    
C14   C64   S    
C74   H55   S    
C46   C54   A    
C66   H42   S    
C73   H59   S    
C51   C58   S    
C47   H4    S    
C1    O1    A    
Cu2   O10   S    
C43   N2    A    
C17   O9    A    
C31   H68   S    
C8    C10   A    
C42   C78   A    
C26   H1    S    
C7    C19   A    
C57   H14   S    
C13   C15   A    
C9    C34   A    
C59   H17   S    
C65   H36   S    
C59   H16   S    
C4    C17   S    
C60   H26   S    
C72   H51   S    
Cu1   N3    S    
C41   O2    S    
C63   C77   S    
C4    C48   A    
C7    C9    A    
C21   C25   A    
C25   H12   S    
C22   C30   A    
C50   C57   S    
C65   H33   S    
C58   H19   S    
Cu1   O11   S    
C27   C75   S    
C33   N4    A    
C68   H41   S    
C71   H53   S    
C5    C8    A    
C11   C69   S    
C5    C11   A    
C6    C7    A    
C41   N2    A    
C73   H60   S    
C10   C23   A    
C20   C28   A    
C18   H7    S    
C48   H3    S    
C64   C65   S    
C63   H30   S    
C36   C38   A    
C61   H22   S    
C18   C67   A    
C71   C72   S    
C55   H9    S    
C68   H40   S    
C32   H2    S    
C2    C34   A    
Cu2   O5    S    
C62   H29   S    
C17   O11   A    
C28   C30   A    
C31   C39   A    
C40   N1    A    
C12   O7    A    
C63   H31   S    
C69   C70   S    
C2    C14   A    
Cu2   O9    S    
C6    C10   A    
C56   C77   A    
Cu1   Cu2   S    
C76   H63   S    
C70   H44   S    
C69   H49   S    
C57   H15   S    
C24   H34   S    
C59   H18   S    
C66   H43   S    
C60   H25   S    
C6    C13   A    
C76   H62   S    
