data_mof_unit_56651.cif
_audit_creation_date              2012-12-10T18:11:54-0500
_audit_creation_method            fapswitch 2.2
_symmetry_space_group_name_H-M    P1
_symmetry_Int_Tables_number       1
_space_group_crystal_system       triclinic
_cell_length_a                    15.869566
_cell_length_b                    10.764333
_cell_length_c                    9.509016
_cell_angle_alpha                 89.561753
_cell_angle_beta                  90.203117
_cell_angle_gamma                 90.618494
_cell_volume                      1624.22855102

loop_
_atom_site_label
_atom_site_type_symbol
_atom_type_description
_atom_site_fract_x
_atom_site_fract_y
_atom_site_fract_z
_atom_type_partial_charge
C1    C     C_R   0.503702 0.260250 0.500285 0.871205
C2    C     C_3   0.083730 0.497157 0.499066 0.042315
C3    C     C_3   0.972799 0.506220 0.633490 0.084013
C4    C     C_3   0.916303 0.500048 0.501183 0.015836
C5    C     C_3   0.029206 0.601850 0.556815 0.406294
C6    C     C_3   0.972261 0.598212 0.424450 -0.316418
C7    C     C_1   0.175277 0.498273 0.499129 0.041361
C8    C     C_1   0.824782 0.499860 0.500943 0.053302
C9    C     C_3   0.574735 0.071198 0.603671 0.122600
C10   C     C_3   0.567857 0.927375 0.614602 0.188419
C11   C     C_3   0.417963 0.066978 0.545354 -0.086871
C12   C     C_R   0.340171 0.500047 0.499794 0.794629
C13   C     C_3   0.528389 0.074044 0.348801 0.163437
C14   C     C_3   0.505744 0.121594 0.499582 0.045656
C15   C     C_3   0.508084 0.877243 0.497257 0.015349
C16   C     C_3   0.417828 0.924147 0.528077 -0.559872
C17   C     C_3   0.536029 0.929926 0.349627 -0.059059
C18   C     C_3   0.537058 0.618739 0.083119 -0.442340
C19   C     C_3   0.527420 0.625951 0.916942 0.321917
C20   C     C_3   0.551833 0.395641 0.082384 0.292559
C21   C     C_3   0.414034 0.491583 0.082948 0.301675
C22   C     C_3   0.558278 0.405243 0.916407 0.337740
C23   C     C_R   0.504134 0.739444 0.499332 0.850668
C24   C     C_3   0.414614 0.476288 0.916753 -0.089034
C25   C     C_R   0.659848 0.500047 0.500211 0.869473
C26   C     C_3   0.970502 0.395046 0.443304 0.434393
C27   C     C_3   0.026923 0.490963 0.367154 0.060295
C28   C     C_1   0.250692 0.499154 0.499371 -0.150093
C29   C     C_1   0.749350 0.499915 0.500660 -0.121364
C30   C     C_3   0.027212 0.400239 0.574875 0.040570
Cu1   Cu    Cu3+1 0.500040 0.499860 0.642410 0.994752
Cu2   Cu    Cu3+1 0.499960 0.500140 0.357590 0.960420
H1    H     H_    0.539422 0.901471 0.718198 0.140168
H2    H     H_    0.409484 0.087107 0.659166 0.215723
H3    H     H_    0.392713 0.880339 0.626057 0.177589
H4    H     H_    0.476365 0.099560 0.275291 0.088026
H5    H     H_    0.490494 0.894499 0.269582 0.122918
H6    H     H_    0.374953 0.894816 0.441135 0.202807
H7    H     H_    0.603624 0.633085 0.115273 0.179846
H8    H     H_    0.503366 0.699347 0.127099 0.153813
H9    H     H_    0.477407 0.695143 0.892365 0.068910
H10   H     H_    0.381437 0.580644 0.104627 0.123665
H11   H     H_    0.370258 0.546336 0.873286 0.159573
H12   H     H_    0.519048 0.306470 0.104291 0.083642
H13   H     H_    0.949652 0.680177 0.364266 0.173330
H14   H     H_    0.537658 0.314186 0.875412 0.174073
H15   H     H_    0.637989 0.098795 0.562139 0.185988
N1    N     N_3   0.501840 0.500250 0.143650 -0.210283
N2    N     N_3   0.501160 0.503300 0.856280 -0.183700
O1    O     O_R   0.500050 0.317570 0.620260 -0.570030
O2    O     O_R   0.499980 0.317810 0.379740 -0.563444
O3    O     O_R   0.379110 0.499870 0.620240 -0.610458
O4    O     O_R   0.379040 0.500110 0.379720 -0.532635
O5    O     O_R   0.500020 0.682190 0.620260 -0.558638
O6    O     O_R   0.499950 0.682430 0.379740 -0.619047
O7    O     O_R   0.620960 0.499890 0.620280 -0.473477
O8    O     O_R   0.620890 0.500130 0.379760 -0.559832
C31   C     C_3   0.057496 0.480183 0.216443 -0.805653
H16   H     H_    0.002571 0.475577 0.144039 0.244795
H17   H     H_    0.097106 0.562369 0.189017 0.240460
H18   H     H_    0.095339 0.394731 0.205379 0.233437
O9    O     O_3   0.603064 0.132632 0.301328 -0.693382
H19   H     H_    0.602993 0.127183 0.197134 0.346465
C32   C     C_3   0.624127 0.885645 0.301709 -0.696438
H20   H     H_    0.675643 0.934335 0.358870 0.295809
H21   H     H_    0.632666 0.784587 0.317708 0.228551
H22   H     H_    0.632062 0.904831 0.187549 0.188290
C33   C     C_3   0.341394 0.124522 0.469626 -0.886575
H23   H     H_    0.282374 0.081382 0.510478 0.253843
H24   H     H_    0.337923 0.225642 0.490023 0.223931
H25   H     H_    0.343498 0.109325 0.354515 0.239034
O10   O     O_3   0.937584 0.286620 0.383323 -0.699690
H26   H     H_    0.987248 0.237234 0.356312 0.324335
O11   O     O_3   0.601977 0.670159 0.854238 -0.680542
H27   H     H_    0.611623 0.755682 0.889647 0.292724
O12   O     O_3   0.630827 0.380373 0.147604 -0.651413
H28   H     H_    0.664599 0.457414 0.137342 0.330590
O13   O     O_3   0.641895 0.417014 0.868584 -0.663024
H29   H     H_    0.670132 0.487483 0.915728 0.355407
O14   O     O_3   0.362735 0.400140 0.148437 -0.705436
H30   H     H_    0.396409 0.327291 0.175401 0.331733
C34   C     C_3   0.375973 0.347780 0.875370 -0.738348
H31   H     H_    0.405134 0.269843 0.934114 0.186368
H32   H     H_    0.307679 0.346526 0.900771 0.238564
H33   H     H_    0.380268 0.325883 0.763304 0.263233
O15   O     O_3   0.062090 0.710115 0.617128 -0.717809
H34   H     H_    0.012444 0.760880 0.640780 0.325896
C35   C     C_3   0.942104 0.517168 0.784192 -0.803499
H35   H     H_    0.996983 0.521550 0.856709 0.241870
H36   H     H_    0.904413 0.602768 0.795141 0.230904
H37   H     H_    0.902327 0.435133 0.811544 0.247950
C36   C     C_3   0.058306 0.288106 0.657427 -0.825013
H38   H     H_    0.003626 0.234081 0.698433 0.254355
H39   H     H_    0.096143 0.228243 0.587805 0.227528
H40   H     H_    0.098080 0.319666 0.746780 0.238115
O16   O     O_3   0.565407 0.121347 0.738618 -0.776834
H41   H     H_    0.619027 0.106592 0.789923 0.326420
O17   O     O_3   0.647861 0.873170 0.606658 -0.742654
H42   H     H_    0.678129 0.894818 0.694810 0.323350

loop_
_geom_bond_atom_site_label_1
_geom_bond_atom_site_label_2
_ccdc_geom_bond_type
C6    H13   S    
C26   O10   S    
C2    C7    S    
C25   O7    A    
Cu1   O3    S    
C4    C8    S    
C26   C27   S    
C12   C28   S    
C8    C29   T    
C10   C15   S    
C17   C32   S    
C5    C6    S    
C11   C14   S    
C31   H17   S    
C15   C16   S    
C20   O12   S    
C18   C19   S    
C10   O17   S    
C24   C34   S    
C18   H8    S    
C12   O3    A    
C13   O9    S    
C6    C27   S    
C33   H23   S    
C2    C27   S    
Cu1   O7    S    
C1    O1    A    
Cu2   O6    S    
C12   O4    A    
C21   N1    S    
C31   H18   S    
C15   C23   S    
C13   C14   S    
Cu2   N1    S    
C25   O8    A    
Cu2   O8    S    
Cu1   N2    S    
C20   H12   S    
C11   H2    S    
C25   C29   S    
O11   H27   S    
C32   H22   S    
O12   H28   S    
C22   O13   S    
C13   H4    S    
C4    C6    S    
C9    C14   S    
O15   H34   S    
O14   H30   S    
C31   H16   S    
C34   H31   S    
C36   H40   S    
C7    C28   T    
C32   H21   S    
C3    C30   S    
C18   H7    S    
Cu2   O2    S    
O9    H19   S    
C11   C16   S    
C19   N2    S    
Cu1   Cu2   S    
C35   H37   S    
O16   H41   S    
C36   H39   S    
C17   H5    S    
C1    O2    A    
C9    O16   S    
C20   N1    S    
C22   N2    S    
C5    O15   S    
C30   C36   S    
C22   H14   S    
C20   C22   S    
C9    H15   S    
C34   H32   S    
C2    C5    S    
Cu1   O1    S    
C3    C4    S    
Cu2   O4    S    
C11   C33   S    
C23   O5    A    
C9    C10   S    
C24   N2    S    
C15   C17   S    
C3    C35   S    
O13   H29   S    
C19   O11   S    
C35   H36   S    
O10   H26   S    
C3    C5    S    
C27   C31   S    
C18   N1    S    
C4    C26   S    
C23   O6    A    
C34   H33   S    
C13   C17   S    
C2    C30   S    
C32   H20   S    
C16   H3    S    
C33   H25   S    
C21   O14   S    
C36   H38   S    
C10   H1    S    
Cu1   O5    S    
C21   H10   S    
C35   H35   S    
C33   H24   S    
O17   H42   S    
C21   C24   S    
C24   H11   S    
C1    C14   S    
C19   H9    S    
C16   H6    S    
C26   C30   S    
