data_mof_unit_25291.cif
_audit_creation_date              2012-10-26T20:06:12-0400
_audit_creation_method            fapswitch 2.2
_symmetry_space_group_name_H-M    P1
_symmetry_Int_Tables_number       1
_space_group_crystal_system       triclinic
_cell_length_a                    9.568959
_cell_length_b                    10.825447
_cell_length_c                    13.319243
_cell_angle_alpha                 90.302225
_cell_angle_beta                  73.436408
_cell_angle_gamma                 90.12985
_cell_volume                      1322.44551382

loop_
_atom_site_label
_atom_site_type_symbol
_atom_type_description
_atom_site_fract_x
_atom_site_fract_y
_atom_site_fract_z
_atom_type_partial_charge
C1    C     C_R   0.500033 0.737871 0.500176 0.607264
C2    C     C_R   0.381282 0.445020 0.811074 -0.013950
C3    C     C_R   0.589464 0.938138 0.549910 0.061299
C4    C     C_R   0.423403 0.483976 0.699209 0.543708
C5    C     C_R   0.589737 0.066424 0.548328 -0.136500
C6    C     C_R   0.499459 0.129416 0.500253 -0.014037
C7    C     C_R   0.408922 0.065207 0.452503 -0.137479
C8    C     C_R   0.409504 0.936854 0.450959 0.053294
C9    C     C_R   0.499860 0.872428 0.500245 0.093904
C10   C     C_R   0.906537 0.591624 0.549299 -0.001668
C11   C     C_R   0.055300 0.592290 0.548404 -0.002122
C12   C     C_R   0.441404 0.411323 0.975715 0.037779
C13   C     C_R   0.094326 0.409823 0.448647 -0.003154
C14   C     C_R   0.945988 0.410089 0.448380 0.004620
C15   C     C_R   0.499840 0.262615 0.499958 0.541517
C16   C     C_R   0.577794 0.499853 0.299366 0.570085
C17   C     C_R   0.805487 0.452203 0.018614 -0.103130
C18   C     C_R   0.622422 0.485824 0.184333 0.035728
C19   C     C_R   0.233667 0.429443 0.865301 -0.157931
C20   C     C_R   0.193196 0.386724 0.968133 -0.089516
C21   C     C_R   0.293245 0.381871 0.025980 0.114256
C22   C     C_3   0.943593 0.376279 0.725980 -0.118042
C23   C     C_R   0.485987 0.417520 0.864900 -0.031581
C24   C     C_R   0.549109 0.429845 0.028514 -0.026047
C25   C     C_R   0.697704 0.419998 0.971370 0.050671
C26   C     C_R   0.736978 0.381194 0.866629 0.260462
C27   C     C_R   0.630602 0.383940 0.812785 -0.103427
C28   C     C_R   0.514019 0.467167 0.133800 -0.171131
C29   C     C_R   0.769992 0.483292 0.124809 0.074378
Cu1   Cu    Cu3+1 0.359340 0.499980 0.500000 0.934570
Cu2   Cu    Cu3+1 0.640660 0.500020 0.500000 0.958116
H1    H     H_    0.658322 0.116742 0.586746 0.125867
H2    H     H_    0.084176 0.353756 0.003527 0.144043
H3    H     H_    0.657662 0.349914 0.733374 0.143398
H4    H     H_    0.947684 0.584358 0.126340 0.227790
H5    H     H_    0.949034 0.436623 0.167339 0.232568
H6    H     H_    0.212503 0.898320 0.430689 0.226624
H7    H     H_    0.351722 0.901632 0.318953 0.230037
H8    H     H_    0.058227 0.343877 0.702236 0.162928
H9    H     H_    0.894759 0.342039 0.664999 0.125629
H10   H     H_    0.944920 0.478806 0.729788 0.112193
H11   H     H_    0.332195 0.279875 0.145481 0.241128
H12   H     H_    0.340018 0.114578 0.414257 0.121843
H13   H     H_    0.198050 0.390003 0.183455 0.218616
H14   H     H_    0.645268 0.905015 0.682650 0.230236
H15   H     H_    0.785713 0.901770 0.571683 0.222862
H16   H     H_    0.835088 0.663799 0.590749 0.143384
H17   H     H_    0.094812 0.665390 0.588833 0.120973
H18   H     H_    0.165879 0.337301 0.407463 0.110162
H19   H     H_    0.906801 0.337813 0.406939 0.122084
H20   H     H_    0.916558 0.459726 0.970952 0.129552
H21   H     H_    0.402410 0.485228 0.176882 0.143434
H22   H     H_    0.150322 0.442496 0.826379 0.142927
N1    N     N_R   0.147940 0.499970 0.499970 -0.230262
N2    N     N_R   0.852060 0.500060 0.499990 -0.231041
N3    N     N_3   0.883701 0.514560 0.170901 -0.599321
N4    N     N_3   0.321118 0.872563 0.396944 -0.604298
N5    N     N_3   0.245801 0.323795 0.126790 -0.655412
N6    N     N_3   0.677151 0.875307 0.604595 -0.627242
O1    O     O_R   0.381250 0.680340 0.500010 -0.474431
O2    O     O_R   0.618820 0.680370 0.500010 -0.472032
O3    O     O_R   0.323240 0.499950 0.650980 -0.514658
O4    O     O_R   0.560810 0.499980 0.650980 -0.510709
O5    O     O_R   0.381180 0.319630 0.499990 -0.517360
O6    O     O_R   0.618750 0.319660 0.499990 -0.523948
O7    O     O_R   0.439190 0.500020 0.349020 -0.511155
O8    O     O_R   0.676760 0.500050 0.349020 -0.451925
O9    O     O_3   0.872647 0.326610 0.824659 -0.586418

loop_
_geom_bond_atom_site_label_1
_geom_bond_atom_site_label_2
_ccdc_geom_bond_type
C8    C9    A    
C2    C4    S    
C15   O5    A    
C3    N6    S    
C6    C7    A    
C3    C9    A    
C29   N3    S    
Cu1   O5    S    
C8    N4    S    
H7    N4    S    
C28   H21   S    
C12   C24   A    
C19   C20   A    
C12   C23   A    
C5    H1    S    
C26   O9    S    
C19   H22   S    
C14   N2    A    
H4    N3    S    
C5    C6    A    
C1    C9    S    
C7    C8    A    
C16   O8    A    
C14   H19   S    
C13   C14   A    
C24   C25   A    
Cu2   O8    S    
C10   N2    A    
Cu1   N1    S    
C4    O4    A    
C22   O9    S    
C26   C27   A    
Cu1   O7    S    
C11   N1    A    
H5    N3    S    
C20   H2    S    
C4    O3    A    
Cu1   O1    S    
C25   C26   A    
C7    H12   S    
C23   C27   A    
Cu1   O3    S    
C27   H3    S    
Cu1   Cu2   S    
H15   N6    S    
C13   H18   S    
C22   H10   S    
C16   O7    A    
C10   C11   A    
C22   H8    S    
C18   C29   A    
C15   O6    A    
Cu2   O4    S    
C17   C29   A    
C2    C23   A    
C18   C28   A    
C20   C21   A    
C17   H20   S    
C16   C18   S    
C13   N1    A    
C11   H17   S    
C1    O1    A    
C10   H16   S    
Cu2   O6    S    
Cu2   O2    S    
C22   H9    S    
H14   N6    S    
H11   N5    S    
Cu2   N2    S    
C6    C15   S    
C2    C19   A    
C12   C21   A    
H6    N4    S    
C21   N5    S    
C24   C28   A    
H13   N5    S    
C17   C25   A    
C3    C5    A    
C1    O2    A    
