data_mof_unit_35049.cif
_audit_creation_date              2012-12-10T16:43:27-0500
_audit_creation_method            fapswitch 2.2
_symmetry_space_group_name_H-M    P1
_symmetry_Int_Tables_number       1
_space_group_crystal_system       triclinic
_cell_length_a                    10.781946
_cell_length_b                    8.699013
_cell_length_c                    7.47457
_cell_angle_alpha                 102.54433
_cell_angle_beta                  97.157405
_cell_angle_gamma                 92.956965
_cell_volume                      676.746730171

loop_
_atom_site_label
_atom_site_type_symbol
_atom_type_description
_atom_site_fract_x
_atom_site_fract_y
_atom_site_fract_z
_atom_type_partial_charge
C1    C     C_R   0.495960 0.199752 0.453442 0.924900
C2    C     C_R   0.081162 0.622569 0.623635 0.075745
C3    C     C_R   0.129226 0.512081 0.490443 -0.161729
C4    C     C_R   0.051674 0.390881 0.368864 -0.268065
C5    C     C_R   0.923628 0.376269 0.376995 0.446553
C6    C     C_R   0.874454 0.483303 0.516765 -0.231127
C7    C     C_2   0.493938 0.032128 0.427050 -0.341705
C8    C     C_2   0.505835 0.967869 0.572959 -0.335017
C9    C     C_R   0.262802 0.504239 0.497584 0.800288
C10   C     C_R   0.504067 0.800255 0.546561 0.858363
C11   C     C_R   0.738387 0.493301 0.503434 0.871537
C12   C     C_R   0.155756 0.757381 0.730636 -0.144057
C13   C     C_R   0.116457 0.846120 0.888198 -0.116622
C14   C     C_R   0.008717 0.793337 0.948043 -0.106977
C15   C     C_R   0.931987 0.663375 0.839152 -0.003647
C16   C     C_R   0.958503 0.591552 0.658747 -0.003347
Cu1   Cu    Cu3+1 0.513920 0.517380 0.684380 0.991531
Cu2   Cu    Cu3+1 0.486080 0.482620 0.315620 1.001904
H1    H     H_    0.093120 0.303417 0.272606 0.191754
H2    H     H_    0.591936 0.631796 0.053765 0.226604
H3    H     H_    0.245872 0.792060 0.695439 0.132103
H4    H     H_    0.175723 0.946263 0.973268 0.146612
H5    H     H_    0.991062 0.845220 0.086988 0.176962
H6    H     H_    0.483015 0.961197 0.286123 0.173727
H7    H     H_    0.516909 0.038820 0.713891 0.196739
H8    H     H_    0.405499 0.370791 0.946456 0.222807
N1    N     N_2   0.465100 0.456430 0.038520 -0.195692
N2    N     N_2   0.534900 0.543570 0.961480 -0.194335
O1    O     O_R   0.509050 0.286130 0.619770 -0.579280
O2    O     O_R   0.485540 0.256780 0.308360 -0.565421
O3    O     O_R   0.331410 0.514680 0.655740 -0.591621
O4    O     O_R   0.307900 0.485330 0.344330 -0.590649
O5    O     O_R   0.514460 0.743220 0.691640 -0.591616
O6    O     O_R   0.490950 0.713870 0.380230 -0.596571
O7    O     O_R   0.692100 0.514670 0.655670 -0.581306
O8    O     O_R   0.668590 0.485320 0.344260 -0.532177
C17   C     C_1   0.862425 0.577116 0.942667 0.275576
N3    N     N_1   0.808620 0.507502 0.027871 -0.205871
S1    S     S_3+6 0.836774 0.200833 0.240556 -0.005700
O9    O     O_2   0.718455 0.232943 0.131004 -0.247394
O10   O     O_2   0.916156 0.113858 0.107073 -0.335401
O11   O     O_3   0.799469 0.086043 0.383351 -0.547216
H9    H     H_    0.761438 0.985377 0.300560 0.358840

loop_
_geom_bond_atom_site_label_1
_geom_bond_atom_site_label_2
_ccdc_geom_bond_type
C14   H5    S    
C17   N3    T    
C3    C9    S    
C7    H6    S    
C10   O5    A    
Cu1   O1    S    
H2    N2    S    
C2    C12   A    
Cu1   N2    S    
C11   O7    A    
C2    C3    A    
C7    C8    D    
S1    O10   D    
C13   C14   A    
C8    H7    S    
Cu2   O6    S    
C6    C11   S    
H8    N1    S    
Cu1   O5    S    
Cu2   O2    S    
C1    O1    A    
C11   O8    A    
C13   H4    S    
Cu1   Cu2   S    
S1    O11   S    
C5    S1    S    
C5    C6    A    
Cu1   O3    S    
Cu2   O4    S    
O11   H9    S    
C9    O3    A    
C6    C16   A    
C15   C16   A    
C10   O6    A    
N1    N2    D    
C2    C16   A    
C12   C13   A    
C8    C10   S    
S1    O9    D    
C14   C15   A    
C1    O2    A    
Cu1   O7    S    
C9    O4    A    
C1    C7    S    
C4    H1    S    
Cu2   O8    S    
C12   H3    S    
C15   C17   S    
Cu2   N1    S    
C3    C4    A    
C4    C5    A    
