data_mof_unit_7469.cif
_audit_creation_date              2012-12-11T16:56:07-0500
_audit_creation_method            fapswitch 2.2
_symmetry_space_group_name_H-M    P1
_symmetry_Int_Tables_number       1
_space_group_crystal_system       triclinic
_cell_length_a                    6.982627
_cell_length_b                    14.538019
_cell_length_c                    16.183496
_cell_angle_alpha                 90.437798
_cell_angle_beta                  90.309076
_cell_angle_gamma                 89.804239
_cell_volume                      1642.76313662

loop_
_atom_site_label
_atom_site_type_symbol
_atom_type_description
_atom_site_fract_x
_atom_site_fract_y
_atom_site_fract_z
_atom_type_partial_charge
O1    O     O_R   0.505830 0.583360 0.413880 -0.538846
O2    O     O_R   0.175830 0.595460 0.585520 -0.546238
O3    O     O_R   0.005520 0.416640 0.586120 -0.541224
C1    C     C_R   0.344816 0.617141 0.614583 0.688831
O4    O     O_R   0.176120 0.594390 0.414490 -0.512857
O5    O     O_R   0.005810 0.415570 0.413870 -0.541737
C2    C     C_R   0.344514 0.617142 0.386557 0.725058
O6    O     O_R   0.505540 0.584430 0.586130 -0.538685
O7    O     O_3   0.339200 0.441330 0.500000 -0.372516
V1    V     V_3+5 0.064350 0.510880 0.500000 1.441689
O8    O     O_R   0.676100 0.404540 0.414480 -0.541808
C3    C     C_R   0.845006 0.382601 0.385787 0.694497
O9    O     O_R   0.675810 0.405610 0.585510 -0.539226
C4    C     C_R   0.845979 0.383164 0.613065 0.772794
V2    V     V_3+5 0.564340 0.489120 0.500000 1.426247
O10   O     O_3   0.839360 0.558670 0.500000 -0.365206
C5    C     C_2   0.736322 0.183905 0.762737 0.493655
C6    C     C_2   0.876809 0.180723 0.821521 -0.407076
H1    H     H_    0.984486 0.234275 0.823937 0.108685
C7    C     C_2   0.717054 0.262317 0.704403 -0.197108
C8    C     C_2   0.865633 0.311802 0.677209 -0.378533
H2    H     H_    0.575742 0.275344 0.678558 0.189011
H3    H     H_    0.009588 0.296137 0.698600 0.156468
C9    C     C_R   0.728199 0.181575 0.242515 0.104165
C10   C     C_R   0.882715 0.180374 0.187581 -0.104125
C11   C     C_R   0.034004 0.241838 0.203791 -0.181272
H4    H     H_    0.156599 0.243335 0.163410 0.134838
C12   C     C_R   0.022437 0.306557 0.268837 -0.178326
H5    H     H_    0.137245 0.355611 0.276792 0.127360
C13   C     C_R   0.858887 0.312004 0.319449 -0.110739
C14   C     C_R   0.716320 0.245864 0.306653 0.117633
C15   C     C_3   0.506456 0.258621 0.294029 -0.409771
C16   C     C_3   0.519230 0.188166 0.224451 -0.404963
H6    H     H_    0.470787 0.328987 0.272260 0.161557
H7    H     H_    0.422073 0.234393 0.347638 0.185394
H8    H     H_    0.490116 0.217456 0.162366 0.169879
H9    H     H_    0.442948 0.123043 0.237996 0.169598
C17   C     C_R   0.523604 0.734664 0.700198 0.032986
C18   C     C_R   0.354702 0.686460 0.682501 -0.079885
C19   C     C_R   0.200475 0.699621 0.736702 -0.177147
H10   H     H_    0.078167 0.655123 0.731878 0.123202
C20   C     C_R   0.211873 0.763367 0.802559 -0.179742
H11   H     H_    0.099284 0.768880 0.846378 0.111405
C21   C     C_R   0.378050 0.813518 0.818427 -0.060914
C22   C     C_R   0.535794 0.793556 0.769349 0.140541
C23   C     C_3   0.711295 0.747521 0.800203 0.301793
C24   C     C_3   0.710154 0.691086 0.721112 -0.454659
H12   H     H_    0.823336 0.800264 0.808124 0.082020
H13   H     H_    0.700909 0.615576 0.731081 0.187726
H14   H     H_    0.818639 0.712698 0.675355 0.145609
C25   C     C_R   0.527151 0.704518 0.279755 0.101517
C26   C     C_R   0.355354 0.689555 0.322115 -0.224223
C27   C     C_R   0.199581 0.749159 0.303571 0.435377
C28   C     C_R   0.212673 0.811431 0.236919 -0.278863
H15   H     H_    0.088110 0.852493 0.221275 0.149072
C29   C     C_R   0.381394 0.818593 0.189663 -0.172079
C30   C     C_R   0.540616 0.767737 0.215964 0.121515
C31   C     C_3   0.671103 0.706690 0.167311 -0.405880
C32   C     C_3   0.655058 0.637245 0.236695 -0.386223
H16   H     H_    0.817022 0.736244 0.161709 0.181585
H17   H     H_    0.605724 0.682738 0.108167 0.167158
H18   H     H_    0.791863 0.626001 0.270494 0.214429
H19   H     H_    0.578943 0.573255 0.217971 0.147614
O11   O     O_R   0.229930 0.912420 0.917160 -0.546061
O12   O     O_R   0.559420 0.902500 0.088780 -0.546369
O13   O     O_R   0.729660 0.081330 0.089380 -0.546108
C33   C     C_R   0.391021 0.881303 0.117794 0.696019
O14   O     O_R   0.559650 0.901420 0.917750 -0.520359
O15   O     O_R   0.729880 0.080250 0.917130 -0.496327
C34   C     C_R   0.390443 0.879193 0.889152 0.791494
O16   O     O_R   0.229700 0.913500 0.089410 -0.550834
O17   O     O_3   0.396250 0.055540 0.003280 -0.357174
V3    V     V_3+5 0.671130 0.986010 0.003260 1.507903
O18   O     O_R   0.059600 0.091310 0.917720 -0.521784
C35   C     C_R   0.889906 0.110832 0.887703 0.840847
O19   O     O_R   0.059370 0.092380 0.088750 -0.552441
C36   C     C_R   0.890706 0.114484 0.117291 0.661622
V4    V     V_3+5 0.171120 0.007820 0.003230 1.476844
O20   O     O_3   0.896130 0.938240 0.003240 -0.390076
S1    S     S_3+6 0.566778 0.094352 0.748939 -0.029842
O21   O     O_2   0.664441 0.002517 0.756734 -0.372694
O22   O     O_2   0.413334 0.103323 0.813251 -0.343880
O23   O     O_3   0.465434 0.101750 0.654682 -0.517134
H20   H     H_    0.369955 0.051523 0.652693 0.358323
O24   O     O_3   0.664010 0.693891 0.870107 -0.544555
C37   C     C_3   0.829559 0.666644 0.913161 -0.260211
H21   H     H_    0.894755 0.726443 0.945766 0.137527
H22   H     H_    0.933164 0.630985 0.871880 0.136671
H23   H     H_    0.787484 0.616734 0.961220 0.160321
O25   O     O_3   0.028177 0.741433 0.345132 -0.551585
C38   C     C_3   0.015836 0.813456 0.403627 -0.208758
H24   H     H_    0.137404 0.811077 0.448429 0.120802
H25   H     H_    0.881710 0.805024 0.439180 0.161898
H26   H     H_    0.009022 0.881701 0.373054 0.124888

loop_
_geom_bond_atom_site_label_1
_geom_bond_atom_site_label_2
_ccdc_geom_bond_type
C6    C35   S    
C1    O6    A    
C16   H8    S    
C30   C31   S    
C24   H13   S    
O24   C37   S    
C21   C22   A    
C11   H4    S    
C10   C36   S    
C4    C8    S    
C12   H5    S    
O19   V4    S    
C2    C26   S    
O5    C3    A    
C13   C14   A    
C37   H22   S    
C31   H16   S    
V2    O10   S    
C5    C7    S    
O12   V3    S    
C29   C30   A    
C6    H1    S    
C17   C22   A    
O17   V4    S    
C28   H15   S    
O8    V2    S    
C14   C15   S    
O12   C33   A    
O15   V3    S    
C25   C30   A    
O11   C34   A    
O7    V1    S    
C23   O24   S    
O14   V3    S    
C31   H17   S    
C19   C20   A    
O1    C2    A    
O9    C4    A    
C20   C21   A    
S1    O23   S    
C11   C12   A    
C24   H14   S    
C23   H12   S    
C28   C29   A    
O18   C35   A    
C25   C26   A    
C15   H7    S    
C9    C10   A    
S1    O22   D    
C18   C19   A    
O4    C2    A    
V4    O20   S    
S1    O21   D    
C31   C32   S    
C22   C23   S    
O13   V3    S    
C5    S1    S    
C16   H9    S    
C15   H6    S    
O2    C1    A    
C38   H25   S    
O23   H20   S    
C1    C18   S    
C5    C6    D    
V3    O20   S    
O19   C36   A    
C21   C34   S    
C17   C24   S    
O3    C4    A    
O1    V2    S    
C19   H10   S    
C7    H2    S    
O6    V2    S    
C8    H3    S    
C25   C32   S    
C20   H11   S    
O2    V1    S    
C38   H24   S    
C26   C27   A    
O13   C36   A    
C23   C24   S    
C32   H18   S    
C3    C13   S    
C37   H21   S    
O11   V4    S    
O17   V3    S    
C37   H23   S    
O5    V1    S    
O8    C3    A    
C27   C28   A    
C29   C33   S    
C32   H19   S    
C9    C16   S    
C15   C16   S    
O9    V2    S    
C10   C11   A    
C9    C14   A    
O4    V1    S    
O3    V1    S    
V1    O10   S    
C38   H26   S    
O25   C38   S    
C17   C18   A    
C12   C13   A    
O15   C35   A    
C33   O16   A    
O7    V2    S    
C7    C8    D    
O14   C34   A    
O18   V4    S    
C27   O25   S    
O16   V4    S    
