data_mof_unit_22316.cif
_audit_creation_date              2013-03-05T15:52:07-0500
_audit_creation_method            fapswitch 2.2
_symmetry_space_group_name_H-M    P1
_symmetry_Int_Tables_number       1
_space_group_crystal_system       triclinic
_cell_length_a                    6.954879
_cell_length_b                    19.58579
_cell_length_c                    23.328525
_cell_angle_alpha                 95.897814
_cell_angle_beta                  91.249103
_cell_angle_gamma                 88.587741
_cell_volume                      3159.3630847

loop_
_atom_site_label
_atom_site_type_symbol
_atom_site_description
_atom_site_fract_x
_atom_site_fract_y
_atom_site_fract_z
_atom_type_partial_charge
O1    O     O_R   0.617180 0.809390 0.808140 -0.570491
O2    O     O_R   0.382820 0.190610 0.191860 -0.572876
O3    O     O_R   0.293300 0.672410 0.795490 -0.578668
O4    O     O_R   0.706700 0.327590 0.204510 -0.578556
O5    O     O_R   0.117220 0.690610 0.691850 -0.570294
O6    O     O_R   0.882780 0.309390 0.308150 -0.569509
C1    C     C_R   0.465257 0.648068 0.805876 0.938396
C2    C     C_R   0.534733 0.351944 0.194135 0.931964
O7    O     O_R   0.287840 0.807750 0.814460 -0.570604
O8    O     O_R   0.712160 0.192250 0.185540 -0.572090
O9    O     O_R   0.111720 0.826910 0.710960 -0.588305
O10   O     O_R   0.888280 0.173090 0.289040 -0.588475
C3    C     C_R   0.456509 0.830751 0.833188 0.959379
C4    C     C_R   0.543490 0.169253 0.166809 0.955941
O11   O     O_R   0.622680 0.673080 0.789040 -0.585213
O12   O     O_R   0.377320 0.326920 0.210960 -0.584004
O13   O     O_3   0.448820 0.756130 0.716020 -0.263879
O14   O     O_3   0.551180 0.243870 0.283980 -0.259659
V1    V     V_3+5 0.176220 0.748860 0.756300 1.181392
V2    V     V_3+5 0.823780 0.251140 0.243700 1.180352
O15   O     O_R   0.781670 0.827580 0.704500 -0.583056
O16   O     O_R   0.218330 0.172420 0.295500 -0.579994
C5    C     C_R   0.947734 0.852007 0.694284 0.930837
C6    C     C_R   0.052266 0.148001 0.305722 0.934069
O17   O     O_R   0.787130 0.692240 0.685530 -0.573361
O18   O     O_R   0.212870 0.307760 0.314470 -0.570744
C7    C     C_R   0.956087 0.669235 0.666777 0.964309
C8    C     C_R   0.043911 0.330743 0.333238 0.968277
V3    V     V_3+5 0.675510 0.751130 0.743690 1.177337
V4    V     V_3+5 0.324490 0.248870 0.256310 1.182468
O19   O     O_3   0.952780 0.743870 0.783980 -0.258011
O20   O     O_3   0.047220 0.256130 0.216020 -0.262223
C9    C     C_1   0.966583 0.617168 0.614729 -0.296863
C10   C     C_1   0.033415 0.382757 0.385321 -0.299211
C11   C     C_1   0.978152 0.573635 0.571930 0.095474
C12   C     C_1   0.021851 0.426250 0.428148 0.086721
C13   C     C_1   0.993410 0.521800 0.521353 0.024683
C14   C     C_1   0.006597 0.478058 0.478742 0.021853
C15   C     C_R   0.946833 0.914293 0.663744 -0.117910
C16   C     C_R   0.053176 0.085737 0.336288 -0.118769
C17   C     C_R   0.892947 0.036806 0.665580 -0.133816
C18   C     C_R   0.106961 0.963229 0.334486 -0.137027
C19   C     C_R   0.893504 0.977216 0.693363 -0.158544
C20   C     C_R   0.106538 0.022806 0.306692 -0.161778
C21   C     C_R   0.988897 0.910945 0.604823 -0.168346
C22   C     C_R   0.011029 0.089112 0.395206 -0.161434
C23   C     C_R   0.967291 0.969855 0.573935 0.139560
C24   C     C_R   0.032493 0.030212 0.426111 0.128550
C25   C     C_R   0.934599 0.033826 0.606723 0.145125
C26   C     C_R   0.065156 0.966234 0.393334 0.151389
C27   C     C_R   0.986633 0.968275 0.512485 -0.002701
C28   C     C_R   0.012975 0.031792 0.487557 -0.009095
C29   C     C_R   0.019202 0.094003 0.525281 -0.086030
C30   C     C_R   0.980178 0.906073 0.474811 -0.090784
C31   C     C_R   0.959036 0.094700 0.582037 -0.250706
C32   C     C_R   0.040392 0.905375 0.418004 -0.255298
H1    H     H_    0.952220 0.142990 0.609350 0.176554
H2    H     H_    0.046969 0.857100 0.390666 0.174235
H3    H     H_    0.958346 0.137713 0.415591 0.107545
H4    H     H_    0.041300 0.862329 0.584399 0.104625
H5    H     H_    0.141080 0.019474 0.261408 0.120084
H6    H     H_    0.859036 0.980529 0.738651 0.120895
H7    H     H_    0.862921 0.085597 0.690449 0.140937
H8    H     H_    0.136962 0.914428 0.309629 0.137433
C33   C     C_R   0.487077 0.585359 0.835909 -0.125052
C34   C     C_R   0.512724 0.414705 0.164172 -0.116309
C35   C     C_R   0.607955 0.467649 0.833622 -0.052550
C36   C     C_R   0.389477 0.532159 0.166436 -0.051407
C37   C     C_R   0.558101 0.525492 0.805465 -0.198889
C38   C     C_R   0.440632 0.474400 0.194623 -0.185417
C39   C     C_R   0.451365 0.585701 0.894847 -0.172170
C40   C     C_R   0.548643 0.414537 0.105255 -0.164264
C41   C     C_R   0.494559 0.527087 0.924608 0.158759
C42   C     C_R   0.503996 0.473067 0.075505 0.159337
C43   C     C_R   0.598857 0.471487 0.894928 -0.053469
C44   C     C_R   0.398670 0.528352 0.105175 -0.025996
C45   C     C_R   0.448963 0.524359 0.983992 -0.006891
C46   C     C_R   0.549165 0.475917 0.016134 -0.020581
C47   C     C_R   0.696011 0.433455 0.988420 -0.245864
C48   C     C_R   0.302070 0.566855 0.011703 -0.248332
C49   C     C_R   0.707148 0.426280 0.927686 0.289021
C50   C     C_R   0.289529 0.573377 0.072488 0.297137
H9    H     H_    0.598877 0.366898 0.082314 0.105954
H10   H     H_    0.402273 0.633497 0.917775 0.111164
H11   H     H_    0.424251 0.475778 0.240867 0.136658
H12   H     H_    0.574528 0.524076 0.759223 0.143695
C51   C     C_1   0.467224 0.882812 0.885247 -0.298579
C52   C     C_1   0.532773 0.117198 0.114747 -0.303759
C53   C     C_1   0.478655 0.926330 0.928067 0.089460
C54   C     C_1   0.521340 0.073683 0.071924 0.086592
C55   C     C_1   0.493568 0.978144 0.978677 0.023671
C56   C     C_1   0.506426 0.021872 0.021313 0.022816
C57   C     C_2   0.861024 0.407471 0.022483 1.066554
O21   O     O_2   0.941137 0.446446 0.059284 -0.618295
O22   O     O_R   0.923195 0.338911 0.013290 -0.743478
H13   H     H_    0.035888 0.328049 0.039402 0.323537
C58   C     C_2   0.138859 0.593597 0.977294 1.065193
O23   O     O_2   0.081065 0.653033 0.986832 -0.587957
O24   O     O_R   0.053328 0.550318 0.933092 -0.767002
H14   H     H_    0.944800 0.573955 0.912474 0.323686
C59   C     C_2   0.114962 0.156916 0.511194 0.993549
O25   O     O_2   0.264370 0.152238 0.484196 -0.633513
O26   O     O_R   0.038445 0.221601 0.530813 -0.791304
H15   H     H_    0.117277 0.260442 0.518849 0.328565
C60   C     C_2   0.882749 0.843568 0.489223 0.994638
O27   O     O_2   0.946701 0.786573 0.471978 -0.629996
O28   O     O_R   0.713530 0.849984 0.520863 -0.792485
H16   H     H_    0.660160 0.803895 0.527790 0.328480
N1    N     N_R   0.855609 0.382513 0.900964 0.243067
O29   O     O_R   0.001822 0.408991 0.878132 -0.353930
O30   O     O_R   0.845187 0.316129 0.899630 -0.293009
N2    N     N_R   0.138516 0.615900 0.099275 0.240685
O31   O     O_R   0.143663 0.682391 0.100389 -0.306345
O32   O     O_R   0.993882 0.588044 0.121753 -0.351143
C61   C     C_2   0.655040 0.403438 0.796786 1.101129
O33   O     O_2   0.594304 0.348678 0.808727 -0.576884
O34   O     O_R   0.761282 0.406006 0.746875 -0.789458
H17   H     H_    0.781929 0.359051 0.724955 0.339540
C62   C     C_2   0.342542 0.596716 0.202876 1.094490
O35   O     O_2   0.248825 0.595290 0.246490 -0.617872
O36   O     O_R   0.413036 0.658905 0.188621 -0.740859
H18   H     H_    0.373551 0.699225 0.217028 0.343621

loop_
_geom_bond_atom_site_label_1
_geom_bond_atom_site_label_2
_geom_bond_distance
_ccdc_geom_bond_type
C21   H4    1.078763 S    
C2    C34   1.478405 S    
C57   O21   1.222967 D    
O6    C8    1.310534 A    
C48   C58   1.491480 S    
O13   V3    1.694976 S    
C29   C31   1.395896 A    
O22   H13   1.013993 S    
O4    C2    1.303654 A    
V1    O19   1.704595 S    
N2    O32   1.301275 A    
C58   O23   1.222209 D    
C23   C25   1.415341 A    
C45   C46   1.427909 A    
C7    C9    1.505083 S    
C16   C22   1.406212 A    
C60   O28   1.398997 S    
O9    V1    1.983588 S    
C59   O25   1.223447 D    
C42   C44   1.420255 A    
C11   C13   1.479203 S    
C47   C57   1.490673 S    
O3    C1    1.303562 A    
N1    O30   1.301131 A    
C36   C62   1.482817 S    
C22   H3    1.078824 S    
C33   C37   1.392426 A    
O12   V4    1.992005 S    
C61   O33   1.222779 D    
C21   C23   1.424995 A    
O7    C3    1.316502 A    
C35   C61   1.482296 S    
C6    C16   1.474353 S    
O5    C7    1.310530 A    
O7    V1    1.857545 S    
C34   C40   1.401965 A    
O8    V2    1.857545 S    
C61   O34   1.398417 S    
O28   H16   1.013840 S    
O3    V1    1.982340 S    
O14   V4    1.694976 S    
C53   C55   1.479237 S    
C10   C12   1.247189 T    
C15   C21   1.406166 A    
C24   C26   1.415305 A    
C8    C10   1.505083 S    
C57   O22   1.397258 S    
C17   C19   1.391901 A    
O10   V2    1.983588 S    
C18   C20   1.391843 A    
C17   C25   1.404491 A    
N2    O31   1.301232 A    
C58   O24   1.397918 S    
O11   V3    1.992004 S    
C30   C32   1.397131 A    
C62   O36   1.397978 S    
O17   V3    1.858505 S    
C22   C24   1.424993 A    
C27   C28   1.443591 A    
C48   C50   1.415039 A    
O8    C4    1.316503 A    
C29   C59   1.484286 S    
C55   C56   1.247258 T    
C39   C41   1.424045 A    
C46   C47   1.424469 A    
C43   C49   1.419952 A    
C15   C19   1.395504 A    
C1    O11   1.295252 A    
C25   C31   1.391893 A    
O15   V3    1.997056 S    
C26   C32   1.391797 A    
C35   C37   1.399567 A    
C50   N2    1.437273 S    
C13   C14   1.247239 T    
C1    C33   1.478307 S    
C54   C56   1.479236 S    
O24   H14   1.013953 S    
C16   C20   1.395476 A    
C3    C51   1.505142 S    
O1    V3    1.838040 S    
C31   H1    1.085370 S    
C36   C44   1.426148 A    
O36   H18   1.013847 S    
C18   C26   1.404504 A    
C40   C42   1.424350 A    
C49   N1    1.436724 S    
O18   V4    1.858506 S    
C51   C53   1.247228 T    
O16   C6    1.297000 A    
O1    C3    1.311627 A    
C41   C43   1.421062 A    
C44   C50   1.419601 A    
C12   C14   1.479189 S    
C18   H8    1.083919 S    
C28   C29   1.428828 A    
C47   C49   1.412959 A    
C39   H10   1.080876 S    
V2    O20   1.704595 S    
C45   C48   1.425007 A    
C41   C45   1.434505 A    
O16   V4    1.997058 S    
C30   C60   1.485352 S    
C52   C54   1.247223 T    
C23   C27   1.439853 A    
C62   O35   1.223302 D    
O5    V1    1.836902 S    
C20   H5    1.083559 S    
O17   C7    1.315683 A    
O6    V2    1.836900 S    
C60   O27   1.223453 D    
O10   C6    1.298460 A    
O18   C8    1.315680 A    
C59   O26   1.398543 S    
O2    V4    1.838039 S    
C27   C30   1.428124 A    
O15   C5    1.297025 A    
C4    C52   1.505135 S    
V3    O19   2.134763 S    
C33   C39   1.401820 A    
N1    O29   1.301188 A    
V4    O20   2.134765 S    
C9    C11   1.247199 T    
C34   C38   1.392462 A    
C5    C15   1.474410 S    
O9    C5    1.298469 A    
O13   V1    2.148527 S    
C32   H2    1.085377 S    
O14   V2    2.148526 S    
O2    C4    1.311627 A    
C40   H9    1.080984 S    
O4    V2    1.982340 S    
C24   C28   1.439897 A    
C35   C43   1.427124 A    
C2    O12   1.295202 A    
C42   C46   1.433825 A    
O26   H15   1.013949 S    
C36   C38   1.400553 A    
C17   H7    1.083912 S    
O34   H17   1.013860 S    
C38   H11   1.084773 S    
C37   H12   1.084732 S    
C19   H6    1.083557 S    
