data_mof_unit_28025.cif
_audit_creation_date              2013-03-05T15:58:56-0500
_audit_creation_method            fapswitch 2.2
_symmetry_space_group_name_H-M    P1
_symmetry_Int_Tables_number       1
_space_group_crystal_system       triclinic
_cell_length_a                    10.631468
_cell_length_b                    12.589181
_cell_length_c                    13.118803
_cell_angle_alpha                 82.055804
_cell_angle_beta                  90.717244
_cell_angle_gamma                 102.419927
_cell_volume                      1698.02399844

loop_
_atom_site_label
_atom_site_type_symbol
_atom_site_description
_atom_site_fract_x
_atom_site_fract_y
_atom_site_fract_z
_atom_type_partial_charge
O1    O     O_R   0.468120 0.366740 0.627160 -0.612950
O2    O     O_R   0.510770 0.544830 0.662520 -0.619028
C1    C     C_R   0.477136 0.438613 0.691092 0.854367
O3    O     O_R   0.663880 0.410950 0.482330 -0.627032
O4    O     O_R   0.706530 0.589040 0.517700 -0.619036
C2    C     C_R   0.741951 0.500600 0.500356 0.832771
Zn1   Zn    Zn3+2 0.471520 0.381090 0.476390 0.933842
Zn2   Zn    Zn3+2 0.528480 0.618910 0.523610 0.949641
O5    O     O_R   0.489230 0.455170 0.337480 -0.621412
O6    O     O_R   0.531880 0.633260 0.372840 -0.580448
O7    O     O_R   0.293470 0.410960 0.482300 -0.620638
O8    O     O_R   0.336120 0.589050 0.517670 -0.663534
C3    C     C_R   0.516248 0.561714 0.307846 0.909996
C4    C     C_R   0.258030 0.499755 0.499973 0.803925
C5    C     C_3   0.905929 0.409872 0.584359 -0.399943
H1    H     H_    0.850045 0.328041 0.569699 0.180261
H2    H     H_    0.875596 0.423614 0.661540 0.161814
C6    C     C_3   0.050287 0.409372 0.584235 -0.391783
H3    H     H_    0.090543 0.423347 0.661222 0.159074
H4    H     H_    0.063445 0.327346 0.569700 0.186155
H5    H     H_    0.865075 0.400985 0.374423 0.187644
H6    H     H_    0.078190 0.399097 0.375079 0.182065
C7    C     C_3   0.921009 0.480987 0.393559 -0.387170
C8    C     C_3   0.957717 0.613976 0.524000 -0.386225
C9    C     C_3   0.878812 0.501526 0.500607 0.165583
H7    H     H_    0.939462 0.681515 0.465205 0.194017
H8    H     H_    0.929230 0.630650 0.600693 0.175872
C10   C     C_3   0.121348 0.500348 0.500233 0.177407
C11   C     C_3   0.065174 0.479816 0.393528 -0.402798
C12   C     C_3   0.100426 0.613534 0.523353 -0.384420
H9    H     H_    0.140946 0.631056 0.599511 0.179886
H10   H     H_    0.150257 0.680569 0.463761 0.175915
H11   H     H_    0.902092 0.546445 0.332846 0.171253
H12   H     H_    0.116530 0.544426 0.332530 0.162505
C13   C     C_R   0.458710 0.722173 0.051289 0.234897
H13   H     H_    0.358737 0.723051 0.859959 0.194742
C14   C     C_R   0.513014 0.598540 0.196558 -0.221429
C15   C     C_R   0.464269 0.292536 0.839875 -0.189921
C16   C     C_R   0.459785 0.259742 0.945472 -0.103280
C17   C     C_R   0.451542 0.334961 0.012184 -0.202180
C18   C     C_R   0.441504 0.443736 0.973351 0.122217
C19   C     C_R   0.421781 0.469081 0.867426 0.092387
C20   C     C_R   0.455261 0.529534 0.034813 0.046687
C21   C     C_R   0.431013 0.633401 0.993429 -0.012781
C22   C     C_R   0.385030 0.647452 0.893163 -0.164326
C23   C     C_R   0.378688 0.565712 0.831479 -0.220732
C24   C     C_R   0.500688 0.516234 0.134270 -0.299025
C25   C     C_R   0.503548 0.705708 0.152899 0.201666
C26   C     C_R   0.449527 0.398457 0.800247 -0.133348
H14   H     H_    0.527198 0.440668 0.165779 0.184720
H15   H     H_    0.482067 0.235895 0.789441 0.169227
H16   H     H_    0.451234 0.305238 0.093361 0.143007
H17   H     H_    0.468875 0.177328 0.975864 0.196036
H18   H     H_    0.341686 0.579939 0.754757 0.167986
C27   C     C_R   0.311097 0.085921 0.354188 -0.272358
H19   H     H_    0.294240 0.254144 0.334731 0.134475
H20   H     H_    0.274894 0.877382 0.328006 0.172313
H21   H     H_    0.238753 0.063133 0.297590 0.160146
N1    N     N_R   0.433240 0.222190 0.444680 -0.103289
C28   C     C_R   0.654819 0.799627 0.628431 0.023587
C29   C     C_R   0.685772 0.903831 0.657634 -0.215836
C30   C     C_R   0.625436 0.984970 0.610404 -0.174568
C31   C     C_R   0.533361 0.961745 0.533287 0.011805
C32   C     C_R   0.504709 0.853950 0.506955 0.236837
C33   C     C_R   0.469377 0.040745 0.480989 -0.011952
C34   C     C_R   0.374697 0.009248 0.406999 0.182676
C35   C     C_R   0.346158 0.902094 0.384880 -0.210660
C36   C     C_R   0.413289 0.826651 0.431886 -0.146358
C37   C     C_R   0.496155 0.150730 0.497980 -0.038718
C38   C     C_R   0.342385 0.193349 0.374429 0.003680
N2    N     N_R   0.566070 0.776970 0.554790 -0.129202
H22   H     H_    0.566185 0.182550 0.552231 0.121614
H23   H     H_    0.701044 0.735980 0.664911 0.138727
H24   H     H_    0.652211 0.064241 0.636246 0.137683
H25   H     H_    0.756060 0.921636 0.716767 0.167139
H26   H     H_    0.393612 0.748052 0.406166 0.206522
N3    N     N_R   0.545020 0.797744 0.208235 0.224492
O9    O     O_R   0.656646 0.811407 0.252234 -0.368756
O10   O     O_R   0.484192 0.877724 0.199074 -0.358468
N4    N     N_R   0.448883 0.830026 0.004877 0.225600
O11   O     O_R   0.336310 0.853697 0.989390 -0.395384
O12   O     O_R   0.552561 0.905964 0.982234 -0.355872

loop_
_geom_bond_atom_site_label_1
_geom_bond_atom_site_label_2
_geom_bond_distance
_ccdc_geom_bond_type
C5    C6    1.536134 S    
C31   C33   1.418899 A    
H6    C11   1.113407 S    
C18   C19   1.405599 A    
C13   N4    1.433919 S    
C8    H8    1.114190 S    
C1    C26   1.462488 S    
C15   C26   1.403281 A    
N3    O9    1.301389 A    
C29   H25   1.082565 S    
Zn1   O7    2.012096 S    
O4    C2    1.298348 A    
C32   C36   1.399468 A    
C10   C11   1.547809 S    
C8    H7    1.114228 S    
C12   H9    1.114322 S    
O7    C4    1.303968 A    
C5    C9    1.551262 S    
C2    C9    1.452547 S    
C5    H1    1.113500 S    
C28   H23   1.081706 S    
Zn1   O5    1.920777 S    
C6    H3    1.113589 S    
C19   C23   1.409945 A    
C32   N2    1.360942 A    
O5    C3    1.313652 A    
C7    H11   1.113451 S    
C14   C24   1.389777 A    
C3    C14   1.471772 S    
C34   C35   1.387785 A    
C18   C20   1.417044 A    
H20   C35   1.084490 S    
O3    Zn1   2.000778 S    
C13   C25   1.413267 A    
Zn1   N1    2.053280 S    
C24   H14   1.076577 S    
N3    O10   1.300447 A    
C15   C16   1.388127 A    
C35   C36   1.382168 A    
C6    C10   1.548124 S    
C8    C9    1.550741 S    
O3    C2    1.297902 A    
C16   C17   1.391776 A    
C15   H15   1.083325 S    
N1    C38   1.354083 A    
C28   N2    1.357390 A    
C17   H16   1.078673 S    
C11   H12   1.113573 S    
C28   C29   1.387825 A    
O1    C1    1.304525 A    
C25   N3    1.438265 S    
C37   H22   1.076366 S    
C20   C21   1.419961 A    
C30   C31   1.414600 A    
Zn2   O8    2.000778 S    
C23   H18   1.081870 S    
H13   C22   1.081885 S    
C14   C25   1.414845 A    
C13   C21   1.413913 A    
N1    C37   1.348660 A    
N4    O12   1.301363 A    
C17   C18   1.419443 A    
O8    C4    1.293339 A    
H19   C38   1.081969 S    
H5    C7    1.113341 S    
C7    C11   1.535927 S    
C27   C34   1.397521 A    
C21   C22   1.399027 A    
C5    H2    1.113416 S    
Zn2   N2    2.040918 S    
O1    Zn1   1.961207 S    
O2    Zn2   1.920777 S    
N4    O11   1.301171 A    
O6    C3    1.307752 A    
O4    Zn2   2.012097 S    
C36   H26   1.066859 S    
C10   C12   1.558634 S    
O2    C1    1.309788 A    
C12   H10   1.113429 S    
C16   H17   1.082861 S    
C33   C37   1.400736 A    
C6    H4    1.113323 S    
C7    C9    1.551236 S    
C29   C30   1.391301 A    
C8    C12   1.518539 S    
C27   C38   1.383387 A    
C19   C26   1.410717 A    
C31   C32   1.415220 A    
C22   C23   1.384654 A    
Zn2   O6    1.961205 S    
C33   C34   1.422280 A    
C27   H21   1.083902 S    
C30   H24   1.077407 S    
C4    C10   1.454804 S    
C20   C24   1.386466 A    
