data_mof_unit_29105.cif
_audit_creation_date              2012-12-11T16:30:26-0500
_audit_creation_method            fapswitch 2.2
_symmetry_space_group_name_H-M    P1
_symmetry_Int_Tables_number       1
_space_group_crystal_system       triclinic
_cell_length_a                    6.929654
_cell_length_b                    14.433764
_cell_length_c                    16.010343
_cell_angle_alpha                 89.998909
_cell_angle_beta                  89.93308
_cell_angle_gamma                 90.002331
_cell_volume                      1601.36927022

loop_
_atom_site_label
_atom_site_type_symbol
_atom_type_description
_atom_site_fract_x
_atom_site_fract_y
_atom_site_fract_z
_atom_type_partial_charge
O1    O     O_R   0.611670 0.415650 0.164070 -0.538883
O2    O     O_R   0.388330 0.915650 0.835930 -0.539118
O3    O     O_R   0.940950 0.405490 0.337780 -0.546757
O4    O     O_R   0.059050 0.905490 0.662220 -0.547710
O5    O     O_R   0.111350 0.584350 0.338470 -0.544732
O6    O     O_R   0.888650 0.084350 0.661530 -0.543990
C1    C     C_R   0.771625 0.382550 0.366647 0.624814
C2    C     C_R   0.227875 0.883099 0.632902 0.625282
O7    O     O_R   0.941380 0.404630 0.164680 -0.526932
O8    O     O_R   0.058620 0.904630 0.835320 -0.526777
O9    O     O_R   0.111780 0.583470 0.164130 -0.518496
O10   O     O_R   0.888220 0.083470 0.835870 -0.518441
C3    C     C_R   0.772568 0.383228 0.135550 0.821833
C4    C     C_R   0.227408 0.883447 0.864660 0.821923
O11   O     O_R   0.611240 0.416530 0.338400 -0.545239
O12   O     O_R   0.388760 0.916530 0.661600 -0.544416
O13   O     O_3   0.778020 0.558680 0.251290 -0.360500
O14   O     O_3   0.221980 0.058680 0.748710 -0.360637
V1    V     V_3+5 0.052840 0.489110 0.251260 1.427208
V2    V     V_3+5 0.947160 0.989110 0.748740 1.427407
O15   O     O_R   0.441500 0.594510 0.164760 -0.532906
O16   O     O_R   0.558500 0.094510 0.835240 -0.532928
C5    C     C_R   0.272632 0.616554 0.136151 0.720298
C6    C     C_R   0.727385 0.116422 0.863995 0.720500
O17   O     O_R   0.441080 0.595370 0.337860 -0.545125
O18   O     O_R   0.558920 0.095370 0.662140 -0.546071
C7    C     C_R   0.271747 0.618382 0.366669 0.630158
C8    C     C_R   0.727757 0.117827 0.632875 0.630401
V3    V     V_3+5 0.552850 0.510890 0.251270 1.422279
V4    V     V_3+5 0.447150 0.010890 0.748730 1.422134
O19   O     O_3   0.277800 0.441320 0.251250 -0.372069
O20   O     O_3   0.722200 0.941320 0.748750 -0.371998
C9    C     C_3   0.046008 0.711114 0.460695 -0.305930
C10   C     C_3   0.846177 0.147346 0.485100 -0.317794
H1    H     H_    0.968213 0.738437 0.405095 0.133696
H2    H     H_    0.995067 0.126721 0.503302 0.134385
H3    H     H_    0.971145 0.646435 0.480394 0.130933
H4    H     H_    0.771035 0.083683 0.463224 0.113629
C11   C     C_3   0.033645 0.782957 0.532240 -0.314856
C12   C     C_3   0.857087 0.218779 0.412409 -0.324086
H5    H     H_    0.951873 0.844702 0.510275 0.128374
H6    H     H_    0.010919 0.230977 0.395670 0.138340
H7    H     H_    0.285949 0.811283 0.356183 0.120759
H8    H     H_    0.994341 0.259219 0.611859 0.137857
C13   C     C_3   0.357621 0.782137 0.412456 -0.323512
C14   C     C_3   0.846850 0.277271 0.589768 -0.328430
C15   C     C_3   0.361594 0.652501 0.517058 -0.321211
C16   C     C_3   0.533506 0.218053 0.532290 -0.314963
C17   C     C_3   0.259694 0.689337 0.437362 0.121878
C18   C     C_3   0.738157 0.188388 0.561828 0.125709
H9    H     H_    0.516321 0.638289 0.503395 0.133363
H10   H     H_    0.451262 0.248465 0.585397 0.136481
H11   H     H_    0.294846 0.585801 0.536632 0.114782
H12   H     H_    0.451756 0.156335 0.510243 0.128455
C19   C     C_3   0.238294 0.812587 0.561813 0.126917
C20   C     C_3   0.759555 0.311646 0.437382 0.124210
C21   C     C_3   0.346404 0.853628 0.485101 -0.318133
C22   C     C_3   0.861800 0.348403 0.517024 -0.320966
C23   C     C_3   0.346948 0.723687 0.589761 -0.326536
C24   C     C_3   0.545875 0.290014 0.460836 -0.305431
H13   H     H_    0.269351 0.691285 0.643105 0.119793
H14   H     H_    0.467749 0.262852 0.405263 0.133470
H15   H     H_    0.494537 0.741737 0.611736 0.137743
H16   H     H_    0.471377 0.354731 0.480676 0.130712
H17   H     H_    0.495211 0.874349 0.503344 0.134285
H18   H     H_    0.795493 0.415204 0.536585 0.114855
H19   H     H_    0.446233 0.584546 0.758265 0.109270
H20   H     H_    0.557535 0.083803 0.242310 0.107442
C25   C     C_R   0.135013 0.937551 0.039163 0.332886
C26   C     C_R   0.865751 0.437292 0.961277 0.333306
C27   C     C_R   0.083723 0.959783 0.121837 -0.187292
C28   C     C_R   0.919119 0.459327 0.878821 -0.188006
C29   C     C_R   0.089259 0.893449 0.184254 -0.188605
C30   C     C_R   0.915417 0.392803 0.816564 -0.189523
C31   C     C_R   0.147501 0.803752 0.166129 -0.149583
C32   C     C_R   0.856263 0.303199 0.834578 -0.150320
C33   C     C_R   0.198975 0.777395 0.084029 0.019518
C34   C     C_R   0.802446 0.277064 0.916422 0.019554
C35   C     C_R   0.189710 0.844522 0.018427 0.028951
C36   C     C_R   0.810890 0.344257 0.981959 0.029150
C37   C     C_R   0.262052 0.685634 0.067516 -0.168549
C38   C     C_R   0.738208 0.185429 0.932756 -0.168871
C39   C     C_R   0.312845 0.659364 0.985276 0.054932
C40   C     C_R   0.687389 0.159133 0.015016 0.055163
C41   C     C_R   0.300491 0.724762 0.919128 0.046039
C42   C     C_R   0.700192 0.224452 0.081235 0.045747
C43   C     C_R   0.238229 0.816876 0.935211 -0.196705
C44   C     C_R   0.761874 0.316635 0.065094 -0.196573
C45   C     C_R   0.372981 0.567724 0.967086 -0.115484
C46   C     C_R   0.627367 0.067482 0.033199 -0.115951
C47   C     C_R   0.420487 0.541425 0.885943 -0.111327
C48   C     C_R   0.581045 0.041008 0.114435 -0.111267
C49   C     C_R   0.409277 0.605292 0.821267 -0.142180
C50   C     C_R   0.593249 0.104720 0.179215 -0.140796
C51   C     C_R   0.349812 0.695807 0.837271 -0.150637
C52   C     C_R   0.652182 0.195314 0.163219 -0.150231
H21   H     H_    0.040929 0.029620 0.138315 0.126245
H22   H     H_    0.962307 0.529126 0.862398 0.126223
H23   H     H_    0.050299 0.911993 0.247605 0.123148
H24   H     H_    0.956488 0.411168 0.753428 0.125216
H25   H     H_    0.152150 0.755352 0.217644 0.102255
H26   H     H_    0.853123 0.254591 0.783259 0.104570
H27   H     H_    0.382826 0.515175 0.015086 0.121419
H28   H     H_    0.616998 0.015029 0.985136 0.121213
H29   H     H_    0.465534 0.471006 0.873175 0.128142
H30   H     H_    0.536318 0.970541 0.127208 0.128348
H31   H     H_    0.342660 0.742598 0.784673 0.086103
H32   H     H_    0.660251 0.241913 0.215984 0.084139
H33   H     H_    0.511541 0.769846 0.395919 0.139365
H34   H     H_    0.769005 0.309710 0.643022 0.121806
O21   O     O_3   0.136651 0.006715 0.979464 -0.650516
H35   H     H_    0.098395 0.066541 0.005074 0.285559
O22   O     O_3   0.862250 0.506643 0.020788 -0.650269
H36   H     H_    0.901038 0.566421 0.995231 0.285540
H37   H     H_    0.951431 0.752452 0.585314 0.135559
H38   H     H_    0.784933 0.189630 0.356246 0.119285
H39   H     H_    0.271164 0.917233 0.463154 0.113912
H40   H     H_    0.016578 0.362389 0.503292 0.133390

loop_
_geom_bond_atom_site_label_1
_geom_bond_atom_site_label_2
_ccdc_geom_bond_type
C41   C43   A    
O11   V3    S    
C19   C23   S    
O13   V3    S    
C47   H29   S    
O21   H35   S    
O4    C2    A    
V1    O19   S    
C35   C43   A    
C11   H5    S    
C28   H22   S    
C16   H12   S    
C27   H21   S    
C13   C21   S    
C9    C11   S    
C30   C32   A    
C10   C12   S    
C21   H39   S    
C40   C42   A    
C4    C43   S    
O3    C1    A    
C13   H33   S    
C9    C17   S    
C22   H40   S    
C24   H14   S    
C2    O12   A    
C25   C27   A    
O7    C3    A    
C6    C38   S    
O13   V1    S    
O5    C7    A    
C8    C18   S    
O15   C5    A    
O7    V1    S    
O6    C8    A    
O8    V2    S    
C12   C20   S    
O3    V1    S    
O14   V4    S    
C13   C17   S    
C45   C47   A    
C5    C37   S    
C10   H2    S    
C15   H11   S    
C16   C18   S    
C52   H32   S    
C49   C51   A    
C14   C22   S    
O17   V3    S    
C29   C31   A    
C40   C46   A    
C1    C20   S    
O2    C4    A    
C2    C19   S    
O1    V3    S    
C37   C39   A    
H8    C14   S    
C16   C24   S    
C33   C35   A    
C26   O22   S    
C32   H26   S    
C39   C45   A    
C11   C19   S    
C23   H13   S    
C10   C18   S    
C42   C44   A    
C26   C36   A    
C28   C30   A    
O8    C4    A    
C21   H17   S    
C27   C29   A    
C30   H24   S    
C1    O11   A    
O15   V3    S    
C9    H3    S    
C20   C24   S    
C47   C49   A    
H7    C13   S    
C34   C38   A    
C46   C48   A    
C33   C37   A    
O9    V1    S    
O10   V2    S    
C48   C50   A    
C34   C36   A    
C42   C52   A    
C11   H37   S    
C50   C52   A    
C31   C33   A    
C46   H28   S    
C51   H31   S    
C48   H30   S    
C39   C41   A    
O18   V4    S    
C38   C40   A    
C19   C21   S    
O17   C7    A    
O16   C6    A    
C25   C35   A    
O1    C3    A    
C22   H18   S    
O22   H36   S    
V2    O20   S    
C29   H23   S    
C14   C18   S    
C31   H25   S    
O16   V4    S    
C10   H4    S    
O18   C8    A    
C32   C34   A    
C12   H6    S    
C15   H9    S    
O5    V1    S    
C15   C17   S    
O6    V2    S    
O10   C6    A    
C23   H15   S    
O2    V4    S    
C24   H16   S    
C14   H34   S    
V3    O19   S    
V4    O20   S    
C41   C51   A    
C12   H38   S    
C3    C44   S    
O9    C5    A    
C9    H1    S    
C20   C22   S    
O14   V2    S    
C25   O21   S    
H20   C50   S    
C15   C23   S    
O4    V2    S    
C16   H10   S    
C36   C44   A    
H19   C49   S    
C26   C28   A    
O12   V4    S    
C45   H27   S    
C7    C17   S    
