data_mof_unit_58892.cif
_audit_creation_date              2012-12-11T16:57:11-0500
_audit_creation_method            fapswitch 2.2
_symmetry_space_group_name_H-M    P1
_symmetry_Int_Tables_number       1
_space_group_crystal_system       triclinic
_cell_length_a                    14.902896
_cell_length_b                    15.97028
_cell_length_c                    6.954163
_cell_angle_alpha                 89.998897
_cell_angle_beta                  99.158883
_cell_angle_gamma                 90.000329
_cell_volume                      1634.01311395

loop_
_atom_site_label
_atom_site_type_symbol
_atom_type_description
_atom_site_fract_x
_atom_site_fract_y
_atom_site_fract_z
_atom_type_partial_charge
O1    O     O_R   0.584990 0.413650 0.534420 -0.535390
O2    O     O_R   0.584990 0.586350 0.534420 -0.535406
O3    O     O_R   0.596190 0.585230 0.208380 -0.545331
O4    O     O_R   0.596190 0.414770 0.208380 -0.545375
O5    O     O_R   0.415010 0.586420 0.976930 -0.542198
O6    O     O_R   0.415010 0.413580 0.976930 -0.542222
C1    C     C_R   0.617861 0.615344 0.385046 0.714671
C2    C     C_R   0.617860 0.384655 0.385048 0.714640
O7    O     O_3   0.440560 0.500000 0.319140 -0.368367
V1    V     V_3+5 0.511030 0.500000 0.068070 1.387578
O8    O     O_R   0.403810 0.414840 0.643540 -0.543193
O9    O     O_R   0.403810 0.585160 0.643540 -0.543192
C3    C     C_R   0.375910 0.391211 0.804816 0.740463
C4    C     C_R   0.375907 0.608786 0.804816 0.740419
V2    V     V_3+5 0.488970 0.500000 0.560620 1.399349
O10   O     O_3   0.559440 0.500000 0.859420 -0.382706
H1    H     H_    0.182190 0.800677 0.805444 0.152732
H2    H     H_    0.182195 0.199321 0.805441 0.152732
H3    H     H_    0.314081 0.689355 0.100754 0.155660
H4    H     H_    0.314079 0.310644 0.100753 0.155652
C5    C     C_2   0.305194 0.675313 0.795273 -0.322229
C6    C     C_2   0.305199 0.324684 0.795273 -0.322234
C7    C     C_2   0.281933 0.710581 0.957813 -0.124052
C8    C     C_2   0.281934 0.289417 0.957813 -0.124056
H5    H     H_    0.224402 0.794647 0.253502 0.121796
H6    H     H_    0.224399 0.205353 0.253498 0.121796
C9    C     C_2   0.192504 0.816307 0.110755 -0.318182
C10   C     C_2   0.192503 0.183692 0.110752 -0.318185
C11   C     C_2   0.214350 0.779586 0.948499 -0.097400
C12   C     C_2   0.214352 0.220413 0.948496 -0.097397
H7    H     H_    0.273450 0.697345 0.652750 0.132170
H8    H     H_    0.273457 0.302651 0.652751 0.132161
C13   C     C_R   0.686232 0.746532 0.566624 0.026664
C14   C     C_R   0.686224 0.253458 0.566610 0.026568
C15   C     C_R   0.685650 0.685784 0.417663 -0.117454
C16   C     C_R   0.685647 0.314214 0.417662 -0.117383
C17   C     C_R   0.752741 0.694719 0.296269 -0.147159
C18   C     C_R   0.752737 0.305283 0.296269 -0.147148
H9    H     H_    0.756300 0.649989 0.180895 0.155886
H10   H     H_    0.756298 0.350017 0.180910 0.155882
C19   C     C_R   0.819297 0.758691 0.329017 -0.074575
C20   C     C_R   0.819292 0.241308 0.329006 -0.074639
H11   H     H_    0.873098 0.760975 0.243228 0.189145
H12   H     H_    0.873092 0.239028 0.243220 0.189148
C21   C     C_R   0.820665 0.816755 0.480586 -0.077771
C22   C     C_R   0.820658 0.183239 0.480567 -0.077760
C23   C     C_R   0.756340 0.805954 0.601995 0.054941
C24   C     C_R   0.756332 0.194034 0.601971 0.054918
C25   C     C_3   0.775171 0.788556 0.813844 0.373225
C26   C     C_3   0.775169 0.211421 0.813819 0.373240
C27   C     C_3   0.689842 0.734813 0.782631 -0.118633
C28   C     C_3   0.689845 0.265167 0.782620 -0.118629
H13   H     H_    0.701087 0.668756 0.831265 0.169330
H14   H     H_    0.701095 0.331218 0.831270 0.169356
O11   O     O_R   0.921430 0.915960 0.371040 -0.521126
O12   O     O_R   0.921430 0.084040 0.371040 -0.521131
O13   O     O_R   0.910450 0.087500 0.697310 -0.509454
O14   O     O_R   0.910450 0.912500 0.697310 -0.509460
O15   O     O_R   0.091710 0.087460 0.928430 -0.545990
O16   O     O_R   0.091710 0.912540 0.928430 -0.545991
C29   C     C_R   0.890157 0.115719 0.519454 0.761617
C30   C     C_R   0.890160 0.884279 0.519460 0.761606
O17   O     O_3   0.065970 1.000000 0.586140 -0.404004
V3    V     V_3+5 0.995640 1.000000 0.837400 1.603042
O18   O     O_R   0.103020 0.915700 0.261710 -0.553360
O19   O     O_R   0.103020 0.084300 0.261710 -0.553358
C31   C     C_R   0.124658 0.885329 0.100206 0.754301
C32   C     C_R   0.124657 0.114671 0.100204 0.754312
V4    V     V_3+5 0.017940 1.000000 0.344880 1.510686
O20   O     O_3   0.947330 1.000000 0.046180 -0.302847
Br1   Br    Br    0.774709 0.890237 0.969397 -0.496293
Br2   Br    Br    0.774697 0.109733 0.969356 -0.496297
Br3   Br    Br    0.886017 0.721533 0.877240 -0.596551
Br4   Br    Br    0.886015 0.278441 0.877224 -0.596553
C33   C     C_3   0.610037 0.778646 0.857285 -0.359057
C34   C     C_3   0.523628 0.731113 0.801332 -0.716324
H15   H     H_    0.501944 0.732280 0.640956 0.221094
H16   H     H_    0.536987 0.666204 0.852861 0.259687
H17   H     H_    0.469986 0.760000 0.873511 0.206041
H18   H     H_    0.624393 0.782462 0.018820 0.221047
H19   H     H_    0.599141 0.843114 0.797257 0.229972
C35   C     C_3   0.610048 0.221323 0.857280 -0.359068
C36   C     C_3   0.523673 0.268950 0.801697 -0.716248
H20   H     H_    0.537100 0.333810 0.853492 0.259662
H21   H     H_    0.501925 0.267921 0.641315 0.221142
H22   H     H_    0.470052 0.240041 0.873888 0.206024
H23   H     H_    0.599080 0.156898 0.797011 0.229891
H24   H     H_    0.624471 0.217382 0.018808 0.221133

loop_
_geom_bond_atom_site_label_1
_geom_bond_atom_site_label_2
_ccdc_geom_bond_type
O14   C30   A    
O19   C32   A    
C9    C11   D    
O1    C2    A    
H1    C11   S    
O2    C1    A    
C34   H17   S    
O4    C2    A    
C23   C25   S    
C5    H7    S    
O15   V3    S    
C6    H8    S    
C7    C11   S    
C4    C5    S    
C10   C32   S    
C27   C33   S    
C18   C20   A    
O3    C1    A    
C26   Br4   S    
C2    C16   S    
O18   V4    S    
O19   V4    S    
C35   H23   S    
O11   C30   A    
C21   C30   S    
C20   C22   A    
C26   Br2   S    
O8    V2    S    
H4    C8    S    
O16   C31   A    
O18   C31   A    
C26   C28   S    
H2    C12   S    
V3    O20   S    
C33   H18   S    
C14   C16   A    
C24   C26   S    
C19   H11   S    
C20   H12   S    
H6    C10   S    
C28   H14   S    
C21   C23   A    
O14   V3    S    
C22   C24   A    
C22   C29   S    
O17   V4    S    
C34   H15   S    
C33   H19   S    
C25   C27   S    
C13   C27   S    
C27   H13   S    
H3    C7    S    
C33   C34   S    
O15   C32   A    
C36   H20   S    
O9    V2    S    
C28   C35   S    
O2    V2    S    
O5    C4    A    
O11   V4    S    
O1    V2    S    
C36   H21   S    
O9    C4    A    
C35   C36   S    
C5    C7    D    
C13   C23   A    
C25   Br3   S    
C14   C24   A    
O4    V1    S    
O13   V3    S    
O7    V1    S    
C15   C17   A    
C1    C15   S    
C34   H16   S    
O6    V1    S    
O13   C29   A    
H5    C9    S    
C14   C28   S    
O16   V3    S    
C16   C18   A    
O7    V2    S    
O5    V1    S    
C17   H9    S    
O3    V1    S    
V1    O10   S    
O6    C3    A    
C18   H10   S    
O8    C3    A    
C35   H24   S    
C10   C12   D    
C13   C15   A    
C3    C6    S    
C6    C8    D    
C17   C19   A    
V4    O20   S    
C8    C12   S    
C9    C31   S    
O17   V3    S    
C36   H22   S    
O12   V4    S    
C25   Br1   S    
C19   C21   A    
O12   C29   A    
V2    O10   S    
