data_mof_unit_67549.cif
_audit_creation_date              2013-03-05T15:41:21-0500
_audit_creation_method            fapswitch 2.2
_symmetry_space_group_name_H-M    P1
_symmetry_Int_Tables_number       1
_space_group_crystal_system       triclinic
_cell_length_a                    10.658708
_cell_length_b                    8.847118
_cell_length_c                    7.480148
_cell_angle_alpha                 101.843459
_cell_angle_beta                  94.181813
_cell_angle_gamma                 92.903454
_cell_volume                      686.957918623

loop_
_atom_site_label
_atom_site_type_symbol
_atom_site_description
_atom_site_fract_x
_atom_site_fract_y
_atom_site_fract_z
_atom_type_partial_charge
O1    O     O_R   0.509190 0.286130 0.619780 -0.590824
O2    O     O_R   0.490810 0.713870 0.380220 -0.604928
O3    O     O_R   0.485310 0.256770 0.308360 -0.584098
O4    O     O_R   0.514690 0.743230 0.691640 -0.580392
C1    C     C_R   0.492941 0.201027 0.456000 0.873907
C2    C     C_R   0.508142 0.798863 0.544052 0.822150
O5    O     O_R   0.328790 0.514640 0.655680 -0.593396
O6    O     O_R   0.671210 0.485360 0.344320 -0.603512
O7    O     O_R   0.304910 0.485280 0.344260 -0.583858
O8    O     O_R   0.695090 0.514720 0.655740 -0.583780
C3    C     C_R   0.259349 0.496220 0.501655 0.797384
C4    C     C_R   0.739992 0.502500 0.497961 0.785175
Cu1   Cu    Cu3+1 0.514140 0.517380 0.684380 0.921585
Cu2   Cu    Cu3+1 0.485860 0.482620 0.315620 0.908713
N1    N     N_2   0.464560 0.456420 0.038510 -0.227808
N2    N     N_2   0.535440 0.543580 0.961490 -0.221712
C5    C     C_3   0.037145 0.402204 0.608441 0.171698
C6    C     C_3   0.959187 0.587191 0.387868 0.139908
C7    C     C_3   0.945844 0.352664 0.434131 0.181850
C8    C     C_3   0.049288 0.640451 0.562544 0.175529
C9    C     C_3   0.875905 0.498703 0.493403 -0.146271
C10   C     C_3   0.122124 0.495000 0.504581 -0.105817
C11   C     C_3   0.964915 0.548954 0.669159 -0.253886
C12   C     C_3   0.031886 0.441648 0.328395 -0.219086
H1    H     H_    0.926169 0.589082 0.801951 0.173217
H2    H     H_    0.062550 0.394538 0.190616 0.164609
H3    H     H_    0.398313 0.383780 0.950359 0.213470
H4    H     H_    0.600296 0.618123 0.049997 0.217167
C13   C     C_2   0.468561 0.036151 0.439603 -0.075768
C14   C     C_2   0.529771 0.963991 0.561760 -0.091230
C15   C     C_3   0.865726 0.205095 0.346602 -0.393954
C16   C     C_3   0.945017 0.076558 0.267269 -0.908652
H5    H     H_    0.013706 0.118984 0.182948 0.260519
H6    H     H_    0.995464 0.032056 0.378480 0.269482
H7    H     H_    0.881372 0.984843 0.177355 0.259156
H8    H     H_    0.805751 0.168218 0.446491 0.181304
H9    H     H_    0.802508 0.230088 0.233248 0.210823
C17   C     C_3   0.091401 0.811431 0.637816 -0.449620
C18   C     C_3   0.204738 0.834880 0.777720 -0.823366
H10   H     H_    0.191437 0.766617 0.884471 0.270361
H11   H     H_    0.289407 0.800494 0.708008 0.271149
H12   H     H_    0.220210 0.959731 0.841171 0.236931
H13   H     H_    0.115763 0.868667 0.525756 0.208432
H14   H     H_    0.011127 0.869941 0.702093 0.205512
C19   C     C_3   0.089705 0.299010 0.732335 -0.394789
C20   C     C_3   0.985547 0.216076 0.811437 -0.872813
H15   H     H_    0.927577 0.300507 0.893973 0.262215
H16   H     H_    0.924482 0.137959 0.701261 0.250544
H17   H     H_    0.029528 0.143558 0.899178 0.240189
H18   H     H_    0.146604 0.211757 0.652241 0.195149
H19   H     H_    0.152343 0.371314 0.846495 0.201259
C21   C     C_3   0.913468 0.679377 0.248681 -0.407059
C22   C     C_3   0.021703 0.716271 0.138539 -0.882514
H20   H     H_    0.102548 0.775297 0.230424 0.260200
H21   H     H_    0.055171 0.608670 0.057971 0.255943
H22   H     H_    0.991326 0.789988 0.042567 0.248689
H23   H     H_    0.837413 0.609998 0.152800 0.214992
H24   H     H_    0.874415 0.785530 0.323041 0.196966
C23   C     C_3   0.363907 0.952397 0.296126 -0.379426
C24   C     C_3   0.267883 0.056441 0.230246 -0.880316
H25   H     H_    0.233970 0.137313 0.347996 0.247281
H26   H     H_    0.306846 0.121158 0.132456 0.272247
H27   H     H_    0.186676 0.983722 0.153648 0.240439
H28   H     H_    0.406821 0.887155 0.175078 0.233472
H29   H     H_    0.308208 0.869247 0.356844 0.211003
C25   C     C_3   0.632057 0.041543 0.710958 -0.414016
C26   C     C_3   0.578551 0.085159 0.897519 -0.675730
H30   H     H_    0.485300 0.133879 0.884370 0.245084
H31   H     H_    0.567343 0.982136 0.959641 0.236233
H32   H     H_    0.643864 0.172926 0.991050 0.230263
H33   H     H_    0.707925 0.961139 0.721623 0.180645
H34   H     H_    0.681332 0.144129 0.677907 0.205776

loop_
_geom_bond_atom_site_label_1
_geom_bond_atom_site_label_2
_geom_bond_distance
_ccdc_geom_bond_type
N2    H4    1.029054 S    
C19   C20   1.520684 S    
O7    Cu2   1.956808 S    
C17   H14   1.110818 S    
C13   C14   1.364875 D    
C24   H27   1.100603 S    
C6    C9    1.519706 S    
C8    C17   1.533447 S    
C3    C10   1.463925 S    
C1    C13   1.446998 S    
C25   H33   1.112858 S    
C8    C11   1.547852 S    
O5    Cu1   1.969972 S    
O6    C4    1.294446 A    
C26   H32   1.108267 S    
C7    C15   1.522175 S    
C16   H5    1.100648 S    
O2    C2    1.294610 A    
C7    C12   1.540984 S    
C6    C21   1.517041 S    
C23   C24   1.531588 S    
C18   H11   1.100101 S    
C14   C25   1.528829 S    
C22   H20   1.099247 S    
C23   H29   1.110016 S    
O5    C3    1.299281 A    
O7    C3    1.293324 A    
C20   H17   1.104793 S    
C23   H28   1.111239 S    
C5    C11   1.547517 S    
O3    Cu2   1.987385 S    
C21   H24   1.106165 S    
C19   H18   1.110496 S    
C26   H30   1.109022 S    
C6    C12   1.540316 S    
O8    C4    1.291853 A    
C10   C12   1.548726 S    
O4    C2    1.296605 A    
C7    C9    1.527171 S    
C8    C10   1.538789 S    
C25   C26   1.529341 S    
C18   H12   1.107912 S    
C6    C8    1.539470 S    
C15   H8    1.105433 S    
C11   H1    1.101440 S    
C9    C11   1.536744 S    
C17   C18   1.516137 S    
O2    Cu2   2.000380 S    
O1    C1    1.294207 A    
C22   H22   1.106899 S    
C20   H16   1.105828 S    
C21   H23   1.110132 S    
C19   H19   1.110637 S    
C22   H21   1.107670 S    
N1    N2    1.297735 D    
C16   H7    1.106626 S    
C13   C23   1.536358 S    
C17   H13   1.104133 S    
O1    Cu1   2.000378 S    
C21   C22   1.525472 S    
C12   H2    1.108730 S    
C24   H26   1.107925 S    
C20   H15   1.110859 S    
Cu1   N2    2.032408 S    
C26   H31   1.109891 S    
C18   H10   1.108260 S    
Cu2   N1    2.032409 S    
O6    Cu2   1.969974 S    
C15   H9    1.109326 S    
C5    C7    1.541546 S    
Cu1   Cu2   2.704670 S    
N1    H3    1.028865 S    
C4    C9    1.453466 S    
C2    C14   1.444622 S    
C15   C16   1.501032 S    
C25   H34   1.106091 S    
C5    C10   1.545013 S    
O4    Cu1   1.987386 S    
C5    C19   1.526309 S    
C24   H25   1.110101 S    
O3    C1    1.297684 A    
O8    Cu1   1.956807 S    
C16   H6    1.107609 S    
