data_mof_unit_10072.cif
_audit_creation_date              2012-12-11T16:14:50-0500
_audit_creation_method            fapswitch 2.2
_symmetry_space_group_name_H-M    P1
_symmetry_Int_Tables_number       1
_space_group_crystal_system       triclinic
_cell_length_a                    13.660354
_cell_length_b                    13.673432
_cell_length_c                    28.466708
_cell_angle_alpha                 89.995472
_cell_angle_beta                  89.45914
_cell_angle_gamma                 60.202391
_cell_volume                      4613.85548054

loop_
_atom_site_label
_atom_site_type_symbol
_atom_type_description
_atom_site_fract_x
_atom_site_fract_y
_atom_site_fract_z
_atom_type_partial_charge
C1    C     C_R   0.279316 0.620215 0.566094 0.538552
C2    C     C_1   0.627887 0.629523 0.614212 -0.029796
C3    C     C_3   0.733517 0.718722 0.752590 0.264811
C4    C     C_3   0.689270 0.678427 0.793792 0.078682
C5    C     C_3   0.772113 0.606151 0.726637 0.005694
C6    C     C_3   0.653828 0.658521 0.704268 -0.026017
C7    C     C_3   0.727525 0.565685 0.768476 -0.033563
C8    C     C_3   0.609815 0.616955 0.745613 0.018096
C9    C     C_1   0.699498 0.692585 0.843724 0.020117
C10   C     C_1   0.635102 0.647107 0.654880 -0.074334
C11   C     C_1   0.625163 0.244363 0.613901 -0.022897
C12   C     C_R   0.619003 0.599204 0.567447 0.542809
C13   C     C_R   0.757361 0.197046 0.726005 0.207211
C14   C     C_R   0.781040 0.164817 0.773737 -0.041674
C15   C     C_R   0.601070 0.164112 0.779002 0.250074
C16   C     C_R   0.587012 0.181824 0.730516 0.216669
C17   C     C_R   0.662500 0.201889 0.704485 -0.019504
C18   C     C_R   0.698152 0.154187 0.800593 -0.041183
C19   C     C_1   0.709013 0.127718 0.849633 -0.026497
C20   C     C_1   0.643449 0.223459 0.654967 -0.000418
C21   C     C_1   0.712875 0.100292 0.889895 -0.014437
C22   C     C_1   0.231141 0.633938 0.611655 -0.047256
C23   C     C_R   0.598240 0.282909 0.566674 0.534334
C24   C     C_R   0.207691 0.553528 0.728692 -0.001147
C25   C     C_R   0.175964 0.567328 0.776921 0.017387
C26   C     C_R   0.132262 0.762938 0.772783 -0.139647
C27   C     C_R   0.146772 0.755158 0.724024 -0.007487
C28   C     C_R   0.182671 0.650403 0.701878 0.033202
C29   C     C_R   0.145998 0.671064 0.799013 0.024318
C30   C     C_1   0.126940 0.686076 0.848916 -0.063800
C31   C     C_1   0.204278 0.641054 0.652215 -0.077088
C32   C     C_1   0.102242 0.701971 0.889898 -0.019410
C33   C     C_1   0.635583 0.629608 0.387681 -0.031539
C34   C     C_R   0.277890 0.620718 0.434374 0.545212
C35   C     C_R   0.755566 0.590797 0.273365 0.015437
C36   C     C_R   0.761474 0.597270 0.224084 0.273176
C37   C     C_R   0.562276 0.739185 0.222460 -0.148433
C38   C     C_R   0.553069 0.732250 0.271411 -0.010452
C39   C     C_R   0.651447 0.659355 0.296896 -0.003652
C40   C     C_R   0.664471 0.672077 0.199121 0.015262
C41   C     C_1   0.672147 0.685815 0.149498 -0.036675
C42   C     C_1   0.643651 0.646716 0.346839 -0.083996
C43   C     C_1   0.689266 0.699326 0.109214 -0.014966
C44   C     C_1   0.638437 0.221411 0.390132 -0.037844
C45   C     C_R   0.620208 0.599510 0.433961 0.544538
C46   C     C_R   0.633876 0.089032 0.281339 0.011345
C47   C     C_R   0.638449 0.082102 0.232154 -0.124495
C48   C     C_R   0.744256 0.182046 0.227429 0.009231
C49   C     C_R   0.737550 0.192262 0.276310 -0.115142
C50   C     C_R   0.681615 0.148897 0.303156 0.039399
C51   C     C_R   0.690065 0.130167 0.205395 0.029703
C52   C     C_1   0.692805 0.116989 0.155533 -0.069585
C53   C     C_1   0.662221 0.183162 0.351213 -0.076203
C54   C     C_1   0.699216 0.096345 0.114414 -0.016829
C55   C     C_1   0.225044 0.638872 0.389989 -0.024507
C56   C     C_R   0.600318 0.278272 0.433774 0.546374
C57   C     C_R   0.108150 0.757618 0.280230 -0.127956
C58   C     C_R   0.096124 0.765608 0.231714 -0.117140
C59   C     C_R   0.205749 0.561949 0.224723 -0.106906
C60   C     C_R   0.217682 0.552518 0.273654 0.015937
C61   C     C_R   0.169221 0.651996 0.301310 0.040198
C62   C     C_R   0.145827 0.668060 0.203988 0.017652
C63   C     C_1   0.126727 0.678287 0.154561 -0.075278
C64   C     C_1   0.193535 0.647564 0.350292 -0.075245
C65   C     C_1   0.099894 0.695063 0.114131 -0.021552
C66   C     C_R   0.721897 0.054165 0.935407 0.541616
C67   C     C_3   0.616422 0.772814 0.729404 -0.125953
C68   C     C_R   0.733207 0.718736 0.931752 0.540900
C69   C     C_R   0.056527 0.730346 0.936319 0.544658
C70   C     C_R   0.714944 0.054044 0.067854 0.542674
C71   C     C_R   0.724966 0.716949 0.064360 0.539616
C72   C     C_R   0.052349 0.728356 0.068750 0.544823
C73   C     C_3   0.573313 0.730115 0.770548 0.266794
C74   C     C_1   0.709483 0.704461 0.884688 0.000952
Cr1   Cr    Cr6+3 0.413560 0.417690 0.499580 1.005147
Cr2   Cr    Cr6+3 0.418030 0.668340 0.500400 1.014840
Cr3   Cr    Cr6+3 0.668390 0.413960 0.499990 1.010913
Cr4   Cr    Cr6+3 0.919710 0.916540 0.003080 1.019533
Cr5   Cr    Cr6+3 0.665300 0.919470 0.999630 1.030108
Cr6   Cr    Cr6+3 0.916060 0.665490 0.000390 1.012004
H1    H     H_    0.107551 0.841992 0.790508 0.105459
H2    H     H_    0.489961 0.794831 0.201664 0.115480
H3    H     H_    0.572127 0.852611 0.710454 0.071603
H4    H     H_    0.601344 0.038269 0.214388 0.105956
H5    H     H_    0.773955 0.237166 0.293606 0.103819
H6    H     H_    0.071379 0.833983 0.301262 0.106905
H7    H     H_    0.048125 0.847939 0.215780 0.112202
H8    H     H_    0.242151 0.486894 0.202866 0.100746
O1    O     O_R   0.503010 0.303330 0.550820 -0.517949
O2    O     O_R   0.522480 0.657560 0.452870 -0.496554
O3    O     O_R   0.693670 0.502790 0.448900 -0.509924
O4    O     O_R   0.656970 0.319650 0.452000 -0.493635
O5    O     O_3   0.499990 0.499990 0.499990 -0.248379
O6    O     O_R   0.035380 0.825870 0.952240 -0.510966
O7    O     O_R   0.818010 0.012400 0.954990 -0.504656
O8    O     O_R   0.644810 0.033340 0.949080 -0.503865
O9    O     O_R   0.674910 0.816000 0.950960 -0.486528
O10   O     O_R   0.827060 0.642880 0.947470 -0.526040
O11   O     O_R   0.013800 0.673690 0.954100 -0.498260
O12   O     O_R   0.320040 0.522690 0.547470 -0.502334
O13   O     O_R   0.031250 0.825430 0.055080 -0.506816
O14   O     O_R   0.814180 0.011990 0.050320 -0.497586
O15   O     O_R   0.640680 0.032900 0.051920 -0.511553
O16   O     O_R   0.671090 0.815590 0.046300 -0.497415
O17   O     O_R   0.822940 0.642440 0.050310 -0.508159
O18   O     O_R   0.009970 0.673280 0.049430 -0.501757
O19   O     O_3   0.833690 0.833830 0.001040 -0.252966
O20   O     O_R   0.303930 0.694040 0.551750 -0.516228
O21   O     O_R   0.523510 0.657900 0.548240 -0.498000
O22   O     O_R   0.694770 0.503160 0.551780 -0.520051
O23   O     O_R   0.657990 0.319990 0.547370 -0.504877
O24   O     O_R   0.501900 0.302960 0.447930 -0.518782
O25   O     O_R   0.319020 0.522350 0.452090 -0.498505
O26   O     O_R   0.302820 0.693680 0.448870 -0.511024
O27   O     O_3   0.475924 0.791591 0.798988 -0.572510
C75   C     C_3   0.384361 0.873944 0.773177 -0.018941
H9    H     H_    0.311563 0.859945 0.778251 0.145385
H10   H     H_    0.400057 0.872601 0.734795 0.120726
C76   C     C_3   0.351769 0.990070 0.792183 -0.377799
H11   H     H_    0.423797 0.005491 0.788016 0.201652
H12   H     H_    0.278430 0.055637 0.772704 0.079888
H13   H     H_    0.328772 0.995767 0.830010 0.159993
O28   O     O_3   0.497982 0.180562 0.708351 -0.562829
C77   C     C_3   0.533167 0.068319 0.695340 0.001143
H14   H     H_    0.546436 0.017514 0.727472 0.177745
H15   H     H_    0.612715 0.030616 0.674077 0.112461
C78   C     C_3   0.443202 0.064312 0.665612 -0.393894
H16   H     H_    0.428934 0.114531 0.633301 0.157311
H17   H     H_    0.471508 0.976565 0.654375 0.087660
H18   H     H_    0.363300 0.096718 0.685983 0.145219
C79   C     C_3   0.290202 0.437207 0.708982 -0.227282
C80   C     C_3   0.234992 0.374222 0.687240 -0.285266
C81   C     C_3   0.265913 0.349018 0.635149 -0.417575
H19   H     H_    0.228442 0.428060 0.614641 0.167003
H20   H     H_    0.358790 0.305725 0.630057 0.199254
H21   H     H_    0.234341 0.293909 0.621435 0.118308
H22   H     H_    0.265218 0.292815 0.705707 0.178662
H23   H     H_    0.142567 0.421210 0.692618 0.150101
H24   H     H_    0.350448 0.442945 0.684118 0.163872
H25   H     H_    0.345650 0.384202 0.737147 0.149548
C82   C     C_3   0.177841 0.472606 0.805696 -0.265069
C83   C     C_3   0.059120 0.500355 0.821715 -0.277544
C84   C     C_3   0.064951 0.423426 0.861657 -0.451740
H26   H     H_    0.104313 0.334761 0.849184 0.133729
H27   H     H_    0.113939 0.429133 0.891406 0.161392
H28   H     H_    0.978689 0.450705 0.874703 0.156690
H29   H     H_    0.007417 0.588970 0.833750 0.202045
H30   H     H_    0.015165 0.488729 0.791658 0.145865
H31   H     H_    0.213243 0.392559 0.785731 0.134822
H32   H     H_    0.232178 0.457586 0.836710 0.133331
C85   C     C_3   0.126424 0.859181 0.696835 -0.258168
C86   C     C_3   0.235349 0.847640 0.675172 -0.289458
C87   C     C_3   0.224778 0.962295 0.665623 -0.472726
H33   H     H_    0.156794 0.009692 0.639946 0.152515
H34   H     H_    0.205922 0.012139 0.698584 0.136897
H35   H     H_    0.305287 0.949961 0.650500 0.144125
H36   H     H_    0.307663 0.797597 0.698508 0.151958
H37   H     H_    0.254781 0.802610 0.641136 0.191471
H38   H     H_    0.064053 0.876793 0.668704 0.133612
H39   H     H_    0.089022 0.932760 0.720878 0.119064
C88   C     C_3   0.859480 0.507113 0.300282 -0.230705
C89   C     C_3   0.857909 0.397378 0.309047 -0.286616
C90   C     C_3   0.965700 0.309521 0.332725 -0.462965
H40   H     H_    0.039830 0.286633 0.309476 0.147913
H41   H     H_    0.977095 0.342512 0.366663 0.160826
H42   H     H_    0.960394 0.232327 0.339586 0.140008
H43   H     H_    0.784321 0.413796 0.331529 0.174517
H44   H     H_    0.850373 0.362669 0.275002 0.175018
H45   H     H_    0.937705 0.487231 0.280654 0.158424
H46   H     H_    0.864657 0.544583 0.334166 0.133339
O29   O     O_3   0.856129 0.517327 0.199973 -0.580895
C91   C     C_3   0.927408 0.561262 0.188425 -0.012450
H47   H     H_    0.950757 0.592808 0.220051 0.122484
H48   H     H_    0.887011 0.631108 0.162770 0.151734
C92   C     C_3   0.034474 0.467247 0.165952 -0.367416
H49   H     H_    0.012720 0.428960 0.136307 0.171650
H50   H     H_    0.087844 0.500717 0.152077 0.113300
H51   H     H_    0.083036 0.401254 0.192363 0.129212
C93   C     C_3   0.439120 0.795549 0.296781 -0.239554
C94   C     C_3   0.342293 0.888614 0.268433 -0.308007
C95   C     C_3   0.237435 0.956285 0.299150 -0.455275
H52   H     H_    0.210574 0.899606 0.315545 0.161027
H53   H     H_    0.254972 0.001793 0.327197 0.146097
H54   H     H_    0.167494 0.019156 0.277305 0.137498
H55   H     H_    0.368853 0.947404 0.253867 0.154161
H56   H     H_    0.319601 0.850149 0.239120 0.166883
H57   H     H_    0.414192 0.733145 0.308217 0.159077
H58   H     H_    0.449412 0.834952 0.328880 0.149741
C96   C     C_3   0.577791 0.029583 0.305884 -0.257173
C97   C     C_3   0.569785 0.034697 0.359772 -0.294136
C98   C     C_3   0.519266 0.965517 0.379111 -0.460443
H59   H     H_    0.433101 0.997353 0.365129 0.146824
H60   H     H_    0.574135 0.875474 0.369665 0.159582
H61   H     H_    0.513342 0.972904 0.418008 0.149132
H62   H     H_    0.655277 0.000750 0.374878 0.172615
H63   H     H_    0.513664 0.123035 0.371318 0.178036
H64   H     H_    0.491118 0.064691 0.291875 0.129723
H65   H     H_    0.625338 0.939228 0.295249 0.149281
C99   C     C_3   0.808871 0.227688 0.200356 -0.249149
C100  C     C_3   0.936040 0.155442 0.209115 -0.306020
C101  C     C_3   0.001853 0.204427 0.184744 -0.450139
H66   H     H_    0.986896 0.210532 0.146298 0.162672
H67   H     H_    0.975841 0.289347 0.199168 0.200192
H68   H     H_    0.093467 0.149064 0.190962 0.132808
H69   H     H_    0.953347 0.150308 0.247376 0.153347
H70   H     H_    0.966573 0.068582 0.195641 0.168003
H71   H     H_    0.794098 0.229967 0.162003 0.156576
H72   H     H_    0.777837 0.316315 0.211359 0.154019
C102  C     C_3   0.282220 0.436651 0.295438 -0.249428
C103  C     C_3   0.201144 0.404229 0.319183 -0.297294
C104  C     C_3   0.265333 0.290318 0.343432 -0.453876
H73   H     H_    0.315578 0.223279 0.317283 0.147337
H74   H     H_    0.322186 0.292717 0.370478 0.171142
H75   H     H_    0.204798 0.269876 0.360927 0.136682
H76   H     H_    0.147667 0.468705 0.345799 0.171086
H77   H     H_    0.145006 0.399804 0.292284 0.150331
H78   H     H_    0.332286 0.372312 0.268128 0.136097
H79   H     H_    0.343567 0.435127 0.321235 0.158651
C105  C     C_3   0.542258 0.555854 0.739860 -0.239898
C106  C     C_3   0.461178 0.576553 0.781524 -0.278049
C107  C     C_3   0.463506 0.469123 0.797358 -0.469224
H80   H     H_    0.473082 0.415234 0.766818 0.150398
H81   H     H_    0.534338 0.420388 0.821353 0.132953
H82   H     H_    0.385064 0.490827 0.817069 0.142299
H83   H     H_    0.480531 0.612393 0.812578 0.205883
H84   H     H_    0.374276 0.638832 0.770692 0.172331
H85   H     H_    0.492055 0.585525 0.707191 0.131256
H86   H     H_    0.603409 0.464630 0.734909 0.175737
C108  C     C_3   0.796824 0.449877 0.790749 -0.267692
C109  C     C_3   0.736015 0.429300 0.832168 -0.295896
C110  C     C_3   0.807204 0.389135 0.876417 -0.457107
H87   H     H_    0.893828 0.320191 0.868131 0.148937
H88   H     H_    0.811063 0.460317 0.893127 0.166023
H89   H     H_    0.767649 0.357383 0.901921 0.142075
H90   H     H_    0.656012 0.506375 0.841523 0.176736
H91   H     H_    0.716011 0.363403 0.821647 0.166103
H92   H     H_    0.814801 0.387196 0.762606 0.175575
H93   H     H_    0.878530 0.440277 0.801844 0.140525
C111  C     C_3   0.885423 0.537087 0.699887 -0.257204
C112  C     C_3   0.878291 0.572963 0.648043 -0.301451
C113  C     C_3   0.991083 0.542241 0.625821 -0.475951
H94   H     H_    0.034267 0.578065 0.646506 0.164490
H95   H     H_    0.042178 0.449352 0.623004 0.156782
H96   H     H_    0.978002 0.577278 0.589765 0.147495
H97   H     H_    0.844219 0.528431 0.627167 0.185779
H98   H     H_    0.822692 0.665297 0.644376 0.158302
H99   H     H_    0.950739 0.547476 0.718246 0.141642
H100  H     H_    0.910972 0.446304 0.701039 0.139984
O30   O     O_3   0.797305 0.771868 0.761800 -0.554975
C114  C     C_3   0.830666 0.801079 0.719492 -0.007204
H101  H     H_    0.767233 0.825312 0.691113 0.102413
H102  H     H_    0.912836 0.730275 0.707363 0.153498
C115  C     C_3   0.846323 0.901378 0.728631 -0.365780
H103  H     H_    0.907885 0.882805 0.757042 0.175266
H104  H     H_    0.875046 0.924705 0.696117 0.073135
H105  H     H_    0.764701 0.972598 0.739905 0.156962
O31   O     O_3   0.818943 0.237850 0.702430 -0.577775
C116  C     C_3   0.896463 0.157091 0.670324 -0.020131
H106  H     H_    0.870347 0.097132 0.656703 0.116820
H107  H     H_    0.978995 0.108104 0.687631 0.127866
C117  C     C_3   0.912459 0.218222 0.628873 -0.363293
H108  H     H_    0.947107 0.271979 0.641110 0.144894
H109  H     H_    0.971955 0.156082 0.602879 0.087731
H110  H     H_    0.830425 0.272316 0.611595 0.189489
C118  C     C_3   0.898197 0.137329 0.790979 -0.233619
C119  C     C_3   0.938349 0.083763 0.839443 -0.306227
C120  C     C_3   0.059795 0.056000 0.848062 -0.462925
H111  H     H_    0.117463 0.998022 0.820531 0.140956
H112  H     H_    0.065669 0.134162 0.847963 0.138522
H113  H     H_    0.087718 0.014725 0.882763 0.165811
H114  H     H_    0.885071 0.143541 0.867403 0.172597
H115  H     H_    0.934929 0.004341 0.841710 0.180270
H116  H     H_    0.960107 0.076804 0.765435 0.136449
H117  H     H_    0.906057 0.213777 0.789301 0.166270
O32   O     O_3   0.529520 0.137101 0.803516 -0.539234
C121  C     C_3   0.451582 0.231520 0.830044 0.000728
H118  H     H_    0.399259 0.301871 0.806491 0.121296
H119  H     H_    0.493673 0.260405 0.855226 0.125960
C122  C     C_3   0.374906 0.201632 0.858050 -0.374862
H120  H     H_    0.425996 0.122820 0.878092 0.186481
H121  H     H_    0.322800 0.270701 0.883160 0.092472
H122  H     H_    0.317799 0.190458 0.833998 0.134306

loop_
_geom_bond_atom_site_label_1
_geom_bond_atom_site_label_2
_ccdc_geom_bond_type
C96   H65   S    
C58   C62   A    
C84   H28   S    
C30   C32   T    
O29   C91   S    
C63   C65   T    
Cr3   O4    S    
C67   H3    S    
C97   C98   S    
C21   C66   S    
Cr4   O14   S    
C33   C45   S    
C101  H66   S    
C14   C18   A    
C15   C18   A    
C116  H107  S    
C35   C36   A    
C107  H82   S    
C71   O16   A    
C2    C12   S    
C58   H7    S    
C12   O22   A    
C88   C89   S    
Cr2   O21   S    
C82   H31   S    
O28   C77   S    
C92   H50   S    
C95   H52   S    
C57   H6    S    
C34   O25   A    
Cr6   O19   S    
O30   C114  S    
C100  H69   S    
C33   C42   T    
C66   O8    A    
C90   H41   S    
C16   O28   S    
C113  H94   S    
C37   C40   A    
C119  H114  S    
C115  H103  S    
C120  H113  S    
C95   H54   S    
C93   H57   S    
C72   O13   A    
C68   C74   S    
C84   H26   S    
Cr6   O18   S    
C17   C20   S    
C75   H9    S    
C68   O10   A    
C111  H99   S    
O31   C116  S    
C122  H122  S    
Cr3   O5    S    
Cr3   O23   S    
C39   C42   S    
C13   O31   S    
C68   O9    A    
C106  C107  S    
C103  H76   S    
C79   H25   S    
C59   H8    S    
C44   C53   T    
C48   C51   A    
C111  C112  S    
C52   C54   T    
C16   C17   A    
C36   O29   S    
C100  C101  S    
C81   H21   S    
C27   C85   S    
C85   C86   S    
C23   O1    A    
C78   H16   S    
C109  H91   S    
C70   O14   A    
C67   C73   S    
C105  H86   S    
C87   H34   S    
C29   C30   S    
C24   C28   A    
C118  C119  S    
C1    C22   S    
C91   C92   S    
C97   H63   S    
C88   H45   S    
C114  C115  S    
C76   H12   S    
C59   C60   A    
Cr2   O20   S    
C13   C14   A    
Cr4   O13   S    
C112  H98   S    
C41   C43   T    
Cr5   O15   S    
C109  C110  S    
C101  H67   S    
C4    C7    S    
C1    O12   A    
C12   O21   A    
C108  C109  S    
C91   H48   S    
C82   H32   S    
C92   H51   S    
C5    C7    S    
C95   H53   S    
C25   C29   A    
C38   C39   A    
C86   H37   S    
C11   C20   T    
C77   H14   S    
C50   C53   S    
C22   C31   T    
C48   C99   S    
Cr5   O19   S    
C51   C52   S    
C83   H30   S    
C36   C40   A    
C90   H42   S    
C79   H24   S    
C24   C25   A    
C69   O6    A    
C94   H55   S    
C105  C106  S    
C117  H109  S    
Cr1   O12   S    
C70   O15   A    
C18   C19   S    
C47   C51   A    
C93   H58   S    
C114  H101  S    
Cr6   O17   S    
C89   H43   S    
C3    C4    S    
C98   H59   S    
C60   C61   A    
C113  H95   S    
C85   H38   S    
C37   C38   A    
C61   C64   S    
C35   C39   A    
C98   H60   S    
C104  H73   S    
C62   C63   S    
C80   C81   S    
C49   H5    S    
Cr2   O5    S    
C117  H110  S    
C107  H80   S    
C44   C56   S    
C115  H104  S    
C92   H49   S    
C54   C70   S    
C121  C122  S    
C56   O4    A    
Cr4   O7    S    
C76   H11   S    
C55   C64   T    
C104  H75   S    
C78   H17   S    
C99   H71   S    
C102  C103  S    
Cr1   O24   S    
C57   C58   A    
C106  H84   S    
C109  H90   S    
C110  H88   S    
C35   C88   S    
C47   H4    S    
C4    C9    S    
C87   H35   S    
C15   O32   S    
C45   O2    A    
C4    C73   S    
C119  H115  S    
C94   H56   S    
C97   H62   S    
Cr4   O19   S    
C77   C78   S    
Cr1   O25   S    
C88   H46   S    
C69   O11   A    
C118  H116  S    
C48   C49   A    
C104  H74   S    
O32   C121  S    
C121  H119  S    
C60   C102  S    
C103  C104  S    
C26   H1    S    
C71   O17   A    
Cr6   O11   S    
C26   C27   A    
C81   H19   S    
C101  H68   S    
C89   H44   S    
Cr5   O16   S    
C116  C117  S    
C9    C74   T    
C102  H79   S    
C46   C96   S    
C108  H92   S    
C79   C80   S    
C2    C10   T    
C27   C28   A    
C91   H47   S    
Cr1   O5    S    
C77   H15   S    
C89   C90   S    
C7    C108  S    
C76   H13   S    
C96   H64   S    
C84   H27   S    
C46   C47   A    
Cr3   O3    S    
C59   C62   A    
C43   C71   S    
C38   C93   S    
C5    C111  S    
Cr6   O10   S    
C83   H29   S    
Cr5   O9    S    
C28   C31   S    
C25   C82   S    
C3    O30   S    
C72   O18   A    
C3    C5    S    
C112  H97   S    
C6    C10   S    
C115  H105  S    
C6    C8    S    
C120  H111  S    
C14   C118  S    
C57   C61   A    
C32   C69   S    
C34   O26   A    
C65   C72   S    
C23   O23   A    
C46   C50   A    
C73   O27   S    
C75   C76   S    
C13   C17   A    
C113  H96   S    
C102  H78   S    
C85   H39   S    
C116  H106  S    
C108  H93   S    
C78   H18   S    
Cr5   O8    S    
C107  H81   S    
C8    C105  S    
C6    C67   S    
C82   C83   S    
C112  C113  S    
C120  H112  S    
C24   C79   S    
C122  H120  S    
O27   C75   S    
C5    C6    S    
C99   H72   S    
C3    C67   S    
C114  H102  S    
Cr4   O6    S    
C103  H77   S    
C11   C23   S    
C8    C73   S    
Cr2   O26   S    
C75   H10   S    
C106  H83   S    
C86   H36   S    
C110  H89   S    
C99   C100  S    
C122  H121  S    
C96   C97   S    
C45   O3    A    
C100  H70   S    
C98   H61   S    
C90   H40   S    
C7    C8    S    
C119  C120  S    
Cr1   O1    S    
C1    O20   A    
C93   C94   S    
C118  H117  S    
C34   C55   S    
C37   H2    S    
C121  H118  S    
C26   C29   A    
C49   C50   A    
C110  H87   S    
C117  H108  S    
C81   H20   S    
C83   C84   S    
C111  H100  S    
C40   C41   S    
C86   C87   S    
C80   H22   S    
C105  H85   S    
C87   H33   S    
C80   H23   S    
Cr3   O22   S    
C56   O24   A    
C94   C95   S    
C15   C16   A    
Cr2   O2    S    
C66   O7    A    
C19   C21   T    
