data_mof_unit_26913.cif
_audit_creation_date              2012-10-26T20:35:46-0400
_audit_creation_method            fapswitch 2.2
_symmetry_space_group_name_H-M    P1
_symmetry_Int_Tables_number       1
_space_group_crystal_system       triclinic
_cell_length_a                    8.828507
_cell_length_b                    15.781758
_cell_length_c                    16.980681
_cell_angle_alpha                 96.938476
_cell_angle_beta                  90.820313
_cell_angle_gamma                 85.333729
_cell_volume                      2340.77199017

loop_
_atom_site_label
_atom_site_type_symbol
_atom_type_description
_atom_site_fract_x
_atom_site_fract_y
_atom_site_fract_z
_atom_type_partial_charge
C1    C     C_R   0.499409 0.489338 0.348049 0.533343
C2    C     C_R   0.368174 0.158084 0.447128 -0.135477
C3    C     C_R   0.608815 0.754674 0.562888 0.003514
C4    C     C_R   0.378854 0.245970 0.444355 0.011116
C5    C     C_R   0.205863 0.520978 0.501975 0.572687
C6    C     C_R   0.793478 0.478852 0.497378 0.563550
C7    C     C_2   0.044150 0.529629 0.517302 -0.001400
C8    C     C_2   0.953949 0.469584 0.480780 -0.003038
C9    C     C_R   0.511630 0.483700 0.261012 -0.024723
C10   C     C_R   0.526058 0.516335 0.740091 -0.041883
C11   C     C_R   0.626709 0.526691 0.231766 -0.141330
C12   C     C_R   0.501211 0.511214 0.652621 0.532998
C13   C     C_R   0.584428 0.440175 0.768320 -0.133686
C14   C     C_R   0.641564 0.532688 0.150873 0.020536
C15   C     C_R   0.629673 0.437783 0.846902 0.012375
C16   C     C_R   0.535348 0.493549 0.096966 0.169943
C17   C     C_R   0.621538 0.513912 0.899169 0.175518
C18   C     C_R   0.420513 0.447402 0.125536 0.040387
C19   C     C_R   0.568013 0.592920 0.872820 0.054293
C20   C     C_R   0.408589 0.441871 0.208097 0.007179
C21   C     C_R   0.509460 0.593989 0.793896 -0.005466
C22   C     C_3   0.983033 0.599432 0.583026 -0.273823
C23   C     C_R   0.436815 0.752173 0.454874 0.064624
C24   C     C_3   0.098583 0.630763 0.645341 -0.435611
C25   C     C_3   0.002038 0.397497 0.414963 -0.287713
C26   C     C_3   0.918436 0.408654 0.336926 -0.447379
C27   C     C_2   0.686785 0.355038 0.874492 0.241245
C28   C     C_2   0.763243 0.584623 0.127315 0.225697
C29   C     C_3   0.308569 0.406557 0.065917 -0.261624
C30   C     C_3   0.178003 0.471280 0.048286 -0.412232
C31   C     C_3   0.584623 0.675284 0.928354 -0.244559
C32   C     C_3   0.464066 0.692017 0.993854 -0.393280
C33   C     C_3   0.281843 0.396455 0.239970 -0.264092
C34   C     C_R   0.574275 0.247526 0.540713 0.064451
C35   C     C_3   0.328373 0.301196 0.241030 -0.434662
C36   C     C_3   0.427390 0.676406 0.769429 -0.265826
C37   C     C_3   0.286239 0.708341 0.819220 -0.448543
C38   C     C_2   0.656428 0.120802 0.610361 0.251479
C39   C     C_2   0.368110 0.879776 0.383802 0.235667
C40   C     C_R   0.445976 0.840468 0.450179 0.014573
C41   C     C_R   0.566080 0.159506 0.547434 0.010020
C42   C     C_R   0.538271 0.887434 0.506002 0.178646
C43   C     C_R   0.462541 0.112918 0.497836 0.175387
C44   C     C_R   0.620535 0.842786 0.561701 -0.137251
Cu1   Cu    Cu3+1 0.492520 0.415770 0.496210 0.931242
Cu2   Cu    Cu3+1 0.507480 0.584230 0.503790 0.924508
H1    H     H_    0.597435 0.381309 0.728119 0.190858
H2    H     H_    0.172446 0.675068 0.621415 0.180896
H3    H     H_    0.037072 0.667100 0.696933 0.121647
H4    H     H_    0.931441 0.655297 0.555363 0.167458
H5    H     H_    0.894330 0.574233 0.617587 0.153583
H6    H     H_    0.795032 0.403161 0.342970 0.182183
H7    H     H_    0.937580 0.471875 0.318009 0.166763
H8    H     H_    0.961757 0.357615 0.290037 0.134414
H9    H     H_    0.122578 0.392127 0.400061 0.159781
H10   H     H_    0.977836 0.335111 0.434160 0.163785
H11   H     H_    0.726395 0.352772 0.935039 0.135282
H12   H     H_    0.703677 0.558531 0.273709 0.174335
H13   H     H_    0.758577 0.612424 0.072343 0.140702
H14   H     H_    0.116620 0.497283 0.103640 0.194744
H15   H     H_    0.221212 0.525081 0.021080 0.173412
H16   H     H_    0.096752 0.439470 0.006268 0.144574
H17   H     H_    0.367287 0.380543 0.009642 0.175147
H18   H     H_    0.261188 0.350177 0.086097 0.136588
H19   H     H_    0.358620 0.660801 0.975817 0.165177
H20   H     H_    0.507396 0.668486 0.049348 0.167852
H21   H     H_    0.435151 0.761996 0.007741 0.133481
H22   H     H_    0.699641 0.672743 0.955671 0.135010
H23   H     H_    0.651137 0.284219 0.578573 0.175449
H24   H     H_    0.581950 0.731744 0.895429 0.131522
H25   H     H_    0.233615 0.269724 0.264607 0.124551
H26   H     H_    0.355574 0.269276 0.180527 0.150989
H27   H     H_    0.430192 0.292127 0.279071 0.178394
H28   H     H_    0.250618 0.426075 0.300328 0.152648
H29   H     H_    0.175327 0.404876 0.205472 0.146678
H30   H     H_    0.225924 0.653861 0.835438 0.159033
H31   H     H_    0.315744 0.750586 0.872949 0.158726
H32   H     H_    0.206801 0.748293 0.784927 0.134801
H33   H     H_    0.507014 0.727451 0.770568 0.131844
H34   H     H_    0.367522 0.715318 0.412700 0.182941
H35   H     H_    0.383236 0.668402 0.708785 0.179333
H36   H     H_    0.628341 0.061090 0.629765 0.148868
H37   H     H_    0.396331 0.941486 0.369034 0.148849
H38   H     H_    0.694399 0.876278 0.604054 0.115185
H39   H     H_    0.285202 0.125177 0.410024 0.117962
H40   H     H_    0.673437 0.721241 0.605913 0.116881
H41   H     H_    0.303306 0.279685 0.406267 0.111205
H42   H     H_    0.167732 0.575827 0.666332 0.161904
N1    N     N_2   0.527886 0.503173 0.014726 -0.266365
N2    N     N_2   0.649782 0.508763 0.980696 -0.299723
N3    N     N_R   0.518730 0.710760 0.509500 -0.250125
N4    N     N_R   0.481270 0.289240 0.490500 -0.245029
N5    N     N_2   0.560998 0.976332 0.504399 -0.262714
N6    N     N_2   0.441164 0.023908 0.500371 -0.257402
O1    O     O_R   0.493000 0.421040 0.382520 -0.510110
O2    O     O_2   0.871787 0.598716 0.171006 -0.534139
O3    O     O_2   0.762604 0.156323 0.642759 -0.486053
O4    O     O_2   0.272245 0.842782 0.343552 -0.509664
O5    O     O_R   0.507000 0.578960 0.617480 -0.519903
O6    O     O_R   0.505640 0.563310 0.388930 -0.499044
O7    O     O_R   0.494360 0.436690 0.611070 -0.501458
O8    O     O_R   0.269980 0.445280 0.497530 -0.511600
O9    O     O_R   0.730020 0.554720 0.502470 -0.509062
O10   O     O_R   0.282610 0.587550 0.503940 -0.499579
O11   O     O_R   0.717390 0.412450 0.496060 -0.503724
O12   O     O_2   0.690507 0.288098 0.829913 -0.481117

loop_
_geom_bond_atom_site_label_1
_geom_bond_atom_site_label_2
_ccdc_geom_bond_type
Cu2   O5    S    
C29   H17   S    
N5    N6    D    
C42   N5    S    
C25   H10   S    
C19   C31   S    
C7    C8    D    
C21   C36   S    
Cu1   Cu2   S    
C22   C24   S    
C36   C37   S    
C19   C21   A    
C11   C14   A    
C23   C40   A    
C43   N6    S    
C2    H39   S    
C3    N3    A    
Cu1   N4    S    
C12   O5    A    
C17   C19   A    
C33   H29   S    
C31   H24   S    
C30   H14   S    
C23   H34   S    
C11   H12   S    
C2    C43   A    
C18   C20   A    
C22   H4    S    
C40   C42   A    
C5    O10   A    
C35   H25   S    
C16   N1    S    
C38   H36   S    
C3    H40   S    
C8    C25   S    
C41   C43   A    
C34   C41   A    
C42   C44   A    
C38   O3    D    
C26   H8    S    
C1    O6    A    
Cu1   O11   S    
C5    C7    S    
C10   C21   A    
C31   H22   S    
C3    C44   A    
C24   H2    S    
C1    C9    S    
C38   C41   S    
C27   H11   S    
C39   C40   S    
C13   H1    S    
Cu1   O7    S    
C39   O4    D    
C6    C8    S    
Cu2   N3    S    
C27   O12   D    
C25   C26   S    
C37   H31   S    
C10   C13   A    
C4    H41   S    
C2    C4    A    
C29   C30   S    
C26   H6    S    
C24   H42   S    
C9    C20   A    
C15   C27   S    
C31   C32   S    
C36   H35   S    
C1    O1    A    
C18   C29   S    
C6    O9    A    
C9    C11   A    
C34   H23   S    
C10   C12   S    
C32   H21   S    
C20   C33   S    
C37   H30   S    
C35   H26   S    
C13   C15   A    
C23   N3    A    
Cu1   O1    S    
C26   H7    S    
C32   H20   S    
Cu2   O9    S    
C28   H13   S    
C24   H3    S    
C15   C17   A    
Cu2   O6    S    
C5    O8    A    
C35   H27   S    
C17   N2    S    
C25   H9    S    
C44   H38   S    
C36   H33   S    
C7    C22   S    
C37   H32   S    
C28   O2    D    
C30   H16   S    
C39   H37   S    
C12   O7    A    
Cu2   O10   S    
C33   C35   S    
C6    O11   A    
C14   C16   A    
C34   N4    A    
C29   H18   S    
Cu1   O8    S    
C33   H28   S    
C16   C18   A    
C30   H15   S    
C22   H5    S    
C14   C28   S    
N1    N2    D    
C32   H19   S    
C4    N4    A    
