data_mof_unit_25699.cif
_audit_creation_date              2012-10-26T19:55:48-0400
_audit_creation_method            fapswitch 2.2
_symmetry_space_group_name_H-M    P1
_symmetry_Int_Tables_number       1
_space_group_crystal_system       triclinic
_cell_length_a                    11.317184
_cell_length_b                    11.007366
_cell_length_c                    10.008182
_cell_angle_alpha                 89.853169
_cell_angle_beta                  92.305169
_cell_angle_gamma                 95.443615
_cell_volume                      1240.11501649

loop_
_atom_site_label
_atom_site_type_symbol
_atom_type_description
_atom_site_fract_x
_atom_site_fract_y
_atom_site_fract_z
_atom_type_partial_charge
C1    C     C_R   0.510042 0.264557 0.502622 0.529291
C2    C     C_R   0.871110 0.537171 0.980037 0.010394
C3    C     C_R   0.871636 0.416413 0.024720 -0.084552
C4    C     C_R   0.262948 0.505984 0.498727 0.517773
C5    C     C_R   0.897195 0.325263 0.936195 -0.108909
C6    C     C_R   0.915416 0.354076 0.802322 -0.078149
C7    C     C_R   0.897296 0.471360 0.754960 0.063275
C8    C     C_R   0.564493 0.108574 0.762895 0.019404
C9    C     C_R   0.535322 0.043501 0.877993 -0.135661
C10   C     C_R   0.466556 0.934390 0.868590 -0.144902
C11   C     C_R   0.441293 0.878888 0.745359 -0.094803
C12   C     C_R   0.212870 0.518436 0.024060 -0.101927
C13   C     C_R   0.483917 0.935214 0.627407 0.016207
C14   C     C_R   0.525313 0.061628 0.633339 0.020278
C15   C     C_R   0.522755 0.130394 0.510946 -0.024648
C16   C     C_R   0.490520 0.735841 0.500191 0.544483
C17   C     C_R   0.508629 0.066117 0.390905 -0.135997
C18   C     C_R   0.480979 0.940625 0.385567 -0.019360
C19   C     C_R   0.479923 0.871043 0.503842 0.010873
C20   C     C_R   0.635629 0.700690 0.132017 -0.017952
C21   C     C_R   0.680151 0.798101 0.051874 -0.170303
C22   C     C_R   0.686939 0.784151 0.916394 -0.047750
C23   C     C_R   0.928550 0.514540 0.388932 -0.130787
C24   C     C_R   0.635687 0.678622 0.857068 -0.089129
C25   C     C_R   0.565129 0.590660 0.926866 0.110199
C26   C     C_R   0.565129 0.594832 0.074082 0.106593
C27   C     C_R   0.444628 0.406949 0.069603 0.117203
C28   C     C_R   0.736158 0.499009 0.503003 0.556787
C29   C     C_R   0.441339 0.408933 0.923394 0.121531
C30   C     C_R   0.203589 0.627564 0.088671 0.021632
C31   C     C_R   0.148698 0.625753 0.208943 -0.026606
C32   C     C_R   0.101385 0.514234 0.259416 0.062996
C33   C     C_R   0.105463 0.403855 0.191752 0.021144
C34   C     C_R   0.869934 0.505382 0.507918 -0.006832
C35   C     C_R   0.154271 0.409130 0.068021 -0.114523
C36   C     C_1   0.628424 0.223983 0.789779 0.224267
C37   C     C_3   0.432533 0.890099 0.253902 -0.398098
C38   C     C_3   0.388191 0.296074 0.137751 -0.336186
C39   C     C_3   0.258451 0.742452 0.031302 -0.423279
C40   C     C_1   0.691182 0.716365 0.263248 0.310242
C41   C     C_1   0.755711 0.874168 0.839285 0.200925
C42   C     C_3   0.363210 0.310911 0.847387 -0.333503
C43   C     C_3   0.064418 0.280425 0.249635 -0.408799
C44   C     C_3   0.138077 0.568142 0.743257 -0.376420
C45   C     C_R   0.943020 0.508553 0.625488 -0.011044
C46   C     C_1   0.895883 0.638383 0.069939 0.162309
C47   C     C_R   0.068331 0.533708 0.619681 -0.030527
C48   C     C_R   0.127449 0.518212 0.500630 -0.002575
C49   C     C_R   0.052429 0.515108 0.386069 -0.041627
C50   C     C_R   0.873938 0.562110 0.844062 -0.078971
Cu1   Cu    Cu3+1 0.499990 0.499990 0.640660 0.925893
Cu2   Cu    Cu3+1 0.500010 0.500010 0.359340 0.946731
H1    H     H_    0.269026 0.521526 0.941546 0.125250
H2    H     H_    0.656435 0.664534 0.755734 0.198602
H3    H     H_    0.144679 0.709550 0.264750 0.118255
H4    H     H_    0.148226 0.326368 0.011287 0.108415
H5    H     H_    0.877233 0.517525 0.296647 0.151777
H6    H     H_    0.877581 0.655806 0.809531 0.110492
H7    H     H_    0.373351 0.805476 0.267150 0.165810
H8    H     H_    0.377006 0.955958 0.203325 0.103353
H9    H     H_    0.506065 0.876121 0.188923 0.138773
H10   H     H_    0.320678 0.238676 0.078078 0.071239
H11   H     H_    0.459567 0.237446 0.158618 0.126198
H12   H     H_    0.861331 0.393260 0.128418 0.107415
H13   H     H_    0.342173 0.321989 0.227024 0.198680
H14   H     H_    0.227464 0.753516 0.926131 0.125514
H15   H     H_    0.235921 0.823492 0.086962 0.129899
H16   H     H_    0.354935 0.733831 0.036160 0.129322
H17   H     H_    0.346846 0.330199 0.742589 0.211500
H18   H     H_    0.395942 0.220795 0.861336 0.121457
H19   H     H_    0.272423 0.303264 0.878609 0.051333
H20   H     H_    0.028107 0.286073 0.350365 0.141478
H21   H     H_    0.994623 0.232139 0.183554 0.121125
H22   H     H_    0.140456 0.223854 0.258320 0.125994
H23   H     H_    0.904231 0.233018 0.970879 0.114041
H24   H     H_    0.087819 0.611808 0.818427 0.134553
H25   H     H_    0.164030 0.479044 0.778030 0.153387
H26   H     H_    0.212920 0.637652 0.724043 0.149731
H27   H     H_    0.941793 0.285217 0.735413 0.114283
H28   H     H_    0.512947 0.114136 0.298087 0.128090
H29   H     H_    0.560261 0.080596 0.976681 0.101302
H30   H     H_    0.438776 0.892053 0.959092 0.110895
H31   H     H_    0.386026 0.793362 0.743745 0.137505
H32   H     H_    0.726033 0.880256 0.096984 0.135981
N1    N     N_R   0.501190 0.501210 0.147910 -0.250775
N2    N     N_R   0.501230 0.501290 0.852040 -0.251194
N3    N     N_1   0.671903 0.320225 0.815242 -0.247697
N4    N     N_1   0.740047 0.738171 0.365612 -0.278949
N5    N     N_1   0.810964 0.946257 0.777365 -0.310806
N6    N     N_1   0.919632 0.721735 0.139403 -0.325776
O1    O     O_R   0.499990 0.319640 0.618810 -0.515226
O2    O     O_R   0.500000 0.319660 0.381240 -0.530575
O3    O     O_R   0.319640 0.500000 0.618780 -0.545673
O4    O     O_R   0.319650 0.500020 0.381210 -0.503127
O5    O     O_R   0.500000 0.680340 0.618760 -0.540908
O6    O     O_R   0.500010 0.680360 0.381190 -0.505245
O7    O     O_R   0.680350 0.499980 0.618790 -0.496769
O8    O     O_R   0.680360 0.500000 0.381220 -0.505538

loop_
_geom_bond_atom_site_label_1
_geom_bond_atom_site_label_2
_ccdc_geom_bond_type
C28   O7    A    
C43   H21   S    
C41   N5    T    
Cu1   O7    S    
C43   H20   S    
C29   C42   S    
C27   C29   A    
C39   H16   S    
C3    H12   S    
C2    C46   S    
C7    C45   S    
C44   H25   S    
C18   C37   S    
C16   C19   S    
C30   C31   A    
C20   C40   S    
C23   C49   A    
C22   C41   S    
C27   C38   S    
C24   H2    S    
C42   H18   S    
C15   C17   A    
C18   C19   A    
C8    C36   S    
C44   H24   S    
C42   H19   S    
C2    C50   A    
Cu1   O1    S    
C47   C48   A    
C8    C9    A    
C38   H13   S    
Cu2   O4    S    
C1    C15   S    
C9    C10   A    
C12   H1    S    
C44   C47   S    
C43   H22   S    
C28   C34   S    
C1    O1    A    
C21   C22   A    
Cu1   N2    S    
C27   N1    A    
C45   C47   A    
C36   N3    T    
C16   O6    A    
C13   C19   A    
Cu1   Cu2   S    
C33   C43   S    
C24   C25   A    
C11   H31   S    
C25   C26   A    
C10   H30   S    
C42   H17   S    
C50   H6    S    
C5    H23   S    
C31   C32   A    
C21   H32   S    
C23   C34   A    
C17   C18   A    
C34   C45   A    
C12   C35   A    
C29   N2    A    
C37   H7    S    
Cu1   O3    S    
C4    O4    A    
C48   C49   A    
C1    O2    A    
C39   H14   S    
C22   C24   A    
Cu2   O2    S    
C38   H11   S    
C4    C48   S    
C28   O8    A    
C23   H5    S    
Cu2   N1    S    
C16   O5    A    
C8    C14   A    
C12   C30   A    
C35   H4    S    
C39   H15   S    
C7    C50   A    
C3    C5    A    
C37   H9    S    
C6    C7    A    
C46   N6    T    
C32   C33   A    
C40   N4    T    
C44   H26   S    
C2    C3    A    
C11   C13   A    
C6    H27   S    
C5    C6    A    
C20   C26   A    
C26   N1    A    
Cu2   O8    S    
C25   N2    A    
C33   C35   A    
C30   C39   S    
Cu2   O6    S    
C17   H28   S    
C32   C49   S    
C37   H8    S    
C10   C11   A    
C4    O3    A    
C20   C21   A    
C9    H29   S    
C14   C15   A    
C31   H3    S    
C13   C14   A    
Cu1   O5    S    
C38   H10   S    
