data_mof_unit_24074.cif
_audit_creation_date              2013-03-05T15:43:50-0500
_audit_creation_method            fapswitch 2.2
_symmetry_space_group_name_H-M    P1
_symmetry_Int_Tables_number       1
_space_group_crystal_system       triclinic
_cell_length_a                    13.544785
_cell_length_b                    13.518159
_cell_length_c                    27.504366
_cell_angle_alpha                 90.308293
_cell_angle_beta                  89.76458
_cell_angle_gamma                 59.930303
_cell_volume                      4358.09590625

loop_
_atom_site_label
_atom_site_type_symbol
_atom_site_description
_atom_site_fract_x
_atom_site_fract_y
_atom_site_fract_z
_atom_type_partial_charge
O1    O     O_R   0.301710 0.195650 0.554160 -0.477338
O2    O     O_R   0.522390 0.158990 0.550460 -0.500020
C1    C     C_R   0.619897 0.100693 0.570313 0.596443
O3    O     O_R   0.694390 0.003530 0.554040 -0.401871
O4    O     O_R   0.657700 0.819660 0.549320 -0.493847
C2    C     C_R   0.599321 0.779325 0.568549 0.545407
O5    O     O_R   0.501930 0.803280 0.552920 -0.475984
O6    O     O_R   0.318170 0.023580 0.549580 -0.473979
C3    C     C_R   0.276224 0.122656 0.568908 0.572497
O7    O     O_R   0.303010 0.193990 0.446760 -0.494482
O8    O     O_R   0.523600 0.157450 0.450900 -0.565038
C4    C     C_R   0.624351 0.101597 0.432335 0.664859
O9    O     O_R   0.695690 0.001860 0.446640 -0.263011
O10   O     O_R   0.658900 0.818120 0.449760 -0.463867
C5    C     C_R   0.600882 0.778096 0.429552 0.556867
O11   O     O_R   0.503220 0.801620 0.445520 -0.516966
O12   O     O_R   0.319370 0.022040 0.450020 -0.477490
C6    C     C_R   0.281477 0.119356 0.430269 0.567873
Cr1   Cr    Cr6+3 0.417550 0.169090 0.500530 1.103677
Cr2   Cr    Cr6+3 0.669180 0.913420 0.499920 1.298212
Cr3   Cr    Cr6+3 0.413260 0.917540 0.499520 1.147757
O13   O     O_3   0.499990 0.000010 0.499990 -0.344397
C7    C     C_3   0.759089 0.580132 0.735563 -0.162998
C8    C     C_3   0.762309 0.666779 0.771988 0.233844
H1    H     H_    0.832587 0.509848 0.715885 0.177530
C9    C     C_1   0.697420 0.609778 0.900962 0.088119
C10   C     C_1   0.629163 0.731190 0.615971 0.069754
C11   C     C_3   0.672367 0.572224 0.770352 0.199548
C12   C     C_3   0.678447 0.656241 0.806689 -0.008495
C13   C     C_3   0.571694 0.671995 0.744689 0.211255
C14   C     C_3   0.656419 0.682174 0.710160 -0.078457
C15   C     C_3   0.577666 0.755680 0.780791 0.167921
C16   C     C_3   0.661422 0.767123 0.746489 0.244472
C17   C     C_1   0.688745 0.636064 0.858935 0.083117
C18   C     C_1   0.644626 0.703489 0.657920 0.051393
C19   C     C_3   0.033690 0.176597 0.725763 0.165233
C20   C     C_3   0.106802 0.093131 0.765901 0.247169
C21   C     C_1   0.032191 0.236563 0.894050 0.036200
C22   C     C_1   0.217104 0.144763 0.614177 0.091875
C23   C     C_3   0.006463 0.280825 0.759082 -0.207126
C24   C     C_3   0.082700 0.195577 0.799284 -0.037914
C25   C     C_3   0.114567 0.277870 0.738332 0.201242
C26   C     C_3   0.138870 0.176538 0.704856 -0.014615
C27   C     C_3   0.188671 0.194540 0.777957 0.313050
C28   C     C_3   0.211968 0.093027 0.744907 0.267154
C29   C     C_1   0.055440 0.215076 0.851456 0.037190
C30   C     C_1   0.176885 0.161230 0.654349 0.095769
H2    H     H_    0.921682 0.356458 0.765971 0.137927
C31   C     C_3   0.669969 0.255709 0.736623 0.220287
C32   C     C_3   0.570955 0.287970 0.772749 0.145933
C33   C     C_1   0.690007 0.212849 0.903500 0.094222
C34   C     C_1   0.634856 0.130213 0.618729 0.097867
C35   C     C_3   0.753610 0.167920 0.773181 0.250918
C36   C     C_3   0.654756 0.200168 0.809436 -0.087766
C37   C     C_3   0.734649 0.074540 0.750699 0.217253
C38   C     C_3   0.650790 0.162379 0.713515 -0.079274
C39   C     C_3   0.635421 0.107034 0.786688 0.144769
C40   C     C_3   0.551251 0.194833 0.750069 0.118704
C41   C     C_1   0.669416 0.208246 0.861481 0.086386
C42   C     C_1   0.643934 0.146673 0.661123 0.097688
C43   C     C_R   0.736642 0.701115 0.358149 0.241084
C44   C     C_R   0.751571 0.679012 0.307202 -0.021543
C45   C     C_R   0.767054 0.664483 0.204296 -0.194380
C46   C     C_R   0.865467 0.634425 0.232637 0.143545
C47   C     C_R   0.858778 0.636402 0.283772 0.207767
C48   C     C_R   0.771479 0.656576 0.152997 0.361961
C49   C     C_R   0.682392 0.652120 0.128338 0.101923
C50   C     C_R   0.543077 0.734957 0.351961 -0.158680
C51   C     C_R   0.551213 0.729632 0.301838 -0.037359
C52   C     C_R   0.655126 0.702104 0.278955 -0.001988
C53   C     C_R   0.453994 0.757226 0.274633 -0.101278
C54   C     C_R   0.458043 0.756453 0.224081 0.229479
C55   C     C_R   0.563812 0.720187 0.200546 0.004550
C56   C     C_R   0.662130 0.695966 0.227955 -0.045258
C57   C     C_R   0.576431 0.694946 0.150988 -0.108186
C58   C     C_R   0.631689 0.728823 0.380231 0.040454
H3    H     H_    0.506992 0.697032 0.130827 0.233265
H4    H     H_    0.373345 0.783272 0.292859 0.161014
H5    H     H_    0.461726 0.756679 0.368469 0.169236
C59   C     C_R   0.173375 0.092327 0.362412 0.123324
C60   C     C_R   0.151527 0.097789 0.312037 0.008450
C61   C     C_R   0.100960 0.122387 0.212437 0.028895
C62   C     C_R   0.050330 0.078432 0.243457 -0.084814
C63   C     C_R   0.074605 0.066942 0.292857 -0.058363
C64   C     C_R   0.068027 0.143862 0.164360 -0.127984
H6    H     H_    0.003910 0.124463 0.151493 0.157449
H7    H     H_    0.988807 0.056555 0.229728 0.139528
H8    H     H_    0.030054 0.037090 0.315840 0.236013
C65   C     C_R   0.106223 0.201926 0.134508 0.050572
C66   C     C_R   0.300101 0.168697 0.347615 -0.134731
C67   C     C_R   0.282856 0.170018 0.298063 -0.028306
C68   C     C_R   0.205920 0.138302 0.280061 0.030246
C69   C     C_R   0.344159 0.199880 0.266286 -0.039016
C70   C     C_R   0.324170 0.207096 0.216525 0.256454
C71   C     C_R   0.232908 0.194563 0.198553 0.031699
C72   C     C_R   0.180955 0.150526 0.230197 0.020795
C73   C     C_R   0.188313 0.228197 0.151056 0.256325
C74   C     C_R   0.245000 0.131973 0.379896 0.001950
H9    H     H_    0.410518 0.214309 0.280018 0.139343
H10   H     H_    0.360652 0.192501 0.361086 0.124548
C75   C     C_R   0.568474 0.241422 0.365052 -0.195234
C76   C     C_R   0.577004 0.259321 0.315614 -0.015510
C77   C     C_R   0.583028 0.286301 0.214258 0.036862
C78   C     C_R   0.498382 0.373934 0.243537 -0.044602
C79   C     C_R   0.494996 0.360084 0.293554 -0.114722
C80   C     C_R   0.589869 0.300358 0.163760 0.178402
H11   H     H_    0.494056 0.302567 0.385658 0.157994
H12   H     H_    0.432735 0.452991 0.228086 0.212231
H13   H     H_    0.427280 0.427854 0.314951 0.159437
C81   C     C_R   0.676342 0.210017 0.135714 -0.030674
C82   C     C_R   0.752002 0.065916 0.360608 0.391789
C83   C     C_R   0.749706 0.071046 0.309566 -0.119418
C84   C     C_R   0.663548 0.170975 0.287114 -0.006623
C85   C     C_R   0.828547 0.978099 0.280520 0.149544
C86   C     C_R   0.820016 0.986548 0.229858 -0.076324
C87   C     C_R   0.741863 0.089206 0.207396 -0.039577
C88   C     C_R   0.663554 0.182571 0.236220 0.009151
C89   C     C_R   0.742020 0.100674 0.156722 0.110636
C90   C     C_R   0.652024 0.141236 0.387128 0.095090
H14   H     H_    0.877581 0.912466 0.208413 0.214931
O14   O     O_R   0.818720 0.150820 0.967160 -0.457358
O15   O     O_R   0.006410 0.181720 0.970200 -0.460315
C91   C     C_R   0.999691 0.265050 0.944256 0.505188
O16   O     O_R   0.027890 0.334070 0.964920 -0.449982
O17   O     O_R   0.809600 0.521790 0.967960 -0.445992
C92   C     C_R   0.711506 0.563576 0.948557 0.573248
O18   O     O_R   0.635520 0.542770 0.964420 -0.482907
O19   O     O_R   0.665950 0.325030 0.970100 -0.495007
C93   C     C_R   0.721980 0.226046 0.951239 0.555676
O20   O     O_R   0.816620 0.158530 0.074540 -0.464772
O21   O     O_R   0.004460 0.188870 0.069750 -0.514594
C94   C     C_R   0.047574 0.244453 0.088357 0.564136
O22   O     O_R   0.025800 0.341780 0.072300 -0.407427
O23   O     O_R   0.807650 0.528950 0.067500 -0.288940
C95   C     C_R   0.706711 0.578428 0.085110 0.651382
O24   O     O_R   0.633420 0.550490 0.071810 -0.518835
O25   O     O_R   0.664000 0.332180 0.069640 -0.451482
C96   C     C_R   0.717515 0.233225 0.089316 0.553132
Cr4   Cr    Cr6+3 0.909170 0.177380 0.020380 1.171553
Cr5   Cr    Cr6+3 0.912710 0.429210 0.018220 1.389678
Cr6   Cr    Cr6+3 0.657170 0.432570 0.019030 1.163438
O26   O     O_3   0.826350 0.346390 0.019210 -0.390364
O27   O     O_3   0.860972 0.666225 0.787076 -0.584202
H15   H     H_    0.897383 0.672670 0.756852 0.379327
O28   O     O_3   0.271278 0.201722 0.805561 -0.520081
H16   H     H_    0.230899 0.277840 0.821623 0.342862
O29   O     O_3   0.118561 0.374363 0.723284 -0.588521
H17   H     H_    0.092497 0.426818 0.751778 0.351435
N1    N     N_R   0.481924 0.404462 0.783888 0.159320
O30   O     O_R   0.417632 0.469795 0.749288 -0.188654
O31   O     O_R   0.466694 0.443917 0.828161 -0.235179
O32   O     O_3   0.689504 0.332469 0.710360 -0.560916
H18   H     H_    0.619985 0.377443 0.690724 0.369178
N2    N     N_R   0.441831 0.208034 0.736094 0.142576
O33   O     O_R   0.437879 0.123579 0.715304 -0.293341
O34   O     O_R   0.350039 0.307783 0.738584 -0.209555
N3    N     N_R   0.614795 0.033134 0.818217 0.153188
O35   O     O_R   0.694948 0.927963 0.824713 -0.185358
O36   O     O_R   0.531262 0.080252 0.849546 -0.207704
N4    N     N_R   0.826238 0.958791 0.739846 0.173373
O37   O     O_R   0.897456 0.898193 0.773666 -0.174666
O38   O     O_R   0.840333 0.917286 0.695976 -0.249663
O39   O     O_3   0.859167 0.153033 0.786824 -0.582803
H19   H     H_    0.842099 0.224768 0.803760 0.310596
N5    N     N_R   0.865676 0.652174 0.126813 1.316188
O40   O     O_R   0.850460 0.705146 0.085755 -1.387762
O41   O     O_R   0.850460 0.705146 0.085755 -1.387762
O42   O     O_3   0.818882 0.704719 0.386290 -0.586315
H20   H     H_    0.852490 0.742506 0.367043 0.367117
N6    N     N_R   0.975756 0.586484 0.210232 0.083023
O43   O     O_R   0.034285 0.477423 0.200937 -0.344080
O44   O     O_R   0.020701 0.650313 0.202102 -0.192028
N7    N     N_R   0.962716 0.580327 0.311224 0.113169
O45   O     O_R   0.980127 0.498805 0.341047 -0.249371
O46   O     O_R   0.043089 0.604887 0.304363 -0.241578
N8    N     N_R   0.354192 0.793914 0.197427 0.089918
O47   O     O_R   0.275702 0.774213 0.214158 -0.264186
O48   O     O_R   0.329598 0.864104 0.161315 -0.300593
N9    N     N_R   0.123501 0.047643 0.395567 0.172213
O49   O     O_R   0.144547 0.943070 0.390468 -0.093263
O50   O     O_R   0.068327 0.106351 0.433949 -0.006946
O51   O     O_3   0.657264 0.868570 0.733055 -0.588350
H21   H     H_    0.588292 0.909396 0.712753 0.358338
O52   O     O_3   0.216506 0.292671 0.121462 -0.602809
H22   H     H_    0.227546 0.346271 0.142318 0.406306
O53   O     O_3   0.398347 0.221553 0.187009 -0.685004
H23   H     H_    0.406043 0.181089 0.155850 0.373792
N10   N     N_R   0.510604 0.406133 0.141208 0.096584
O54   O     O_R   0.506678 0.500821 0.153979 -0.344968
O55   O     O_R   0.444268 0.407252 0.106878 -0.217103
N11   N     N_R   0.810816 0.002344 0.126423 0.143142
O56   O     O_R   0.921633 0.951786 0.128072 -0.203633
O57   O     O_R   0.763082 0.976373 0.091508 0.038482
N12   N     N_R   0.480805 0.845831 0.807252 0.133888
O58   O     O_R   0.420372 0.820435 0.835961 -0.216102
O59   O     O_R   0.461757 0.949808 0.806504 -0.136078
O60   O     O_3   0.909007 0.877501 0.301891 -0.693689
H24   H     H_    0.959045 0.823167 0.276395 0.384105
N13   N     N_R   0.855088 0.984846 0.384610 1.367713
O61   O     O_R   0.888506 0.012322 0.424143 -1.440649
O62   O     O_R   0.888506 0.012322 0.424143 -1.440649
N14   N     N_R   0.466699 0.675104 0.730482 0.129968
O63   O     O_R   0.394097 0.683417 0.763582 -0.165971
O64   O     O_R   0.441377 0.677389 0.684804 -0.292725
O65   O     O_3   0.674113 0.472118 0.784095 -0.601457
H25   H     H_    0.739744 0.432541 0.806294 0.293502
O66   O     O_3   0.103555 0.996219 0.781045 -0.525196
H26   H     H_    0.130231 0.943328 0.752712 0.375598
N15   N     N_R   0.953358 0.166797 0.693936 0.138295
O67   O     O_R   0.953766 0.070619 0.690817 -0.228561
O68   O     O_R   0.899201 0.244957 0.661474 -0.247014
O69   O     O_3   0.317443 0.995654 0.735638 -0.582044
H27   H     H_    0.301690 0.947259 0.713456 0.330060

loop_
_geom_bond_atom_site_label_1
_geom_bond_atom_site_label_2
_geom_bond_distance
_ccdc_geom_bond_type
C75   H11   1.084341 S    
N12   O59   1.295994 A    
C37   C38   1.554703 S    
C31   C32   1.540890 S    
N3    O35   1.299782 A    
C16   O51   1.395914 S    
C20   O66   1.398274 S    
C55   C56   1.422284 A    
C62   H7    1.082977 S    
C71   C72   1.423859 A    
C3    C22   1.424352 S    
O19   C93   1.267753 A    
C81   C89   1.416258 A    
C83   C85   1.412423 A    
O28   H16   0.991087 S    
C33   C93   1.422325 S    
O18   Cr6   2.037445 S    
C95   O24   1.280287 A    
O4    Cr2   1.921209 S    
C35   C36   1.541641 S    
C87   C88   1.409716 A    
O8    Cr1   1.925224 S    
N5    O40   1.301254 A    
C65   C94   1.459874 S    
N14   O64   1.300127 A    
C62   C63   1.390342 A    
C82   C90   1.415883 A    
C19   C20   1.541177 S    
Cr5   O26   1.983651 S    
O15   Cr4   1.925204 S    
C12   C15   1.535316 S    
C51   C52   1.407449 A    
N1    O31   1.300200 A    
O23   Cr5   1.929202 S    
O4    C2    1.278282 A    
C59   C60   1.412557 A    
Cr4   O26   1.977891 S    
N6    O43   1.300161 A    
C25   O29   1.397158 S    
C8    O27   1.397383 S    
O27   H15   0.991144 S    
C68   C72   1.404589 A    
O52   H22   0.990554 S    
C44   C52   1.417685 A    
C76   C79   1.398419 A    
N10   O55   1.301022 A    
C9    C92   1.425361 S    
C51   C53   1.397113 A    
C8    C12   1.541504 S    
C83   C84   1.415323 A    
C19   C23   1.556820 S    
O25   Cr6   1.919236 S    
C34   C42   1.204175 T    
C82   N13   1.438190 S    
O51   H21   0.989996 S    
C60   C68   1.421397 A    
C9    C17   1.199965 T    
O29   H17   0.991228 S    
C38   C40   1.553188 S    
O6    C3    1.275346 A    
C85   O60   1.382469 S    
C52   C56   1.404757 A    
C7    C8    1.554514 S    
C14   C16   1.545282 S    
N8    O47   1.301520 A    
O60   H24   0.991111 S    
C40   N2    1.454829 S    
O19   Cr6   1.934696 S    
C69   H9    1.079930 S    
N2    O34   1.298854 A    
C21   C91   1.438184 S    
O9    Cr2   2.037275 S    
C19   N15   1.455599 S    
C59   C74   1.407752 A    
C50   H5    1.084773 S    
C23   C25   1.550997 S    
N12   O58   1.300222 A    
C45   C48   1.413173 A    
N13   O61   1.301264 A    
N5    O41   1.301254 A    
C66   C67   1.382404 A    
N7    O45   1.301447 A    
Cr3   O13   1.983791 S    
C20   C24   1.548645 S    
C11   O65   1.395793 S    
C55   C57   1.392191 A    
C77   C88   1.415157 A    
C25   C27   1.534057 S    
O20   Cr4   2.040646 S    
C66   H10   1.085883 S    
C78   C79   1.393051 A    
C27   O28   1.397434 S    
C36   C41   1.457001 S    
C35   C37   1.536090 S    
O17   Cr5   1.926308 S    
C13   N14   1.456636 S    
O1    Cr1   2.043846 S    
C28   O69   1.395566 S    
C61   C72   1.404512 A    
N14   O63   1.299704 A    
C45   C46   1.420830 A    
C82   C83   1.405657 A    
C75   C90   1.400773 A    
C75   C76   1.396824 A    
O10   Cr2   1.935100 S    
C91   O16   1.301011 A    
Cr1   O13   1.978177 S    
O1    C3    1.265646 A    
N15   O67   1.299757 A    
C67   C68   1.401647 A    
C64   C65   1.402967 A    
C50   C51   1.381165 A    
C10   C18   1.201406 T    
O65   H25   0.990269 S    
C12   C17   1.458260 S    
O12   Cr3   1.923821 S    
O66   H26   0.990888 S    
C65   C73   1.402747 A    
N10   O54   1.300542 A    
N4    O38   1.300235 A    
C49   C95   1.472981 S    
C59   N9    1.436179 S    
O24   Cr6   2.051650 S    
C94   O22   1.277316 A    
C67   C69   1.396445 A    
C4    C90   1.475907 S    
C57   H3    1.082029 S    
C43   C58   1.409575 A    
C2    C10   1.427539 S    
C81   C96   1.487213 S    
O7    Cr1   2.051409 S    
C24   C29   1.469346 S    
C44   C47   1.416262 A    
O12   C6    1.273783 A    
N2    O33   1.299120 A    
C32   C40   1.541157 S    
C70   C71   1.419530 A    
C69   C70   1.390692 A    
C32   C36   1.545187 S    
C7    C11   1.557051 S    
C4    O9    1.268693 A    
C26   C28   1.539623 S    
C89   N11   1.438791 S    
C64   H6    1.085352 S    
O23   C95   1.275105 A    
N7    O46   1.300818 A    
C84   C88   1.409405 A    
C15   N12   1.454807 S    
C23   C24   1.564461 S    
Cr2   O13   1.983336 S    
C86   H14   1.079881 S    
C37   C39   1.540107 S    
O17   C92   1.275215 A    
C24   C27   1.541878 S    
C14   C18   1.460542 S    
O42   H20   0.991120 S    
C49   C57   1.392575 A    
C25   C26   1.537707 S    
C20   C28   1.534175 S    
C1    O3    1.267075 A    
O20   C96   1.272584 A    
C78   H12   1.081242 S    
C60   C63   1.405442 A    
C27   C28   1.535993 S    
C73   O52   1.380798 S    
C22   C30   1.199184 T    
C80   C81   1.416804 A    
N11   O56   1.301939 A    
C23   H2    1.104301 S    
C79   H13   1.083776 S    
C11   C12   1.542005 S    
C54   N8    1.439157 S    
C48   N5    1.437335 S    
C47   N7    1.439498 S    
O2    Cr1   1.935156 S    
O16   Cr5   2.046294 S    
C35   O39   1.393685 S    
C70   O53   1.377841 S    
O14   C93   1.271632 A    
C54   C55   1.413114 A    
O6    Cr3   1.929638 S    
C1    C34   1.432182 S    
C71   C73   1.419812 A    
O11   Cr3   2.047651 S    
C85   C86   1.399211 A    
C2    O5    1.268024 A    
C31   O32   1.396490 S    
C45   C56   1.416896 A    
C50   C58   1.400240 A    
C61   C64   1.382391 A    
O25   C96   1.283370 A    
C39   N3    1.454326 S    
C8    C16   1.536158 S    
C37   N4    1.457101 S    
C43   O42   1.379618 S    
C15   C16   1.539386 S    
O14   Cr4   2.054842 S    
C11   C13   1.533559 S    
O2    C1    1.277126 A    
O53   H23   0.990777 S    
C80   N10   1.434782 S    
C53   C54   1.391014 A    
C31   C38   1.544126 S    
O5    Cr3   2.040903 S    
N1    O30   1.299661 A    
N11   O57   1.300929 A    
C13   C15   1.533808 S    
C32   N1    1.454884 S    
C39   C40   1.545686 S    
C13   C14   1.545482 S    
C63   H8    1.081763 S    
N6    O44   1.300948 A    
O7    C6    1.264805 A    
C92   O18   1.271395 A    
C31   C35   1.542002 S    
C5    O11   1.271233 A    
C46   C47   1.408228 A    
N8    O48   1.301511 A    
N15   O68   1.300189 A    
C87   C89   1.403292 A    
C48   C49   1.413784 A    
C77   C80   1.411824 A    
C7    H1    1.108548 S    
C46   N6    1.431522 S    
C43   C44   1.423482 A    
N4    O37   1.300209 A    
N13   O62   1.301264 A    
C21   C29   1.207316 T    
O39   H19   0.990159 S    
O21   Cr4   1.935687 S    
N9    O49   1.301158 A    
O3    Cr2   2.053689 S    
C38   C42   1.465521 S    
C33   C41   1.198550 T    
O69   H27   0.991155 S    
O22   Cr5   2.044286 S    
N3    O36   1.300873 A    
C61   C62   1.400105 A    
C77   C78   1.409751 A    
C76   C84   1.412208 A    
O10   C5    1.282819 A    
C19   C26   1.533747 S    
C5    C58   1.471413 S    
O32   H18   0.990954 S    
C6    C74   1.454811 S    
C86   C87   1.403781 A    
O15   C91   1.301086 A    
Cr6   O26   1.983225 S    
C26   C30   1.456713 S    
C66   C74   1.400836 A    
C53   H4    1.084762 S    
O21   C94   1.267104 A    
O8    C4    1.284781 A    
C7    C14   1.555925 S    
N9    O50   1.301127 A    
C36   C39   1.538964 S    
