data_mof_unit_27536.cif
_audit_creation_date              2012-12-10T16:51:11-0500
_audit_creation_method            fapswitch 2.2
_symmetry_space_group_name_H-M    P1
_symmetry_Int_Tables_number       1
_space_group_crystal_system       triclinic
_cell_length_a                    27.750423
_cell_length_b                    8.67805
_cell_length_c                    7.446434
_cell_angle_alpha                 103.181458
_cell_angle_beta                  94.338127
_cell_angle_gamma                 92.765691
_cell_volume                      1737.03076353

loop_
_atom_site_label
_atom_site_type_symbol
_atom_type_description
_atom_site_fract_x
_atom_site_fract_y
_atom_site_fract_z
_atom_type_partial_charge
C1    C     C_R   0.498517 0.199571 0.453013 0.851130
C2    C     C_R   0.501483 0.800429 0.546987 0.851120
C3    C     C_R   0.102179 0.531012 0.497161 -0.171562
C4    C     C_R   0.897807 0.469083 0.502622 -0.171585
C5    C     C_R   0.124368 0.462937 0.336163 -0.248883
C6    C     C_R   0.875624 0.537049 0.663679 -0.248849
C7    C     C_R   0.095447 0.399772 0.170763 0.613353
C8    C     C_R   0.904551 0.600158 0.829078 0.613310
C9    C     C_R   0.131371 0.612831 0.657698 -0.083019
C10   C     C_R   0.868610 0.387369 0.342050 -0.082917
C11   C     C_R   0.354968 0.508189 0.507524 -0.329506
C12   C     C_R   0.645028 0.491860 0.492470 -0.329446
C13   C     C_R   0.970989 0.415471 0.338783 0.103140
C14   C     C_R   0.028994 0.584654 0.660954 0.103100
C15   C     C_R   0.978045 0.561084 0.666717 -0.110317
C16   C     C_R   0.021943 0.438986 0.333043 -0.110293
C17   C     C_R   0.949135 0.482540 0.502528 0.014722
C18   C     C_R   0.050851 0.517556 0.497231 0.014736
C19   C     C_R   0.941329 0.317010 0.190343 -0.078277
C20   C     C_R   0.058645 0.683201 0.809353 -0.078260
C21   C     C_R   0.891271 0.301745 0.190239 0.426637
C22   C     C_R   0.108701 0.698523 0.809449 0.426553
C23   C     C_R   0.407613 0.500829 0.502317 0.944627
C24   C     C_R   0.592385 0.499183 0.497684 0.944888
C25   C     C_R   0.045294 0.392952 0.167401 0.525149
C26   C     C_R   0.954704 0.607041 0.832390 0.525103
C27   C     C_2   0.497820 0.031494 0.426700 -0.272990
C28   C     C_2   0.502181 0.968506 0.573299 -0.272971
C29   C     C_R   0.175114 0.463467 0.344024 0.750244
C30   C     C_R   0.824878 0.536474 0.655867 0.750243
C31   C     C_R   0.182121 0.605844 0.660176 0.689082
C32   C     C_R   0.817861 0.394388 0.339601 0.689040
C33   C     C_R   0.280471 0.608735 0.404095 0.558003
C34   C     C_R   0.719517 0.391036 0.595485 0.558043
C35   C     C_R   0.330124 0.596970 0.399138 0.446566
C36   C     C_R   0.669863 0.402775 0.600491 0.446701
C37   C     C_R   0.329623 0.430144 0.622047 0.230699
C38   C     C_R   0.670376 0.570256 0.378285 0.230743
C39   C     C_R   0.278388 0.433226 0.616472 0.326817
C40   C     C_R   0.721610 0.567164 0.383814 0.326730
C41   C     C_R   0.254423 0.526358 0.510684 0.018339
C42   C     C_R   0.745568 0.473720 0.489214 0.018445
Cu1   Cu    Cu3+1 0.505380 0.517380 0.684380 1.190052
Cu2   Cu    Cu3+1 0.494620 0.482620 0.315620 1.190054
H1    H     H_    0.956118 0.239935 0.076318 0.224675
H2    H     H_    0.043843 0.760301 0.923333 0.224648
H3    H     H_    0.493722 0.959307 0.285680 0.207093
H4    H     H_    0.506279 0.040693 0.714320 0.207097
N1    N     N_R   0.202664 0.531954 0.504979 -0.422586
N2    N     N_R   0.797325 0.468129 0.494876 -0.422577
N3    N     N_2   0.486510 0.456430 0.038510 0.238732
N4    N     N_2   0.513490 0.543570 0.961490 0.238684
O1    O     O_R   0.503500 0.286120 0.619780 -0.543584
O2    O     O_R   0.496500 0.713880 0.380220 -0.543575
O3    O     O_R   0.494410 0.256780 0.308360 -0.585832
O4    O     O_R   0.505590 0.743220 0.691640 -0.585822
O5    O     O_R   0.434810 0.514700 0.655690 -0.524286
O6    O     O_R   0.565190 0.485300 0.344310 -0.524383
O7    O     O_R   0.425720 0.485350 0.344280 -0.542288
O8    O     O_R   0.574280 0.514650 0.655720 -0.542376
O9    O     O_2   0.196933 0.392985 0.193561 -0.396787
O10   O     O_2   0.803060 0.606770 0.806415 -0.396733
O11   O     O_2   0.789128 0.332024 0.182879 -0.416924
O12   O     O_2   0.210850 0.668387 0.816859 -0.416880
O13   O     O_3   0.355511 0.350896 0.734311 -0.626938
H5    H     H_    0.338015 0.351473 0.845532 0.369036
O14   O     O_3   0.644489 0.649839 0.266399 -0.627076
H6    H     H_    0.662005 0.649704 0.155327 0.368943
F1    F     F_    0.455089 0.350710 0.924133 -0.513944
F2    F     F_    0.544914 0.649281 0.075866 -0.513983
O15   O     O_3   0.250520 0.343966 0.706728 -0.622558
H7    H     H_    0.268042 0.250585 0.722500 0.354651
O16   O     O_3   0.749482 0.656697 0.293893 -0.622747
H8    H     H_    0.731985 0.750259 0.278633 0.354629
F3    F     F_    0.115362 0.349117 0.008126 -0.562253
F4    F     F_    0.884645 0.650725 0.991750 -0.562306
F5    F     F_    0.645667 0.322382 0.706418 -0.581905
F6    F     F_    0.354310 0.677056 0.292882 -0.581897
F7    F     F_    0.742696 0.300387 0.696459 -0.546251
F8    F     F_    0.257290 0.699107 0.302761 -0.546125
O17   O     O_3   0.866228 0.196565 0.041985 -0.643758
H9    H     H_    0.842733 0.131646 0.092483 0.370650
O18   O     O_3   0.133735 0.803803 0.957639 -0.643713
H10   H     H_    0.157218 0.868712 0.907072 0.370673
F9    F     F_    0.020759 0.352046 0.997128 -0.628956
F10   F     F_    0.979253 0.647923 0.002640 -0.628961

loop_
_geom_bond_atom_site_label_1
_geom_bond_atom_site_label_2
_ccdc_geom_bond_type
C8    C26   A    
O16   H8    S    
C14   C18   A    
C34   C42   A    
O17   H9    S    
C39   C41   A    
C29   N1    A    
C23   O7    A    
C19   C21   A    
C36   F5    S    
Cu1   N4    S    
Cu2   O7    S    
C8    F4    S    
C40   O16   S    
C3    C18   A    
C23   O5    A    
C11   C37   A    
C1    O1    A    
Cu1   O1    S    
Cu2   O6    S    
C37   O13   S    
C12   C36   A    
C24   O8    A    
C40   C42   A    
C30   N2    A    
C31   N1    A    
C41   N1    S    
C5    C29   A    
C10   C21   A    
C29   O9    S    
C13   C19   A    
O14   H6    S    
C14   C20   A    
C4    C6    A    
C2    O2    A    
C5    C7    A    
Cu1   O5    S    
C15   C26   A    
C7    F3    S    
N3    N4    D    
Cu1   Cu2   S    
C3    C9    A    
C10   C32   A    
C34   F7    S    
O18   H10   S    
C26   F10   S    
C25   F9    S    
C32   N2    A    
Cu1   O8    S    
C42   N2    S    
C4    C17   A    
Cu2   N3    S    
C24   O6    A    
C6    C30   A    
C20   C22   A    
C30   O10   S    
C4    C10   A    
C27   H3    S    
C16   C25   A    
C15   C17   A    
C28   H4    S    
C31   O12   S    
C32   O11   S    
C21   O17   S    
C3    C5    A    
C6    C8    A    
C19   H1    S    
C33   F8    S    
C12   C24   S    
C35   F6    S    
C7    C25   A    
C13   C17   A    
C33   C41   A    
C22   O18   S    
C11   C35   A    
C1    O3    A    
O15   H7    S    
C37   C39   A    
C2    O4    A    
C38   C40   A    
Cu2   O3    S    
C11   C23   S    
C33   C35   A    
C34   C36   A    
C12   C38   A    
C9    C22   A    
N4    F2    S    
C9    C31   A    
Cu2   O2    S    
Cu1   O4    S    
C38   O14   S    
C16   C18   A    
O13   H5    S    
C13   C16   A    
C27   C28   D    
C1    C27   S    
C39   O15   S    
C14   C15   A    
C2    C28   S    
N3    F1    S    
C20   H2    S    
