data_mof_unit_49822.cif
_audit_creation_date              2012-12-10T17:23:41-0500
_audit_creation_method            fapswitch 2.2
_symmetry_space_group_name_H-M    P1
_symmetry_Int_Tables_number       1
_space_group_crystal_system       triclinic
_cell_length_a                    9.642651
_cell_length_b                    10.770202
_cell_length_c                    17.315747
_cell_angle_alpha                 93.968813
_cell_angle_beta                  85.819537
_cell_angle_gamma                 89.693338
_cell_volume                      1789.11410824

loop_
_atom_site_label
_atom_site_type_symbol
_atom_type_description
_atom_site_fract_x
_atom_site_fract_y
_atom_site_fract_z
_atom_type_partial_charge
C1    C     C_R   0.499516 0.737067 0.501164 0.795638
C2    C     C_R   0.346634 0.513076 0.779585 0.594635
C3    C     C_R   0.419239 0.548437 0.148803 -0.173655
C4    C     C_R   0.409680 0.536936 0.228329 -0.179169
C5    C     C_R   0.657604 0.493424 0.223266 -0.150392
C6    C     C_R   0.666828 0.503933 0.143416 -0.176798
C7    C     C_R   0.547630 0.530967 0.105789 0.058256
C8    C     C_2   0.460662 0.478480 0.979585 -0.222179
C9    C     C_2   0.556914 0.537031 0.020802 0.370084
C10   C     C_R   0.528740 0.509381 0.266153 -0.032311
C11   C     C_R   0.410439 0.887005 0.642067 -0.135200
C12   C     C_R   0.481586 0.499236 0.649798 0.791121
C13   C     C_R   0.368469 0.960212 0.709395 -0.120010
C14   C     C_R   0.369348 0.089423 0.709109 -0.118585
C15   C     C_R   0.412046 0.146097 0.641467 -0.138903
C16   C     C_R   0.454718 0.073816 0.572476 0.002720
C17   C     C_R   0.453816 0.942730 0.572899 0.090482
C18   C     C_R   0.498341 0.871019 0.504303 -0.116798
C19   C     C_R   0.542312 0.926840 0.436707 -0.300380
C20   C     C_R   0.541584 0.056002 0.435205 0.430352
C21   C     C_R   0.499427 0.128952 0.503203 -0.141934
C22   C     C_R   0.879775 0.336672 0.386815 0.523513
C23   C     C_R   0.500104 0.262842 0.500328 0.887064
C24   C     C_R   0.965964 0.266086 0.330902 0.364227
C25   C     C_R   0.106964 0.267162 0.335859 -0.300846
C26   C     C_R   0.164039 0.340079 0.393412 -0.220762
C27   C     C_R   0.083704 0.421205 0.446852 0.129313
C28   C     C_R   0.934520 0.420597 0.445543 -0.046080
C29   C     C_R   0.918365 0.575711 0.550911 0.507154
C30   C     C_R   0.067007 0.575163 0.550453 -0.107254
C31   C     C_R   0.518418 0.501469 0.350306 0.829223
C32   C     C_R   0.472610 0.491072 0.734107 -0.163172
C33   C     C_R   0.592453 0.458354 0.769807 -0.279120
C34   C     C_R   0.588056 0.451181 0.849537 -0.062623
C35   C     C_R   0.464275 0.478340 0.895000 0.116463
C36   C     C_R   0.342893 0.505875 0.859771 -0.254915
Cu1   Cu    Cu3+1 0.359340 0.500010 0.500010 0.976191
Cu2   Cu    Cu3+1 0.640660 0.499990 0.499990 1.049829
H1    H     H_    0.690021 0.437841 0.736172 0.200868
H2    H     H_    0.766436 0.488934 0.110848 0.144164
H3    H     H_    0.574912 0.869200 0.384618 0.135981
H4    H     H_    0.409239 0.786917 0.644815 0.138005
H5    H     H_    0.335559 0.916506 0.762039 0.153130
H6    H     H_    0.337120 0.146048 0.761530 0.142432
H7    H     H_    0.411563 0.246516 0.643860 0.124813
H8    H     H_    0.309306 0.551059 0.260201 0.160578
H9    H     H_    0.173776 0.209209 0.294910 0.206073
H10   H     H_    0.272940 0.328321 0.392631 0.242402
H11   H     H_    0.117718 0.636559 0.591529 0.162229
H12   H     H_    0.750923 0.472099 0.251199 0.160552
H13   H     H_    0.246311 0.525194 0.894656 0.164915
H14   H     H_    0.326402 0.571404 0.120896 0.132316
H15   H     H_    0.373963 0.432146 0.008787 0.111389
H16   H     H_    0.681490 0.424793 0.875748 0.181972
N1    N     N_R   0.852190 0.498790 0.499250 -0.187856
N2    N     N_R   0.148060 0.498710 0.499220 -0.192729
O1    O     O_R   0.381190 0.680360 0.500010 -0.588700
O2    O     O_R   0.618760 0.680340 0.500000 -0.535225
O3    O     O_R   0.367440 0.500030 0.613600 -0.536886
O4    O     O_R   0.605010 0.500010 0.613590 -0.550189
O5    O     O_R   0.381240 0.319660 0.500000 -0.616992
O6    O     O_R   0.618810 0.319640 0.499990 -0.497530
O7    O     O_R   0.394990 0.499990 0.386410 -0.618199
O8    O     O_R   0.632560 0.499970 0.386400 -0.529188
O9    O     O_3   0.578075 0.112959 0.367668 -0.692755
H17   H     H_    0.604942 0.048445 0.325485 0.327475
O10   O     O_3   0.838552 0.653872 0.602953 -0.690828
H18   H     H_    0.900709 0.703117 0.636187 0.307074
F1    F     F_    0.745845 0.311186 0.382420 -0.633807
O11   O     O_3   0.915123 0.190141 0.271975 -0.710181
H19   H     H_    0.814798 0.207041 0.268734 0.373706
O12   O     O_3   0.662472 0.601913 0.983497 -0.721205
H20   H     H_    0.715377 0.647306 0.023334 0.325436
F2    F     F_    0.228310 0.544239 0.747257 -0.668417

loop_
_geom_bond_atom_site_label_1
_geom_bond_atom_site_label_2
_ccdc_geom_bond_type
C16   C21   A    
C19   C20   A    
C9    O12   S    
C24   O11   S    
C4    H8    S    
C26   C27   A    
C33   H1    S    
Cu1   Cu2   S    
C18   C19   A    
C3    C7    A    
C5    C6    A    
C15   C16   A    
C11   H4    S    
C2    C32   A    
C34   C35   A    
Cu2   O2    S    
C12   O3    A    
C10   C31   S    
C23   O6    A    
Cu2   N1    S    
C35   C36   A    
C16   C17   A    
O11   H19   S    
C25   H9    S    
C22   F1    S    
C2    F2    S    
C26   H10   S    
C22   C28   A    
C13   C14   A    
C12   C32   S    
Cu1   N2    S    
Cu1   O7    S    
C28   N1    A    
C33   C34   A    
Cu2   O8    S    
O10   H18   S    
C31   O7    A    
C20   O9    S    
C24   C25   A    
C27   N2    A    
C8    C9    D    
C29   N1    A    
C25   C26   A    
C30   N2    A    
C8    C35   S    
C29   C30   A    
C1    O1    A    
C17   C18   A    
C1    C18   S    
Cu1   O3    S    
C36   H13   S    
Cu2   O4    S    
C30   H11   S    
C34   H16   S    
C21   C23   S    
C6    H2    S    
C5    H12   S    
C15   H7    S    
C4    C10   A    
C3    C4    A    
C13   H5    S    
C14   H6    S    
C2    C36   A    
C7    C9    S    
C11   C17   A    
C31   O8    A    
O12   H20   S    
C8    H15   S    
Cu1   O5    S    
C3    H14   S    
C6    C7    A    
C32   C33   A    
C5    C10   A    
C29   O10   S    
C1    O2    A    
C11   C13   A    
C22   C24   A    
C12   O4    A    
C23   O5    A    
C20   C21   A    
O9    H17   S    
C27   C28   A    
C14   C15   A    
Cu1   O1    S    
C19   H3    S    
Cu2   O6    S    
