data_mof_unit_37238.cif
_audit_creation_date              2012-12-10T17:09:32-0500
_audit_creation_method            fapswitch 2.2
_symmetry_space_group_name_H-M    P1
_symmetry_Int_Tables_number       1
_space_group_crystal_system       triclinic
_cell_length_a                    10.524117
_cell_length_b                    10.609295
_cell_length_c                    10.021254
_cell_angle_alpha                 87.81491
_cell_angle_beta                  89.064111
_cell_angle_gamma                 90.51868
_cell_volume                      1117.89253819

loop_
_atom_site_label
_atom_site_type_symbol
_atom_type_description
_atom_site_fract_x
_atom_site_fract_y
_atom_site_fract_z
_atom_type_partial_charge
C1    C     C_R   0.484862 0.262779 0.503203 0.907461
C2    C     C_2   0.582207 0.562949 0.071165 -0.122165
C3    C     C_R   0.257214 0.495706 0.501477 0.867986
C4    C     C_R   0.499494 0.738204 0.497015 0.934921
C5    C     C_R   0.742417 0.500900 0.498885 0.880494
C6    C     C_3   0.033859 0.479510 0.629145 0.185373
C7    C     C_3   0.951710 0.383856 0.555675 0.172975
C8    C     C_3   0.876982 0.496084 0.497514 -0.096282
C9    C     C_3   0.957265 0.591257 0.571132 -0.210808
C10   C     C_3   0.045866 0.602073 0.446738 -0.217745
C11   C     C_3   0.878117 0.266746 0.611156 -0.391154
C12   C     C_3   0.962864 0.507360 0.372600 -0.166466
C13   C     C_3   0.963773 0.162908 0.665518 -0.915476
C14   C     C_3   0.389603 0.079871 0.649751 -0.363684
C15   C     C_3   0.292988 0.163897 0.718487 -0.870238
C16   C     C_3   0.079285 0.471449 0.773878 -0.375992
C17   C     C_3   0.969285 0.470352 0.875072 -0.889790
C18   C     C_3   0.097173 0.292122 0.347141 -0.403613
C19   C     C_3   0.995765 0.217222 0.276382 -0.867576
C20   C     C_1   0.339071 0.875083 0.308424 0.211000
C21   C     C_3   0.039940 0.396000 0.431062 0.155387
C22   C     C_3   0.121684 0.490998 0.504720 -0.132985
C23   C     C_2   0.421327 0.935435 0.401919 0.024956
C24   C     C_2   0.497528 0.872383 0.487346 -0.412203
C25   C     C_2   0.426085 0.071775 0.399813 -0.271495
C26   C     C_2   0.435307 0.134881 0.513101 -0.024373
C27   C     C_2   0.586031 0.557552 0.921235 -0.121049
H1    H     H_    0.664116 0.605809 0.868305 0.155798
H2    H     H_    0.028676 0.130100 0.586203 0.272250
H3    H     H_    0.018822 0.196841 0.750513 0.267607
H4    H     H_    0.904375 0.081392 0.702259 0.253232
H5    H     H_    0.812170 0.294521 0.692084 0.223168
H6    H     H_    0.818713 0.228953 0.531104 0.195381
H7    H     H_    0.341442 0.236059 0.777321 0.268471
H8    H     H_    0.231780 0.212103 0.643825 0.249591
H9    H     H_    0.232469 0.105794 0.789259 0.242722
H10   H     H_    0.341726 0.987037 0.640621 0.227420
H11   H     H_    0.472498 0.065937 0.715814 0.202038
H12   H     H_    0.423772 0.460919 0.900695 0.152308
H13   H     H_    0.907468 0.553318 0.857150 0.255456
H14   H     H_    0.911940 0.382711 0.869759 0.267124
H15   H     H_    0.007570 0.474264 0.977471 0.247804
H16   H     H_    0.137018 0.385498 0.790153 0.205826
H17   H     H_    0.140522 0.554879 0.791133 0.222706
H18   H     H_    0.935780 0.161864 0.349572 0.263947
H19   H     H_    0.934933 0.281290 0.215477 0.258774
H20   H     H_    0.042476 0.150313 0.209051 0.252339
H21   H     H_    0.162121 0.336513 0.270167 0.221073
H22   H     H_    0.154054 0.227504 0.411469 0.200813
H23   H     H_    0.653299 0.620957 0.117298 0.155277
H24   H     H_    0.437832 0.441426 0.105675 0.158835
H25   H     H_    0.918339 0.671220 0.626758 0.144064
H26   H     H_    0.088141 0.690907 0.403125 0.168106
H27   H     H_    0.929064 0.519391 0.268540 0.152674
H28   H     H_    0.559527 0.921362 0.554265 0.141834
H29   H     H_    0.440802 0.118592 0.302332 0.167999
N1    N     N_2   0.501360 0.501330 0.852150 -0.194624
N2    N     N_2   0.501400 0.501360 0.147810 -0.188022
N3    N     N_1   0.273395 0.827019 0.233619 -0.225461
O1    O     O_R   0.499980 0.319060 0.613040 -0.605991
O2    O     O_R   0.500020 0.319100 0.386900 -0.633240
O3    O     O_R   0.313930 0.499950 0.613050 -0.634927
O4    O     O_R   0.313970 0.499990 0.386910 -0.614697
O5    O     O_R   0.499980 0.680900 0.613100 -0.608616
O6    O     O_R   0.500020 0.680940 0.386960 -0.591560
O7    O     O_R   0.686030 0.500010 0.613090 -0.624246
O8    O     O_R   0.686070 0.500050 0.386950 -0.616499
Zn1   Zn    Zn3+2 0.499970 0.499970 0.650990 0.916658
Zn2   Zn    Zn3+2 0.500030 0.500030 0.349010 0.939130

loop_
_geom_bond_atom_site_label_1
_geom_bond_atom_site_label_2
_ccdc_geom_bond_type
C5    C8    S    
O7    Zn1   S    
C23   C24   D    
C2    N2    D    
N2    Zn2   S    
C6    C7    S    
C3    O4    A    
C8    C12   S    
C14   H11   S    
C18   C21   S    
C9    C10   S    
C16   H17   S    
C15   H7    S    
C25   H29   S    
O3    Zn1   S    
C5    O8    A    
O2    Zn2   S    
C18   H21   S    
C6    C9    S    
C19   H18   S    
C19   H19   S    
C7    C8    S    
H24   N2    S    
C12   H27   S    
C21   C22   S    
C14   C26   S    
C24   H28   S    
C7    C11   S    
C11   C13   S    
C16   H16   S    
C2    C27   S    
C9    H25   S    
C10   C12   S    
O6    Zn2   S    
O5    Zn1   S    
C15   H8    S    
C1    O1    A    
C11   H5    S    
C17   H14   S    
C23   C25   S    
C17   H15   S    
C4    O6    A    
C4    C24   S    
C19   H20   S    
C1    C26   S    
C16   C17   S    
N1    Zn1   S    
C6    C16   S    
C6    C22   S    
C15   H9    S    
C11   H6    S    
C13   H3    S    
O1    Zn1   S    
C18   C19   S    
C27   N1    D    
C3    O3    A    
C13   H2    S    
C27   H1    S    
C10   H26   S    
C4    O5    A    
C14   C15   S    
C8    C9    S    
C3    C22   S    
C20   N3    T    
C2    H23   S    
O8    Zn2   S    
C25   C26   D    
C7    C21   S    
C20   C23   S    
C12   C21   S    
C13   H4    S    
C10   C22   S    
O4    Zn2   S    
C18   H22   S    
C1    O2    A    
C5    O7    A    
C14   H10   S    
C17   H13   S    
H12   N1    S    
