data_mof_unit_30088.cif
_audit_creation_date              2012-12-11T14:46:17-0500
_audit_creation_method            fapswitch 2.2
_symmetry_space_group_name_H-M    P1
_symmetry_Int_Tables_number       1
_space_group_crystal_system       triclinic
_cell_length_a                    10.938389
_cell_length_b                    10.925106
_cell_length_c                    18.836818
_cell_angle_alpha                 90.479196
_cell_angle_beta                  89.362871
_cell_angle_gamma                 120.040327
_cell_volume                      1948.54955048

loop_
_atom_site_label
_atom_site_type_symbol
_atom_type_description
_atom_site_fract_x
_atom_site_fract_y
_atom_site_fract_z
_atom_type_partial_charge
C1    C     C_R   0.867116 0.636801 0.604588 0.543434
C2    C     C_R   0.928615 0.129257 0.706041 -0.014117
C3    C     C_R   0.945210 0.134718 0.780665 -0.000650
C4    C     C_R   0.273626 0.634531 0.602666 0.534881
C5    C     C_R   0.743900 0.191940 0.721270 0.000472
C6    C     C_R   0.779543 0.222865 0.792902 0.013282
C7    C     C_R   0.619944 0.190149 0.697971 -0.053095
C8    C     C_R   0.553803 0.245853 0.739971 -0.065450
C9    C     C_R   0.605224 0.298214 0.807108 -0.062872
C10   C     C_R   0.718714 0.289050 0.833233 -0.050785
C11   C     C_R   0.833740 0.166077 0.675782 -0.042971
C12   C     C_R   0.261698 0.597876 0.798426 0.071405
C13   C     C_R   0.708114 0.605855 0.705809 -0.142630
C14   C     C_R   0.690815 0.612505 0.778632 -0.148593
C15   C     C_R   0.806755 0.655535 0.824112 0.019870
C16   C     C_R   0.859053 0.224845 0.602872 0.534198
C17   C     C_R   0.938838 0.690361 0.796799 -0.102281
C18   C     C_R   0.955836 0.683571 0.724646 -0.122379
C19   C     C_R   0.841963 0.645432 0.678991 0.039528
C20   C     C_R   0.235725 0.541385 0.275475 -0.107381
C21   C     C_R   0.253868 0.559336 0.203056 -0.134274
C22   C     C_R   0.343382 0.693772 0.175688 0.018144
C23   C     C_R   0.223777 0.577286 0.727491 -0.138732
C24   C     C_R   0.409079 0.811778 0.221270 -0.136854
C25   C     C_R   0.390731 0.793494 0.294360 -0.161153
C26   C     C_R   0.306006 0.657532 0.321416 0.023657
C27   C     C_R   0.771247 0.231325 0.278033 -0.159012
C28   C     C_R   0.872516 0.636065 0.394641 0.568625
C29   C     C_R   0.771844 0.221096 0.205447 -0.149799
C30   C     C_R   0.850125 0.167747 0.172589 -0.006754
C31   C     C_R   0.940331 0.138963 0.212703 -0.137999
C32   C     C_R   0.942366 0.150824 0.286595 0.019268
C33   C     C_R   0.853702 0.194385 0.319736 -0.004389
C34   C     C_R   0.317994 0.666682 0.675521 0.008212
C35   C     C_R   0.965094 0.739498 0.275596 0.095045
C36   C     C_R   0.948490 0.730599 0.203136 -0.137032
C37   C     C_R   0.815858 0.646812 0.173307 0.005047
C38   C     C_R   0.701691 0.549247 0.216366 0.065431
C39   C     C_R   0.720992 0.549517 0.289154 -0.118878
C40   C     C_R   0.270218 0.632860 0.395929 0.533029
C41   C     C_R   0.849853 0.647338 0.319614 0.035794
C42   C     C_R   0.811549 0.106645 0.895840 0.520350
C43   C     C_R   0.450051 0.720991 0.888700 0.539105
C44   C     C_R   0.795756 0.691703 0.896734 0.538300
C45   C     C_R   0.861003 0.171698 0.824684 -0.001778
C46   C     C_R   0.809029 0.108577 0.101891 0.544587
C47   C     C_R   0.395488 0.705463 0.103775 0.556682
C48   C     C_R   0.797301 0.691457 0.103642 0.547510
C49   C     C_R   0.863772 0.232247 0.394578 0.564524
C50   C     C_R   0.449061 0.780784 0.694095 -0.137685
C51   C     C_R   0.489027 0.800726 0.765080 -0.123090
C52   C     C_R   0.397465 0.707358 0.816974 0.029600
C53   C     C_2   0.036269 0.115715 0.326757 0.590877
C54   C     C_2   0.159604 0.502982 0.851966 0.589872
C55   C     C_2   0.228015 0.028345 0.799684 0.559419
C56   C     C_R   0.048122 0.106274 0.808747 -0.038082
C57   C     C_R   0.124026 0.060941 0.765862 -0.005538
C58   C     C_R   0.099702 0.048809 0.692561 -0.148395
C59   C     C_R   0.003719 0.082211 0.663256 -0.095863
Cr1   Cr    Cr6+3 0.791660 0.390250 0.499930 1.011892
Cr2   Cr    Cr6+3 0.098520 0.708290 0.500540 1.030040
Cr3   Cr    Cr6+3 0.109770 0.401430 0.499480 1.051994
Cr4   Cr    Cr6+3 0.874790 0.925890 0.000070 1.050219
Cr5   Cr    Cr6+3 0.574120 0.948670 0.999300 1.064948
Cr6   Cr    Cr6+3 0.551420 0.625320 0.000920 1.035348
H1    H     H_    0.521174 0.850797 0.653878 0.110035
H2    H     H_    0.203332 0.467473 0.168620 0.140968
H3    H     H_    0.480965 0.916373 0.200799 0.147561
H4    H     H_    0.593156 0.885557 0.779312 0.118184
H5    H     H_    0.442048 0.884090 0.329492 0.128453
H6    H     H_    0.707004 0.271306 0.301239 0.155934
H7    H     H_    0.703358 0.246257 0.175432 0.147125
H8    H     H_    0.001306 0.097346 0.187169 0.166250
H9    H     H_    0.038635 0.799837 0.170235 0.143774
H10   H     H_    0.634097 0.474563 0.322106 0.154834
H11   H     H_    0.120681 0.490902 0.712490 0.122472
H12   H     H_    0.462226 0.247962 0.720383 0.116220
H13   H     H_    0.155417 0.016286 0.656475 0.109676
H14   H     H_    0.076271 0.125716 0.863968 0.209256
H15   H     H_    0.986129 0.067135 0.606650 0.147471
H16   H     H_    0.753988 0.326823 0.886621 0.125726
H17   H     H_    0.229426 0.136263 0.334651 0.343992
H18   H     H_    0.163174 0.915147 0.265325 0.231286
H19   H     H_    0.150842 0.785937 0.316555 0.248121
H20   H     H_    0.578066 0.397893 0.145208 0.239281
H21   H     H_    0.514997 0.505517 0.173258 0.282256
H22   H     H_    0.006940 0.468439 0.923106 0.326143
H23   H     H_    0.569697 0.141674 0.648355 0.137847
H24   H     H_    0.259629 0.930876 0.713612 0.286614
H25   H     H_    0.554091 0.341450 0.839969 0.141254
H26   H     H_    0.619116 0.573123 0.670746 0.119391
H27   H     H_    0.588284 0.588159 0.799159 0.128764
H28   H     H_    0.029685 0.728144 0.830937 0.207926
H29   H     H_    0.058505 0.708797 0.704133 0.138483
H30   H     H_    0.165550 0.436321 0.295718 0.158197
N1    N     N_3   0.100013 0.841411 0.303822 -0.556006
N2    N     N_3   0.565499 0.450619 0.188770 -0.614465
O1    O     O_R   0.766500 0.250040 0.579790 -0.528712
O2    O     O_R   0.413330 0.603360 0.920440 -0.479098
O3    O     O_R   0.676110 0.626250 0.926750 -0.528777
O4    O     O_R   0.798570 0.516780 0.574780 -0.495539
O5    O     O_R   0.895350 0.809870 0.080950 -0.515684
O6    O     O_R   0.872490 0.049760 0.073800 -0.499309
O7    O     O_R   0.691680 0.088070 0.079070 -0.527539
O8    O     O_R   0.451720 0.825250 0.074050 -0.496208
O9    O     O_R   0.413580 0.606370 0.080960 -0.519152
O10   O     O_R   0.676340 0.629040 0.075550 -0.511548
O11   O     O_3   0.666780 0.833290 0.000090 -0.277987
O12   O     O_R   0.218690 0.701900 0.425960 -0.514768
O13   O     O_R   0.984000 0.732950 0.581090 -0.527257
O14   O     O_R   0.218600 0.700890 0.574760 -0.510992
O15   O     O_R   0.249390 0.515350 0.579940 -0.509620
O16   O     O_R   0.982790 0.280900 0.573700 -0.493919
O17   O     O_R   0.766600 0.251130 0.419260 -0.532295
O18   O     O_R   0.798660 0.517790 0.425980 -0.526346
O19   O     O_R   0.984100 0.734040 0.420570 -0.453917
O20   O     O_2   0.994662 0.047135 0.381576 -0.490003
O21   O     O_R   0.172954 0.161214 0.301422 -0.711808
O22   O     O_2   0.159234 0.395043 0.868434 -0.530054
O23   O     O_R   0.249490 0.516440 0.419420 -0.508340
O24   O     O_R   0.068722 0.540008 0.885952 -0.716929
O25   O     O_2   0.260677 0.061756 0.861585 -0.476166
O26   O     O_R   0.289682 0.959195 0.764248 -0.676581
O27   O     O_R   0.982880 0.281910 0.424890 -0.475332
O28   O     O_3   0.999980 0.499990 0.499980 -0.261295
O29   O     O_R   0.895110 0.806860 0.920430 -0.497646
O30   O     O_R   0.872260 0.046970 0.925000 -0.511272
O31   O     O_R   0.691430 0.085060 0.918550 -0.513653
O32   O     O_R   0.451490 0.822460 0.925250 -0.451358

loop_
_geom_bond_atom_site_label_1
_geom_bond_atom_site_label_2
_ccdc_geom_bond_type
C20   H30   S    
C6    C45   A    
C27   C29   A    
Cr6   O9    S    
Cr1   O17   S    
C35   C36   A    
C23   H11   S    
Cr2   O12   S    
C16   O16   A    
Cr3   O27   S    
C7    C8    A    
C39   C41   A    
C35   N1    S    
C27   C33   A    
C12   C23   A    
C44   O29   A    
C29   C30   A    
C56   H14   S    
C21   C22   A    
Cr1   O28   S    
C43   O2    A    
C15   C44   S    
C5    C11   A    
Cr1   O1    S    
C38   N2    S    
C30   C31   A    
C53   O20   D    
C43   C52   S    
C31   H8    S    
C48   O10   A    
Cr2   O13   S    
C33   C49   S    
C28   C41   S    
C56   C57   A    
C15   C17   A    
C18   C19   A    
H19   N1    S    
H21   N2    S    
C28   O19   A    
C7    H23   S    
C8    C9    A    
Cr5   O31   S    
C39   H10   S    
C9    C10   A    
Cr6   O11   S    
Cr3   O23   S    
C42   O31   A    
C29   H7    S    
C23   C34   A    
C22   C47   S    
C4    O15   A    
C55   O25   D    
C4    O14   A    
C54   O22   D    
C21   H2    S    
Cr4   O5    S    
C2    C11   A    
C12   C52   A    
Cr5   O11   S    
C55   O26   S    
C38   C39   A    
C4    C34   S    
C34   C50   A    
C1    C19   S    
C13   C19   A    
C51   C52   A    
Cr4   O29   S    
C43   O32   A    
C24   C25   A    
Cr6   O2    S    
Cr3   O16   S    
Cr4   O6    S    
C5    C7    A    
C24   H3    S    
C53   O21   S    
H24   O26   S    
C47   O8    A    
C25   C26   A    
C49   O27   A    
C46   O7    A    
C3    C45   A    
C42   C45   S    
C9    H25   S    
C37   C38   A    
C28   O18   A    
C1    O13   A    
C3    C56   A    
C31   C32   A    
C47   O9    A    
C48   O5    A    
Cr2   O19   S    
C17   C18   A    
C50   C51   A    
Cr5   O32   S    
C37   C48   S    
C50   H1    S    
C14   H27   S    
C36   H9    S    
C42   O30   A    
C40   O23   A    
C54   O24   S    
C55   C57   S    
C8    H12   S    
C18   H29   S    
C22   C24   A    
C17   H28   S    
H17   O21   S    
Cr1   O4    S    
Cr2   O14   S    
C1    O4    A    
C32   C53   S    
C27   H6    S    
H22   O24   S    
Cr5   O7    S    
C36   C37   A    
Cr5   O8    S    
C2    C59   A    
C30   C46   S    
Cr6   O3    S    
C59   H15   S    
C6    C10   A    
Cr3   O28   S    
C40   O12   A    
C46   O6    A    
C10   H16   S    
C32   C33   A    
C2    C3    A    
C58   C59   A    
C44   O3    A    
C26   C40   S    
C57   C58   A    
C5    C6    A    
C20   C26   A    
H18   N1    S    
C49   O17   A    
C35   C41   A    
C12   C54   S    
C11   C16   S    
H20   N2    S    
C58   H13   S    
C16   O1    A    
C13   H26   S    
Cr3   O15   S    
C20   C21   A    
C14   C15   A    
Cr1   O18   S    
Cr2   O28   S    
C25   H5    S    
C51   H4    S    
Cr4   O11   S    
C13   C14   A    
Cr6   O10   S    
Cr4   O30   S    
