data_mof_unit_7033.cif
_audit_creation_date              2012-12-10T18:43:48-0500
_audit_creation_method            fapswitch 2.2
_symmetry_space_group_name_H-M    P1
_symmetry_Int_Tables_number       1
_space_group_crystal_system       triclinic
_cell_length_a                    10.48378
_cell_length_b                    10.698042
_cell_length_c                    9.84894
_cell_angle_alpha                 90.35659
_cell_angle_beta                  101.935246
_cell_angle_gamma                 90.281376
_cell_volume                      1080.69463554

loop_
_atom_site_label
_atom_site_type_symbol
_atom_type_description
_atom_site_fract_x
_atom_site_fract_y
_atom_site_fract_z
_atom_type_partial_charge
C1    C     C_R   0.499781 0.259909 0.499653 0.873770
C2    C     C_2   0.880525 0.539412 0.581476 -0.460454
C3    C     C_2   0.072718 0.614699 0.513417 0.202522
C4    C     C_2   0.931163 0.616056 0.496851 0.215646
C5    C     C_R   0.539755 0.063534 0.391769 -0.193155
C6    C     C_R   0.462510 0.936393 0.609405 -0.198007
C7    C     C_R   0.540300 0.935467 0.392277 -0.202675
C8    C     C_R   0.461597 0.064442 0.608653 -0.194844
C9    C     C_R   0.501424 0.872476 0.500972 -0.001245
C10   C     C_R   0.500031 0.127454 0.499696 -0.013710
C11   C     C_3   0.848849 0.685419 0.374921 -0.358162
C12   C     C_R   0.500604 0.740081 0.500480 0.837553
C13   C     C_3   0.919030 0.794561 0.321474 -0.920411
C14   C     C_3   0.157893 0.680051 0.638999 -0.336390
C15   C     C_3   0.087873 0.778992 0.708923 -0.916957
C16   C     C_3   0.772341 0.676644 0.922580 -0.780201
C17   C     C_3   0.358072 0.189421 0.055607 -0.858747
C18   C     C_R   0.257981 0.509855 0.445095 0.923927
C19   C     C_R   0.742266 0.508942 0.555473 0.930972
C20   C     C_R   0.561848 0.592504 0.086567 -0.216529
C21   C     C_R   0.435587 0.408941 0.912517 -0.189876
C22   C     C_R   0.564420 0.591557 0.943197 0.285384
C23   C     C_R   0.436015 0.407507 0.057270 0.289768
C24   C     C_2   0.120602 0.542291 0.421976 -0.459980
H1    H     H_    0.609563 0.667317 0.152507 0.144683
H2    H     H_    0.003283 0.761086 0.279433 0.269513
H3    H     H_    0.850364 0.841919 0.236645 0.242824
H4    H     H_    0.817614 0.618166 0.288026 0.211529
H5    H     H_    0.761466 0.724563 0.406642 0.211247
H6    H     H_    0.047991 0.853508 0.634891 0.265815
H7    H     H_    0.008211 0.736113 0.751743 0.264621
H8    H     H_    0.158394 0.822717 0.796231 0.246998
H9    H     H_    0.196950 0.609493 0.718911 0.219166
H10   H     H_    0.240435 0.727603 0.605405 0.209305
H11   H     H_    0.601981 0.775656 0.910138 0.199052
H12   H     H_    0.382976 0.338497 0.843631 0.158762
H13   H     H_    0.809109 0.692904 0.035307 0.219240
H14   H     H_    0.816356 0.747610 0.864220 0.235669
H15   H     H_    0.803241 0.582479 0.894572 0.258930
H16   H     H_    0.279748 0.345549 0.137414 0.235379
H17   H     H_    0.286090 0.185844 0.955581 0.226134
H18   H     H_    0.325557 0.123372 0.128267 0.256577
H19   H     H_    0.455327 0.159148 0.040034 0.245392
H20   H     H_    0.943639 0.496110 0.670068 0.141445
H21   H     H_    0.055773 0.503236 0.330817 0.143604
H22   H     H_    0.571373 0.112230 0.308264 0.168422
H23   H     H_    0.431478 0.887778 0.693336 0.148057
H24   H     H_    0.571871 0.886103 0.308712 0.147880
H25   H     H_    0.429971 0.113798 0.692202 0.149798
H26   H     H_    0.952632 0.864208 0.405046 0.268523
N1    N     N_R   0.499970 0.499970 0.857200 -0.107647
N2    N     N_R   0.500030 0.500030 0.142800 -0.109885
N3    N     N_2   0.631914 0.687505 0.887986 -0.255958
N4    N     N_2   0.365652 0.314291 0.114358 -0.259036
O1    O     O_R   0.499990 0.316750 0.614620 -0.626261
O2    O     O_R   0.500010 0.683250 0.385380 -0.636092
O3    O     O_R   0.499990 0.316780 0.385290 -0.591869
O4    O     O_R   0.500010 0.683220 0.614710 -0.609017
O5    O     O_R   0.317810 0.500000 0.571850 -0.621914
O6    O     O_R   0.682190 0.500000 0.428150 -0.614661
O7    O     O_R   0.317810 0.500030 0.342520 -0.610867
O8    O     O_R   0.682190 0.499970 0.657480 -0.583379
Zn1   Zn    Zn3+2 0.500000 0.499980 0.653120 0.941167
Zn2   Zn    Zn3+2 0.500000 0.500020 0.346880 0.938654

loop_
_geom_bond_atom_site_label_1
_geom_bond_atom_site_label_2
_ccdc_geom_bond_type
C14   H10   S    
O7    Zn2   S    
C2    C4    D    
C17   H19   S    
C18   O7    A    
C15   H7    S    
O8    Zn1   S    
C1    O3    A    
C19   O6    A    
H11   N3    S    
C5    H22   S    
O5    Zn1   S    
C14   C15   S    
C21   N1    A    
C16   H13   S    
O6    Zn2   S    
C12   O4    A    
C7    H24   S    
C14   H9    S    
O2    Zn2   S    
C1    O1    A    
C5    C10   A    
C20   N2    A    
C21   H12   S    
C4    C11   S    
C11   C13   S    
C3    C24   D    
C12   O2    A    
C3    C14   S    
C11   H4    S    
C15   H6    S    
C18   C24   S    
C24   H21   S    
C17   N4    S    
C6    H23   S    
C20   C22   A    
C22   N3    S    
H16   N4    S    
C23   N4    S    
C21   C23   A    
C9    C12   S    
C17   H17   S    
C13   H2    S    
C23   N2    A    
C20   H1    S    
C19   O8    A    
C3    C4    S    
C7    C9    A    
C18   O5    A    
C15   H8    S    
C6    C9    A    
N1    Zn1   S    
C11   H5    S    
O3    Zn2   S    
C8    C10   A    
N2    Zn2   S    
C16   H14   S    
O4    Zn1   S    
C5    C7    A    
C16   N3    S    
C13   H3    S    
C6    C8    A    
C16   H15   S    
C2    C19   S    
C17   H18   S    
C8    H25   S    
C1    C10   S    
C13   H26   S    
C2    H20   S    
C22   N1    A    
O1    Zn1   S    
