data_mof_unit_11360.cif
_audit_creation_date              2012-12-11T15:35:04-0500
_audit_creation_method            fapswitch 2.2
_symmetry_space_group_name_H-M    P1
_symmetry_Int_Tables_number       1
_space_group_crystal_system       triclinic
_cell_length_a                    30.68799
_cell_length_b                    7.266236
_cell_length_c                    25.692943
_cell_angle_alpha                 90.000071
_cell_angle_beta                  112.214046
_cell_angle_gamma                 90.000125
_cell_volume                      5303.94020954

loop_
_atom_site_label
_atom_site_type_symbol
_atom_type_description
_atom_site_fract_x
_atom_site_fract_y
_atom_site_fract_z
_atom_type_partial_charge
O1    O     O_R   0.295360 0.592990 0.320420 -0.539324
O2    O     O_R   0.704640 0.407010 0.679580 -0.539324
O3    O     O_R   0.204640 0.092990 0.179580 -0.539324
O4    O     O_R   0.795360 0.907010 0.820420 -0.539324
O5    O     O_R   0.294060 0.265620 0.213230 -0.536330
O6    O     O_R   0.705940 0.734380 0.786770 -0.536330
O7    O     O_R   0.205940 0.765620 0.286770 -0.536330
O8    O     O_R   0.794060 0.234380 0.713230 -0.536331
C1    C     C_R   0.303034 0.431973 0.198387 0.709268
C2    C     C_R   0.696966 0.568027 0.801613 0.709267
C3    C     C_R   0.196966 0.931972 0.301613 0.709268
C4    C     C_R   0.803034 0.068027 0.698387 0.709269
O9    O     O_R   0.300850 0.263360 0.322080 -0.535056
O10   O     O_R   0.699150 0.736640 0.677920 -0.535056
O11   O     O_R   0.199150 0.763360 0.177920 -0.535055
O12   O     O_R   0.800850 0.236640 0.822080 -0.535057
O13   O     O_R   0.211480 0.091820 0.289210 -0.533842
O14   O     O_R   0.788520 0.908180 0.710790 -0.533843
O15   O     O_R   0.288520 0.591820 0.210790 -0.533843
O16   O     O_R   0.711480 0.408180 0.789210 -0.533842
C5    C     C_R   0.313522 0.431868 0.343390 0.684764
C6    C     C_R   0.686478 0.568131 0.656610 0.684764
C7    C     C_R   0.186478 0.931868 0.156610 0.684763
C8    C     C_R   0.813522 0.068132 0.843390 0.684764
O17   O     O_3   0.220670 0.426670 0.239090 -0.371330
O18   O     O_3   0.779330 0.573330 0.760910 -0.371330
O19   O     O_3   0.279330 0.926670 0.260910 -0.371330
O20   O     O_3   0.720670 0.073330 0.739090 -0.371331
V1    V     V_3+5 0.255440 0.152290 0.252020 1.402508
V2    V     V_3+5 0.744560 0.847710 0.747980 1.402508
V3    V     V_3+5 0.244560 0.652290 0.247980 1.402508
V4    V     V_3+5 0.755440 0.347710 0.752020 1.402508
C9    C     C_R   0.850281 0.060417 0.900948 -0.038555
C10   C     C_R   0.149719 0.939582 0.099052 -0.038556
C11   C     C_R   0.649719 0.560417 0.599052 -0.038555
C12   C     C_R   0.350281 0.439583 0.400948 -0.038555
C13   C     C_R   0.875135 0.106109 0.001622 -0.163406
C14   C     C_R   0.124866 0.893888 0.998378 -0.163405
C15   C     C_R   0.624865 0.606115 0.498378 -0.163405
C16   C     C_R   0.375134 0.393885 0.501622 -0.163405
C17   C     C_R   0.838890 0.090127 0.948624 0.153631
C18   C     C_R   0.161110 0.909868 0.051376 0.153631
C19   C     C_R   0.661110 0.590132 0.551376 0.153632
C20   C     C_R   0.338890 0.409868 0.448624 0.153631
C21   C     C_R   0.897612 0.027505 0.908578 -0.277923
C22   C     C_R   0.102388 0.972497 0.091421 -0.277922
C23   C     C_R   0.602388 0.527503 0.591422 -0.277924
C24   C     C_R   0.397612 0.472497 0.408578 -0.277923
C25   C     C_R   0.933846 0.021547 0.963158 0.081266
C26   C     C_R   0.066155 0.978456 0.036841 0.081265
C27   C     C_R   0.566155 0.521547 0.536841 0.081265
C28   C     C_R   0.433845 0.478454 0.463159 0.081265
C29   C     C_R   0.922290 0.081495 0.008561 0.069201
C30   C     C_R   0.077711 0.918506 0.991438 0.069200
C31   C     C_R   0.577710 0.581499 0.491439 0.069200
C32   C     C_R   0.422289 0.418502 0.508561 0.069199
C33   C     C_R   0.981763 0.971537 0.973950 -0.009854
C34   C     C_R   0.018237 0.028466 0.026049 -0.009853
C35   C     C_R   0.518237 0.471535 0.526050 -0.009855
C36   C     C_R   0.481763 0.528466 0.473950 -0.009856
C37   C     C_R   0.005002 0.134521 0.064481 0.128715
C38   C     C_R   0.994999 0.865483 0.935517 0.128714
C39   C     C_R   0.494998 0.634524 0.435518 0.128711
C40   C     C_R   0.505002 0.365478 0.564482 0.128712
C41   C     C_R   0.957873 0.132724 0.059117 -0.195616
C42   C     C_R   0.042128 0.867278 0.940882 -0.195616
C43   C     C_R   0.542127 0.632730 0.440883 -0.195614
C44   C     C_R   0.457873 0.367271 0.559117 -0.195613
H1    H     H_    0.948395 0.194054 0.091856 0.127130
H2    H     H_    0.051606 0.805948 0.908143 0.127131
H3    H     H_    0.551605 0.694061 0.408144 0.127130
H4    H     H_    0.448394 0.305940 0.591856 0.127131
H5    H     H_    0.094036 0.987430 0.128510 0.108110
H6    H     H_    0.905964 0.012575 0.871489 0.108110
H7    H     H_    0.405963 0.487430 0.371489 0.108110
H8    H     H_    0.594037 0.512570 0.628511 0.108110
H9    H     H_    0.866472 0.143033 0.037491 0.119293
H10   H     H_    0.133529 0.856962 0.962509 0.119292
H11   H     H_    0.633528 0.643043 0.462509 0.119292
H12   H     H_    0.366472 0.356957 0.537491 0.119292
C45   C     C_R   0.069556 0.827962 0.454210 0.557391
C46   C     C_R   0.930444 0.172038 0.545790 0.557389
C47   C     C_R   0.430449 0.327955 0.045797 0.557404
C48   C     C_R   0.569557 0.672031 0.954211 0.557391
N1    N     N_R   0.070686 0.970349 0.419915 -0.547377
N2    N     N_R   0.929314 0.029650 0.580085 -0.547377
N3    N     N_R   0.429315 0.470353 0.080087 -0.547384
N4    N     N_R   0.570687 0.529642 0.919916 -0.547378
C49   C     C_R   0.044012 0.125277 0.415637 0.574992
C50   C     C_R   0.955987 0.874720 0.584362 0.574992
C51   C     C_R   0.455986 0.625289 0.084359 0.574993
C52   C     C_R   0.544014 0.374712 0.915640 0.574992
C53   C     C_R   0.013623 0.140967 0.446009 -0.050776
C54   C     C_R   0.986376 0.859031 0.553991 -0.050777
C55   C     C_R   0.486378 0.640966 0.053992 -0.050752
C56   C     C_R   0.513626 0.359023 0.946013 -0.050778
C57   C     C_R   0.013891 0.995217 0.483246 -0.044632
C58   C     C_R   0.986109 0.004781 0.516754 -0.044631
C59   C     C_R   0.486112 0.495212 0.016758 -0.044641
C60   C     C_R   0.513894 0.504774 0.983249 -0.044630
C61   C     C_R   0.041961 0.839030 0.487041 -0.063280
C62   C     C_R   0.958039 0.160969 0.512958 -0.063280
C63   C     C_R   0.458043 0.339021 0.012965 -0.063282
C64   C     C_R   0.541963 0.660963 0.987043 -0.063279
C65   C     C_R   0.983615 0.295859 0.441729 0.128285
C66   C     C_R   0.016384 0.704138 0.558270 0.128283
C67   C     C_R   0.516389 0.795852 0.058274 0.128295
C68   C     C_R   0.483619 0.204128 0.941735 0.128284
C69   C     C_R   0.957168 0.303256 0.475852 -0.193762
C70   C     C_R   0.042832 0.696743 0.524148 -0.193761
C71   C     C_R   0.542835 0.803249 0.024150 -0.193783
C72   C     C_R   0.457173 0.196730 0.975860 -0.193748
O21   O     O_2   0.095316 0.675185 0.456678 -0.523797
O22   O     O_2   0.904684 0.324816 0.543322 -0.523797
O23   O     O_2   0.404693 0.175171 0.043334 -0.523777
O24   O     O_2   0.595317 0.824809 0.956678 -0.523796
O25   O     O_2   0.048283 0.264501 0.383364 -0.521233
O26   O     O_2   0.951716 0.735496 0.616634 -0.521231
O27   O     O_2   0.451706 0.764534 0.116620 -0.521224
O28   O     O_2   0.548284 0.235488 0.883368 -0.521230
H13   H     H_    0.934725 0.421442 0.472540 0.169159
H14   H     H_    0.065275 0.578557 0.527460 0.169158
H15   H     H_    0.565279 0.921432 0.027463 0.169160
H16   H     H_    0.434731 0.078541 0.972550 0.169159
C73   C     C_R   0.913594 0.026144 0.668194 -0.080501
C74   C     C_R   0.086406 0.973855 0.331806 -0.080501
C75   C     C_R   0.586406 0.526139 0.831806 -0.080503
C76   C     C_R   0.413594 0.473876 0.168195 -0.080509
H17   H     H_    0.950838 0.009537 0.692620 0.126645
H18   H     H_    0.049162 0.990462 0.307380 0.126646
H19   H     H_    0.549163 0.509531 0.807381 0.126645
H20   H     H_    0.450837 0.490495 0.192621 0.126633
C77   C     C_R   0.882051 0.035253 0.695740 -0.248768
C78   C     C_R   0.117949 0.964747 0.304260 -0.248770
C79   C     C_R   0.617949 0.535250 0.804260 -0.248769
C80   C     C_R   0.382051 0.464764 0.195740 -0.248764
H21   H     H_    0.895707 0.024330 0.741181 0.110601
H22   H     H_    0.104292 0.975669 0.258819 0.110601
H23   H     H_    0.604292 0.524330 0.758819 0.110601
H24   H     H_    0.395707 0.475695 0.241182 0.110600
C81   C     C_R   0.833484 0.059475 0.665518 -0.020824
C82   C     C_R   0.166516 0.940525 0.334481 -0.020825
C83   C     C_R   0.666516 0.559473 0.834482 -0.020824
C84   C     C_R   0.333485 0.440528 0.165519 -0.020824
C85   C     C_R   0.816387 0.073720 0.605571 0.100529
C86   C     C_R   0.183613 0.926279 0.394429 0.100529
C87   C     C_R   0.683613 0.573715 0.894429 0.100529
C88   C     C_R   0.316388 0.426274 0.105572 0.100531
C89   C     C_R   0.848942 0.061443 0.579058 -0.133047
C90   C     C_R   0.151058 0.938557 0.420942 -0.133047
C91   C     C_R   0.651059 0.561435 0.920943 -0.133046
C92   C     C_R   0.348943 0.438551 0.079059 -0.133039
H25   H     H_    0.836552 0.069918 0.533607 0.127484
H26   H     H_    0.163448 0.930082 0.466393 0.127485
H27   H     H_    0.663448 0.569909 0.966394 0.127482
H28   H     H_    0.336554 0.430067 0.033608 0.127477
C93   C     C_R   0.897248 0.039042 0.609500 0.361414
C94   C     C_R   0.102752 0.960958 0.390500 0.361414
C95   C     C_R   0.602753 0.539033 0.890501 0.361416
C96   C     C_R   0.397249 0.460965 0.109502 0.361420
C97   C     C_3   0.765736 0.104757 0.565050 -0.408272
C98   C     C_3   0.726564 0.106865 0.587831 -0.723775
H29   H     H_    0.725983 0.977471 0.610337 0.237403
H30   H     H_    0.730481 0.228055 0.615066 0.247304
H31   H     H_    0.692087 0.119789 0.552208 0.213083
H32   H     H_    0.764551 0.237637 0.543249 0.193476
H33   H     H_    0.756861 0.996873 0.532064 0.181115
C99   C     C_3   0.234264 0.895242 0.434950 -0.408272
C100  C     C_3   0.273436 0.893135 0.412169 -0.723776
H34   H     H_    0.269518 0.771945 0.384934 0.247304
H35   H     H_    0.274017 0.022529 0.389663 0.237404
H36   H     H_    0.307913 0.880211 0.447792 0.213083
H37   H     H_    0.243138 0.003127 0.467936 0.181115
H38   H     H_    0.235449 0.762363 0.456751 0.193476
C101  C     C_3   0.734264 0.604750 0.934950 -0.408273
C102  C     C_3   0.773436 0.606858 0.912169 -0.723774
H39   H     H_    0.774017 0.477464 0.889662 0.237405
H40   H     H_    0.769519 0.728048 0.884934 0.247303
H41   H     H_    0.807913 0.619781 0.947792 0.213084
H42   H     H_    0.735450 0.737628 0.956752 0.193476
H43   H     H_    0.743139 0.496864 0.967935 0.181115
C103  C     C_3   0.265738 0.395235 0.065050 -0.408275
C104  C     C_3   0.226565 0.393124 0.087831 -0.723777
H44   H     H_    0.230483 0.271935 0.115066 0.247305
H45   H     H_    0.225983 0.522518 0.110336 0.237401
H46   H     H_    0.192089 0.380198 0.052207 0.213084
H47   H     H_    0.256863 0.503120 0.032065 0.181117
H48   H     H_    0.264553 0.262356 0.043249 0.193475
C105  C     C_3   0.210914 0.890116 0.054750 -0.805141
H49   H     H_    0.237571 0.900360 0.098162 0.209866
H50   H     H_    0.214860 0.755697 0.036918 0.215628
H51   H     H_    0.218185 0.999174 0.028991 0.212072
C106  C     C_3   0.789087 0.109871 0.945250 -0.805142
H52   H     H_    0.762429 0.099628 0.901839 0.209867
H53   H     H_    0.781816 0.000810 0.971009 0.212072
H54   H     H_    0.785140 0.244287 0.963083 0.215627
C107  C     C_3   0.289086 0.390121 0.445250 -0.805142
H55   H     H_    0.262429 0.400364 0.401838 0.209866
H56   H     H_    0.285140 0.255703 0.463082 0.215627
H57   H     H_    0.281816 0.499180 0.471009 0.212072
C108  C     C_3   0.710913 0.609879 0.554750 -0.805144
H58   H     H_    0.737571 0.599638 0.598161 0.209867
H59   H     H_    0.718184 0.500819 0.528991 0.212072
H60   H     H_    0.714860 0.744296 0.536917 0.215627
C109  C     C_3   0.037796 0.270275 0.106433 -0.369106
C110  C     C_3   0.018238 0.466883 0.097370 -0.727267
H61   H     H_    0.009331 0.509867 0.053033 0.232153
H62   H     H_    0.986472 0.478313 0.107935 0.219984
H63   H     H_    0.045196 0.563074 0.125076 0.216910
H64   H     H_    0.043848 0.225445 0.149972 0.175726
H65   H     H_    0.072135 0.281522 0.101897 0.198647
C111  C     C_3   0.962204 0.729731 0.893564 -0.369105
C112  C     C_3   0.981763 0.533122 0.902626 -0.727267
H66   H     H_    0.013528 0.521695 0.892059 0.219983
H67   H     H_    0.990671 0.490136 0.946963 0.232152
H68   H     H_    0.954804 0.436933 0.874920 0.216910
H69   H     H_    0.927866 0.718482 0.898101 0.198648
H70   H     H_    0.956152 0.774565 0.850026 0.175726
C113  C     C_3   0.462204 0.770277 0.393566 -0.369096
C114  C     C_3   0.481762 0.966888 0.402628 -0.727258
H71   H     H_    0.490671 0.009876 0.446965 0.232150
H72   H     H_    0.513527 0.978317 0.392060 0.219980
H73   H     H_    0.454804 0.063076 0.374922 0.216909
H74   H     H_    0.456151 0.725442 0.350027 0.175720
H75   H     H_    0.427866 0.781524 0.398104 0.198646
C115  C     C_3   0.537796 0.229725 0.606434 -0.369100
C116  C     C_3   0.518238 0.033115 0.597373 -0.727265
H76   H     H_    0.486473 0.021688 0.607942 0.219982
H77   H     H_    0.509328 0.990127 0.553036 0.232152
H78   H     H_    0.545196 0.936927 0.625078 0.216910
H79   H     H_    0.572134 0.218476 0.601896 0.198647
H80   H     H_    0.543849 0.274561 0.649973 0.175724
C117  C     C_3   0.976295 0.453811 0.400438 -0.292610
C118  C     C_3   0.945530 0.395538 0.340634 -0.702753
H81   H     H_    0.942065 0.512078 0.311381 0.211186
H82   H     H_    0.960803 0.276265 0.326558 0.244429
H83   H     H_    0.909882 0.357195 0.338612 0.212094
H84   H     H_    0.958209 0.571203 0.411569 0.153420
H85   H     H_    0.010070 0.513308 0.402579 0.243276
C119  C     C_3   0.023704 0.546185 0.599561 -0.292608
C120  C     C_3   0.054468 0.604455 0.659365 -0.702746
H86   H     H_    0.039197 0.723734 0.673440 0.244427
H87   H     H_    0.057931 0.487916 0.688619 0.211186
H88   H     H_    0.090117 0.642792 0.661389 0.212091
H89   H     H_    0.989928 0.486687 0.597419 0.243276
H90   H     H_    0.041790 0.428793 0.588430 0.153419
C121  C     C_3   0.523718 0.953784 0.099575 -0.292608
C122  C     C_3   0.554478 0.895466 0.159375 -0.702828
H91   H     H_    0.557989 0.012053 0.188628 0.211170
H92   H     H_    0.539172 0.776315 0.173463 0.244450
H93   H     H_    0.590110 0.856915 0.161385 0.212124
H94   H     H_    0.541814 0.071162 0.088451 0.153424
H95   H     H_    0.489947 0.013315 0.097437 0.243275
C123  C     C_3   0.476297 0.046176 0.900444 -0.292613
C124  C     C_3   0.445532 0.104447 0.840641 -0.702744
H96   H     H_    0.460801 0.223737 0.826566 0.244423
H97   H     H_    0.442071 0.987914 0.811386 0.211189
H98   H     H_    0.409882 0.142768 0.838617 0.212090
H99   H     H_    0.510072 0.986680 0.902583 0.243278
H100  H     H_    0.458211 0.928783 0.911576 0.153420

loop_
_geom_bond_atom_site_label_1
_geom_bond_atom_site_label_2
_ccdc_geom_bond_type
O17   V3    S    
C59   C63   A    
C92   C96   A    
O1    C5    A    
N3    C51   A    
O19   V1    S    
C9    C21   A    
C108  H58   S    
C82   C86   A    
O3    C7    A    
C10   C18   A    
C52   C56   A    
C77   H21   S    
C80   H24   S    
C11   C23   A    
C40   C115  S    
C57   C58   A    
C25   C33   A    
C33   C38   A    
C5    C12   S    
C45   C61   A    
C112  H66   S    
N3    C96   S    
O18   V4    S    
C6    C11   S    
C35   C40   A    
C26   C30   A    
C47   C63   A    
C36   C39   A    
C50   O26   S    
O9    V1    S    
C75   C79   A    
C23   H8    S    
C14   C18   A    
C76   C80   A    
C66   C70   A    
O4    C8    A    
C55   C59   A    
C44   H4    S    
C43   H3    S    
C111  H69   S    
C109  H65   S    
C73   C77   A    
C115  H79   S    
C68   C123  S    
C45   N1    A    
O1    V3    S    
O13   V1    S    
C4    C81   S    
O2    V4    S    
C120  H86   S    
C100  H34   S    
N4    C95   S    
C39   C113  S    
C107  H56   S    
C89   H25   S    
C103  C104  S    
C119  C120  S    
C85   C89   A    
C17   C106  S    
C28   C36   A    
C53   C65   A    
C113  H74   S    
C86   C90   A    
C1    O15   A    
C60   C64   A    
C15   C31   A    
C101  C102  S    
C105  H51   S    
C2    O16   A    
O20   V2    S    
C16   C32   A    
C19   C108  S    
C16   H12   S    
C102  H39   S    
C10   C22   A    
C91   H27   S    
C11   C19   A    
C117  C118  S    
C16   C20   A    
C27   C31   A    
C97   H32   S    
C106  H52   S    
C122  H93   S    
C81   C85   A    
C101  H43   S    
C13   C29   A    
C124  H97   S    
C7    C10   S    
C34   C37   A    
O11   C7    A    
C78   H22   S    
C56   C68   A    
C124  H98   S    
O15   V3    S    
C20   C107  S    
O12   C8    A    
C66   C119  S    
C119  H90   S    
C108  H59   S    
C24   H7    S    
C117  H85   S    
C118  H82   S    
O10   V2    S    
C76   H20   S    
C114  H72   S    
C114  H71   S    
N2    C93   S    
C1    C84   S    
C122  H92   S    
C22   C26   A    
C50   C54   A    
O5    V1    S    
C102  H41   S    
C99   H37   S    
C39   C43   A    
O7    V3    S    
C38   C42   A    
C71   H15   S    
C26   C34   A    
C47   O23   S    
C110  H63   S    
C46   O22   S    
C92   H28   S    
N2    C50   A    
C104  H46   S    
C113  C114  S    
C74   H18   S    
N1    C49   A    
C110  H61   S    
C15   C19   A    
C14   H10   S    
C106  H53   S    
C61   C70   A    
C109  C110  S    
C13   H9    S    
C49   C53   A    
C68   C72   A    
C65   C117  S    
C21   H6    S    
C120  H87   S    
C118  H83   S    
C15   H11   S    
C70   H14   S    
C107  H57   S    
C99   H38   S    
C117  H84   S    
C35   C36   A    
O5    C1    A    
C123  C124  S    
C58   C62   A    
C78   C82   A    
C98   H31   S    
C74   C94   A    
O7    C3    A    
C116  H76   S    
C14   C30   A    
C123  H100  S    
O8    C4    A    
C106  H54   S    
C57   C61   A    
C65   C69   A    
C21   C25   A    
C46   C62   A    
C104  H44   S    
N4    C52   A    
C113  H75   S    
O11   V3    S    
C97   H33   S    
C55   C67   A    
C48   N4    A    
O14   V2    S    
C121  H95   S    
C99   C100  S    
O6    V2    S    
C49   O25   S    
C83   C87   A    
C73   H17   S    
C90   H26   S    
C119  H89   S    
C48   C64   A    
C100  H36   S    
C51   O27   S    
C48   O24   S    
C12   C20   A    
C27   C35   A    
C118  H81   S    
C45   O21   S    
C124  H96   S    
C73   C93   A    
C40   C44   A    
C53   C57   A    
C29   C41   A    
C122  H91   S    
C76   C96   A    
C103  H47   S    
C98   H29   S    
O16   V4    S    
C112  H68   S    
C67   C121  S    
C105  H49   S    
C41   H1    S    
C86   C99   S    
C3    O13   A    
C90   C94   A    
C116  H77   S    
C75   C95   A    
C67   C71   A    
C121  H94   S    
C88   C92   A    
C47   N3    A    
O6    C2    A    
C64   C71   A    
C23   C27   A    
C121  C122  S    
C72   H16   S    
C101  H42   S    
C30   C42   A    
O12   V4    S    
C37   C109  S    
C79   H23   S    
C77   C81   A    
C8    C9    S    
C59   C60   A    
C84   C88   A    
C85   C97   S    
C120  H88   S    
C9    C17   A    
O10   C6    A    
C104  H45   S    
C52   O28   S    
C112  H67   S    
C31   C43   A    
C80   C84   A    
C98   H30   S    
C32   C44   A    
O2    C6    A    
O9    C5    A    
C46   N2    A    
C18   C105  S    
O3    V1    S    
C33   C34   A    
C42   H2    S    
O8    V4    S    
C97   C98   S    
C109  H64   S    
C115  H80   S    
C87   C91   A    
C56   C60   A    
C102  H40   S    
C79   C83   A    
C108  H60   S    
C12   C24   A    
C87   C101  S    
C2    C83   S    
C22   H5    S    
C13   C17   A    
C107  H55   S    
C3    C82   S    
C75   H19   S    
C25   C29   A    
C54   C66   A    
C51   C55   A    
C37   C41   A    
C24   C28   A    
C116  H78   S    
C123  H99   S    
C111  C112  S    
C74   C78   A    
C88   C103  S    
C115  C116  S    
N1    C94   S    
C4    O14   A    
C38   C111  S    
C63   C72   A    
C62   C69   A    
C69   H13   S    
C54   C58   A    
C103  H48   S    
C110  H62   S    
C89   C93   A    
C114  H73   S    
O4    V2    S    
C28   C32   A    
C91   C95   A    
C105  H50   S    
C111  H70   S    
C100  H35   S    
