data_mof_unit_33785.cif
_audit_creation_date              2012-12-10T22:11:06-0500
_audit_creation_method            fapswitch 2.2
_symmetry_space_group_name_H-M    P1
_symmetry_Int_Tables_number       1
_space_group_crystal_system       triclinic
_cell_length_a                    12.116341
_cell_length_b                    12.319177
_cell_length_c                    22.955646
_cell_angle_alpha                 90.52429
_cell_angle_beta                  90.372667
_cell_angle_gamma                 90.507952
_cell_volume                      3426.08420764

loop_
_atom_site_label
_atom_site_type_symbol
_atom_type_description
_atom_site_fract_x
_atom_site_fract_y
_atom_site_fract_z
_atom_type_partial_charge
C1    C     C_R   0.658147 0.997919 0.578619 0.873675
C2    C     C_R   0.341853 0.002081 0.421381 0.873678
C3    C     C_R   0.898445 0.809265 0.127982 -0.194828
C4    C     C_R   0.101550 0.190728 0.872022 -0.194827
C5    C     C_R   0.085080 0.837153 0.199057 -0.152199
C6    C     C_R   0.914928 0.162859 0.800937 -0.152193
C7    C     C_R   0.083061 0.756931 0.156838 -0.179121
C8    C     C_R   0.916947 0.243082 0.843156 -0.179119
C9    C     C_R   0.903199 0.155950 0.192539 -0.217062
C10   C     C_R   0.096798 0.844039 0.807455 -0.217071
C11   C     C_R   0.902695 0.239157 0.152724 -0.190089
C12   C     C_R   0.097301 0.760832 0.847271 -0.190093
C13   C     C_R   0.110524 0.909786 0.324901 -0.173736
C14   C     C_R   0.889486 0.090209 0.675094 -0.173735
C15   C     C_R   0.193062 0.908884 0.366673 -0.192648
C16   C     C_R   0.806948 0.091111 0.633322 -0.192652
C17   C     C_R   0.873692 0.099241 0.320069 -0.162688
C18   C     C_R   0.126296 0.900762 0.679925 -0.162681
C19   C     C_R   0.793554 0.098814 0.362586 -0.193420
C20   C     C_R   0.206433 0.901189 0.637407 -0.193422
C21   C     C_3   0.996668 0.003574 0.247811 -0.103853
C22   C     C_3   0.003332 0.996427 0.752189 -0.103847
C23   C     C_R   0.654168 0.001767 0.420326 0.870712
C24   C     C_R   0.345832 0.998233 0.579674 0.870708
C25   C     C_R   0.090901 0.003797 0.292016 0.163136
C26   C     C_R   0.909097 0.996204 0.707985 0.163129
C27   C     C_R   0.253310 0.003720 0.378790 -0.024506
C28   C     C_R   0.746688 0.996280 0.621212 -0.024503
C29   C     C_R   0.896060 0.004478 0.287487 0.113204
C30   C     C_R   0.103940 0.995521 0.712513 0.113201
C31   C     C_R   0.736301 0.002814 0.374764 -0.023221
C32   C     C_R   0.263699 0.997185 0.625236 -0.023217
C33   C     C_R   0.001624 0.100710 0.206545 0.064817
C34   C     C_R   0.998376 0.899291 0.793456 0.064812
C35   C     C_R   0.999808 0.268091 0.124595 -0.066803
C36   C     C_R   0.000192 0.731908 0.875405 -0.066799
C37   C     C_R   0.994167 0.906047 0.206368 0.125525
C38   C     C_R   0.005834 0.093955 0.793631 0.125528
C39   C     C_R   0.990528 0.743555 0.120786 -0.026725
C40   C     C_R   0.009473 0.256447 0.879213 -0.026721
C41   C     C_R   0.992461 0.660995 0.075763 0.868324
C42   C     C_R   0.007539 0.339005 0.924237 0.868322
C43   C     C_R   0.999123 0.352324 0.081065 0.880040
C44   C     C_R   0.000877 0.647676 0.918935 0.880037
C45   C     C_R   0.145035 0.101138 0.308694 -0.135322
C46   C     C_R   0.854949 0.898865 0.691315 -0.135330
C47   C     C_R   0.227069 0.100526 0.350818 -0.175437
C48   C     C_R   0.772915 0.899477 0.649190 -0.175442
C49   C     C_R   0.838047 0.908077 0.300621 -0.180674
C50   C     C_R   0.161965 0.091918 0.699385 -0.180683
C51   C     C_R   0.758368 0.907689 0.343466 -0.187883
C52   C     C_R   0.241645 0.092306 0.656541 -0.187884
C53   C     C_R   0.099331 0.128102 0.175187 0.177717
C54   C     C_R   0.900673 0.871908 0.824819 0.177719
C55   C     C_R   0.097277 0.212773 0.135962 -0.209205
C56   C     C_R   0.902727 0.787237 0.864044 -0.209207
C57   C     C_R   0.900682 0.890587 0.170023 -0.151169
C58   C     C_R   0.099313 0.109406 0.829981 -0.151173
H1    H     H_    0.270165 0.175726 0.361185 0.157775
H2    H     H_    0.729808 0.824281 0.638830 0.157774
H3    H     H_    0.856731 0.831382 0.279834 0.141418
H4    H     H_    0.143293 0.168612 0.720178 0.141424
H5    H     H_    0.829430 0.942401 0.174002 0.146813
H6    H     H_    0.170560 0.057584 0.826007 0.146818
H7    H     H_    0.160403 0.846312 0.223921 0.172898
H8    H     H_    0.839608 0.153708 0.776069 0.172892
H9    H     H_    0.824367 0.133279 0.210737 0.159264
H10   H     H_    0.175629 0.866703 0.789253 0.159269
H11   H     H_    0.062826 0.836170 0.317472 0.133384
H12   H     H_    0.937193 0.163821 0.682517 0.133388
H13   H     H_    0.920172 0.173446 0.313252 0.136496
H14   H     H_    0.079807 0.826561 0.686737 0.136498
H15   H     H_    0.715349 0.832376 0.352663 0.157770
H16   H     H_    0.284675 0.167617 0.647348 0.157769
H17   H     H_    0.172076 0.233174 0.112726 0.186127
H18   H     H_    0.827931 0.766843 0.887285 0.186125
H19   H     H_    0.826241 0.799624 0.100285 0.162480
H20   H     H_    0.173749 0.200362 0.899724 0.162479
H21   H     H_    0.154881 0.705877 0.152108 0.163026
H22   H     H_    0.845132 0.294142 0.847883 0.163022
H23   H     H_    0.825689 0.279711 0.143378 0.167648
H24   H     H_    0.174305 0.720271 0.856612 0.167645
H25   H     H_    0.208903 0.834282 0.389771 0.156563
H26   H     H_    0.791117 0.165710 0.610217 0.156561
H27   H     H_    0.778584 0.172959 0.386890 0.156303
H28   H     H_    0.221394 0.827048 0.613099 0.156300
H29   H     H_    0.124871 0.178082 0.289192 0.134701
H30   H     H_    0.875103 0.821922 0.710821 0.134708
O1    O     O_R   0.621380 0.090460 0.561410 -0.628491
O2    O     O_R   0.378620 0.909540 0.438590 -0.628492
O3    O     O_R   0.617150 0.909540 0.438590 -0.627517
O4    O     O_R   0.382850 0.090460 0.561410 -0.627517
O5    O     O_R   0.619720 0.093230 0.440890 -0.629055
O6    O     O_R   0.380280 0.906770 0.559110 -0.629055
O7    O     O_R   0.618800 0.906770 0.559110 -0.628010
O8    O     O_R   0.381200 0.093230 0.440890 -0.628010
O9    O     O_R   0.087590 0.627480 0.058790 -0.621788
O10   O     O_R   0.912410 0.372520 0.941210 -0.621784
O11   O     O_R   0.905660 0.383870 0.059980 -0.622256
O12   O     O_R   0.094340 0.616130 0.940020 -0.622255
O13   O     O_R   0.092570 0.390420 0.063230 -0.628745
O14   O     O_R   0.907430 0.609580 0.936770 -0.628745
O15   O     O_R   0.900680 0.620930 0.055550 -0.627127
O16   O     O_R   0.099320 0.379070 0.944450 -0.627127
Zn1   Zn    Zn3+2 0.501730 0.123520 0.501540 0.946384
Zn2   Zn    Zn3+2 0.498270 0.876480 0.498460 0.946383
Zn3   Zn    Zn3+2 0.125690 0.504390 0.002180 0.965588
Zn4   Zn    Zn3+2 0.874310 0.495610 0.997820 0.965589
I1    I     I_    0.256122 0.050242 0.178662 -0.428205
I2    I     I_    0.743889 0.949783 0.821352 -0.428195

loop_
_geom_bond_atom_site_label_1
_geom_bond_atom_site_label_2
_ccdc_geom_bond_type
C16   C28   A    
O8    Zn1   S    
O13   Zn3   S    
C56   H18   S    
C5    C37   A    
C17   C29   A    
C19   C31   A    
C43   O13   A    
C39   C41   S    
C29   C49   A    
C11   H23   S    
O11   Zn4   S    
C45   H29   S    
C43   O11   A    
C52   H16   S    
C42   O10   A    
C21   C33   S    
C27   C47   A    
C22   C38   S    
C16   H26   S    
O10   Zn4   S    
C54   I2    S    
C24   C32   S    
C2    O2    A    
C32   C52   A    
O5    Zn1   S    
C38   C58   A    
C11   C35   A    
O6    Zn2   S    
C4    C40   A    
C49   C51   A    
C18   H14   S    
C20   H28   S    
C1    C28   S    
C50   C52   A    
C6    C38   A    
O14   Zn4   S    
O15   Zn4   S    
C18   C30   A    
C14   C16   A    
C12   C36   A    
C35   C43   S    
C18   C20   A    
C55   H17   S    
C45   C47   A    
C30   C50   A    
C3    C39   A    
C9    C33   A    
C14   H12   S    
O3    Zn2   S    
C13   C25   A    
C24   O4    A    
C48   H2    S    
C46   H30   S    
C53   C55   A    
C33   C53   A    
C22   C34   S    
C46   C48   A    
C49   H3    S    
C35   C55   A    
O2    Zn2   S    
C5    H7    S    
C5    C7    A    
C44   O14   A    
C15   H25   S    
C58   H6    S    
C21   C29   S    
C23   O5    A    
C23   C31   S    
C9    H9    S    
C4    H20   S    
C36   C56   A    
O7    Zn2   S    
C24   O6    A    
C15   C27   A    
C1    O7    A    
C12   H24   S    
C10   C34   A    
C14   C26   A    
C9    C11   A    
C2    C27   S    
C10   C12   A    
C3    C57   A    
C17   H13   S    
C13   C15   A    
C50   H4    S    
C23   O3    A    
C36   C44   S    
O1    Zn1   S    
C3    H19   S    
C25   C45   A    
C7    H21   S    
C20   C32   A    
C53   I1    S    
C21   C25   S    
C28   C48   A    
O12   Zn3   S    
C1    O1    A    
C22   C30   S    
C51   H15   S    
C57   H5    S    
C31   C51   A    
C19   H27   S    
C42   O16   A    
C6    C8    A    
C54   C56   A    
C34   C54   A    
C10   H10   S    
C2    O8    A    
C44   O12   A    
C13   H11   S    
C40   C42   S    
C17   C19   A    
C41   O9    A    
C26   C46   A    
C47   H1    S    
O9    Zn3   S    
C41   O15   A    
O4    Zn1   S    
C6    H8    S    
C21   C37   S    
C22   C26   S    
C4    C58   A    
C8    H22   S    
C7    C39   A    
C8    C40   A    
O16   Zn3   S    
C37   C57   A    
