data_mof_unit_23924.cif
_audit_creation_date              2012-12-11T14:40:03-0500
_audit_creation_method            fapswitch 2.2
_symmetry_space_group_name_H-M    P1
_symmetry_Int_Tables_number       1
_space_group_crystal_system       triclinic
_cell_length_a                    19.563072
_cell_length_b                    10.970655
_cell_length_c                    19.462694
_cell_angle_alpha                 90.088608
_cell_angle_beta                  97.923399
_cell_angle_gamma                 89.823175
_cell_volume                      4137.17794182

loop_
_atom_site_label
_atom_site_type_symbol
_atom_type_description
_atom_site_fract_x
_atom_site_fract_y
_atom_site_fract_z
_atom_type_partial_charge
C1    C     C_R   0.725153 0.953698 0.361720 0.592906
C2    C     C_R   0.272687 0.947377 0.641107 0.552355
C3    C     C_R   0.225153 0.453698 0.361720 0.592906
C4    C     C_R   0.772686 0.447377 0.641107 0.552354
C5    C     C_3   0.715973 0.265048 0.496408 -0.153783
C6    C     C_3   0.324345 0.357604 0.514090 -0.133988
C7    C     C_3   0.215973 0.765049 0.496408 -0.153783
C8    C     C_3   0.824345 0.857603 0.514090 -0.133989
C9    C     C_3   0.732516 0.350779 0.439260 0.000994
C10   C     C_3   0.268134 0.344045 0.561365 -0.035429
C11   C     C_3   0.232516 0.850779 0.439260 0.000995
C12   C     C_3   0.768134 0.844045 0.561365 -0.035430
C13   C     C_3   0.697461 0.456859 0.471486 0.012483
C14   C     C_3   0.236701 0.466763 0.538637 0.020250
C15   C     C_3   0.197462 0.956860 0.471486 0.012483
C16   C     C_3   0.736701 0.966763 0.538637 0.020250
C17   C     C_3   0.768025 0.490927 0.512701 -0.118983
C18   C     C_3   0.188095 0.402820 0.481322 -0.126808
C19   C     C_3   0.268026 0.990927 0.512701 -0.118984
C20   C     C_3   0.688095 0.902820 0.481322 -0.126808
C21   C     C_3   0.803041 0.383571 0.480019 -0.052641
C22   C     C_3   0.219456 0.278620 0.504997 -0.093340
C23   C     C_3   0.303042 0.883570 0.480019 -0.052641
C24   C     C_3   0.719456 0.778620 0.504997 -0.093338
C25   C     C_3   0.786454 0.299166 0.537720 0.361936
C26   C     C_3   0.275148 0.293166 0.456697 0.395764
C27   C     C_3   0.286454 0.799166 0.537720 0.361936
C28   C     C_3   0.775148 0.793166 0.456697 0.395765
C29   C     C_3   0.752195 0.404889 0.570792 0.032539
C30   C     C_3   0.244209 0.415601 0.433121 0.025933
C31   C     C_3   0.252195 0.904889 0.570792 0.032539
C32   C     C_3   0.744209 0.915601 0.433122 0.025932
C33   C     C_3   0.551018 0.268243 0.966865 0.408934
C34   C     C_3   0.501257 0.272726 0.020678 0.428629
C35   C     C_3   0.051018 0.768243 0.966865 0.408933
C36   C     C_3   0.001257 0.772726 0.020677 0.428629
C37   C     C_3   0.594920 0.168571 0.008633 -0.220432
C38   C     C_3   0.455644 0.173938 0.981990 -0.119990
C39   C     C_3   0.094920 0.668571 0.008633 -0.220434
C40   C     C_3   0.955644 0.673939 0.981990 -0.119990
C41   C     C_3   0.543850 0.173470 0.062526 -0.052384
C42   C     C_3   0.506210 0.169778 0.927571 0.014299
C43   C     C_3   0.043850 0.673470 0.062526 -0.052384
C44   C     C_3   0.006210 0.669778 0.927571 0.014299
C45   C     C_R   0.535736 0.180254 0.338216 0.549527
C46   C     C_R   0.464705 0.179900 0.662088 0.539797
C47   C     C_R   0.035736 0.680254 0.338216 0.549526
C48   C     C_R   0.964705 0.679900 0.662088 0.539797
C49   C     C_3   0.499072 0.074014 0.023237 -0.057601
C50   C     C_3   0.548697 0.069461 0.968491 -0.072851
C51   C     C_3   0.999072 0.574014 0.023238 -0.057600
C52   C     C_3   0.048697 0.569461 0.968491 -0.072851
C53   C     C_1   0.762353 0.424248 0.903763 0.055046
C54   C     C_1   0.237349 0.424898 0.095993 0.014093
C55   C     C_1   0.262353 0.924248 0.903763 0.055046
C56   C     C_1   0.737349 0.924898 0.095993 0.014092
C57   C     C_1   0.746315 0.406156 0.034006 0.049585
C58   C     C_1   0.253272 0.407346 0.965714 -0.007933
C59   C     C_1   0.246315 0.906156 0.034006 0.049585
C60   C     C_1   0.753272 0.907347 0.965714 -0.007932
C61   C     C_1   0.753299 0.413629 0.963251 0.058498
C62   C     C_1   0.246331 0.414678 0.036463 -0.022941
C63   C     C_1   0.253299 0.913629 0.963251 0.058499
C64   C     C_1   0.746331 0.914678 0.036463 -0.022941
C65   C     C_1   0.741777 0.393382 0.094485 0.043933
C66   C     C_1   0.257889 0.394292 0.905267 0.043131
C67   C     C_1   0.241777 0.893382 0.094485 0.043933
C68   C     C_1   0.757889 0.894292 0.905267 0.043132
C69   C     C_R   0.725101 0.312215 0.367649 0.555816
C70   C     C_R   0.276021 0.307694 0.633154 0.534343
C71   C     C_R   0.225101 0.812215 0.367649 0.555816
C72   C     C_R   0.776021 0.807694 0.633154 0.534343
C73   C     C_R   0.721956 0.952660 0.163772 0.555907
C74   C     C_R   0.277943 0.952435 0.836129 0.544604
C75   C     C_R   0.221956 0.452660 0.163772 0.555907
C76   C     C_R   0.777943 0.452435 0.836129 0.544603
C77   C     C_R   0.563552 0.182379 0.137256 0.559154
C78   C     C_R   0.473370 0.178505 0.856626 0.592356
C79   C     C_R   0.063552 0.682379 0.137256 0.559153
C80   C     C_R   0.973370 0.678505 0.856626 0.592355
C81   C     C_R   0.735688 0.359925 0.164139 0.560046
C82   C     C_R   0.264193 0.360170 0.835729 0.567240
C83   C     C_R   0.235688 0.859925 0.164139 0.560046
C84   C     C_R   0.764193 0.860170 0.835729 0.567241
C85   C     C_1   0.486359 0.171704 0.595130 0.037056
C86   C     C_1   0.514984 0.172570 0.405570 0.016666
C87   C     C_1   0.986359 0.671704 0.595130 0.037056
C88   C     C_1   0.014984 0.672570 0.405570 0.016666
C89   C     C_1   0.505127 0.168927 0.465126 -0.012542
C90   C     C_1   0.496679 0.168450 0.535694 0.002334
C91   C     C_1   0.005127 0.668927 0.465126 -0.012541
C92   C     C_1   0.996679 0.668450 0.535694 0.002334
C93   C     C_3   0.681235 0.372753 0.530443 -0.199899
C94   C     C_3   0.292455 0.482924 0.490160 -0.165614
C95   C     C_3   0.181235 0.872754 0.530443 -0.199899
C96   C     C_3   0.792456 0.982924 0.490160 -0.165614
Cr1   Cr    Cr6+3 0.765830 0.160660 0.268180 1.059221
Cr2   Cr    Cr6+3 0.234170 0.160660 0.731820 1.069973
Cr3   Cr    Cr6+3 0.265830 0.660660 0.268180 1.059221
Cr4   Cr    Cr6+3 0.734170 0.660660 0.731820 1.069974
Cr5   Cr    Cr6+3 0.612110 0.009150 0.248770 1.057834
Cr6   Cr    Cr6+3 0.387890 0.009150 0.751230 1.117558
Cr7   Cr    Cr6+3 0.112110 0.509150 0.248770 1.057833
Cr8   Cr    Cr6+3 0.887890 0.509150 0.751230 1.117559
Cr9   Cr    Cr6+3 0.615930 0.324050 0.248450 1.111236
Cr10  Cr    Cr6+3 0.384070 0.324050 0.751550 1.089609
Cr11  Cr    Cr6+3 0.115930 0.824050 0.248450 1.111237
Cr12  Cr    Cr6+3 0.884070 0.824050 0.751550 1.089609
H1    H     H_    0.691212 0.177178 0.480446 0.117853
H2    H     H_    0.379923 0.337638 0.529340 0.132638
H3    H     H_    0.191211 0.677178 0.480446 0.117853
H4    H     H_    0.879923 0.837637 0.529340 0.132638
H5    H     H_    0.632142 0.368303 0.552932 0.142785
H6    H     H_    0.321952 0.565676 0.480366 0.190178
H7    H     H_    0.132142 0.868304 0.552931 0.142785
H8    H     H_    0.821952 0.065676 0.480366 0.190178
H9    H     H_    0.293997 0.079410 0.523689 0.136519
H10   H     H_    0.632313 0.922899 0.466609 0.160060
H11   H     H_    0.793996 0.579410 0.523689 0.136519
H12   H     H_    0.132313 0.422898 0.466609 0.160060
H13   H     H_    0.852957 0.388097 0.459039 0.165148
H14   H     H_    0.188900 0.200224 0.518711 0.129893
H15   H     H_    0.352957 0.888096 0.459039 0.165148
H16   H     H_    0.688899 0.700224 0.518710 0.129895
H17   H     H_    0.652070 0.166667 0.020606 0.115744
H18   H     H_    0.398404 0.176735 0.970641 0.145010
H19   H     H_    0.152070 0.666667 0.020606 0.115744
H20   H     H_    0.898404 0.676736 0.970641 0.145010
O1    O     O_R   0.783230 0.287800 0.346510 -0.503421
O2    O     O_R   0.216770 0.287800 0.653490 -0.485667
O3    O     O_R   0.283230 0.787800 0.346510 -0.503421
O4    O     O_R   0.716770 0.787800 0.653490 -0.485667
O5    O     O_R   0.554500 0.081650 0.170370 -0.506094
O6    O     O_R   0.445500 0.081650 0.829630 -0.466504
O7    O     O_R   0.054500 0.581650 0.170370 -0.506094
O8    O     O_R   0.945500 0.581650 0.829630 -0.466503
O9    O     O_R   0.545430 0.285140 0.163100 -0.421369
O10   O     O_R   0.454570 0.285140 0.836900 -0.466611
O11   O     O_R   0.045430 0.785140 0.163100 -0.421369
O12   O     O_R   0.954570 0.785140 0.836900 -0.466611
O13   O     O_R   0.677850 0.374730 0.185500 -0.494551
O14   O     O_R   0.322150 0.374730 0.814500 -0.487670
O15   O     O_R   0.177850 0.874730 0.185500 -0.494551
O16   O     O_R   0.822150 0.874730 0.814500 -0.487670
O17   O     O_3   0.664630 0.164620 0.255130 -0.338782
O18   O     O_3   0.335370 0.164620 0.744870 -0.319013
O19   O     O_3   0.164630 0.664620 0.255130 -0.338782
O20   O     O_3   0.835370 0.664620 0.744870 -0.319013
O21   O     O_R   0.760130 0.037060 0.338610 -0.526140
O22   O     O_R   0.239870 0.037060 0.661390 -0.539299
O23   O     O_R   0.260130 0.537060 0.338610 -0.526140
O24   O     O_R   0.739870 0.537060 0.661390 -0.539299
O25   O     O_R   0.666620 0.921370 0.332440 -0.476891
O26   O     O_R   0.333380 0.921370 0.667560 -0.452936
O27   O     O_R   0.166620 0.421370 0.332440 -0.476892
O28   O     O_R   0.833380 0.421370 0.667560 -0.452935
O29   O     O_R   0.557170 0.082420 0.312350 -0.495532
O30   O     O_R   0.442830 0.082420 0.687650 -0.482354
O31   O     O_R   0.057170 0.582420 0.312350 -0.495532
O32   O     O_R   0.942830 0.582420 0.687650 -0.482354
O33   O     O_R   0.548310 0.285980 0.316250 -0.508472
O34   O     O_R   0.451690 0.285980 0.683750 -0.514583
O35   O     O_R   0.048310 0.785980 0.316250 -0.508472
O36   O     O_R   0.951690 0.785980 0.683750 -0.514583
O37   O     O_R   0.680520 0.375500 0.327470 -0.440944
O38   O     O_R   0.319480 0.375500 0.672530 -0.492287
O39   O     O_R   0.180520 0.875500 0.327470 -0.440943
O40   O     O_R   0.819480 0.875500 0.672530 -0.492287
O41   O     O_R   0.780350 0.286970 0.193350 -0.486811
O42   O     O_R   0.219650 0.286970 0.806650 -0.473188
O43   O     O_R   0.280350 0.786970 0.193350 -0.486811
O44   O     O_R   0.719650 0.786970 0.806650 -0.473187
O45   O     O_R   0.757460 0.036290 0.196640 -0.485663
O46   O     O_R   0.242540 0.036290 0.803360 -0.490272
O47   O     O_R   0.257460 0.536290 0.196640 -0.485663
O48   O     O_R   0.742540 0.536290 0.803360 -0.490272
O49   O     O_R   0.663740 0.920540 0.179290 -0.512434
O50   O     O_R   0.336260 0.920540 0.820710 -0.489406
O51   O     O_R   0.163740 0.420540 0.179290 -0.512434
O52   O     O_R   0.836260 0.420540 0.820710 -0.489406
C97   C     C_2   0.643757 0.537853 0.432322 0.265764
H21   H     H_    0.591691 0.538561 0.445557 0.089747
O53   O     O_2   0.658000 0.602637 0.385447 -0.413737
C98   C     C_2   0.213797 0.550922 0.592167 0.296434
H22   H     H_    0.251509 0.590554 0.631865 0.185711
O54   O     O_2   0.152628 0.572659 0.592382 -0.524213
C99   C     C_2   0.143758 0.037854 0.432322 0.265765
H23   H     H_    0.091692 0.038566 0.445559 0.089744
O55   O     O_2   0.158000 0.102635 0.385445 -0.413735
C100  C     C_2   0.713797 0.050922 0.592167 0.296434
H24   H     H_    0.751509 0.090554 0.631865 0.185711
O56   O     O_2   0.652628 0.072659 0.592382 -0.524212
F1    F     F_    0.833727 0.220971 0.574177 -0.646047
F2    F     F_    0.295022 0.206153 0.411871 -0.595349
F3    F     F_    0.333726 0.720971 0.574177 -0.646047
F4    F     F_    0.795022 0.706153 0.411871 -0.595348
F5    F     F_    0.577287 0.368794 0.936806 -0.588656
F6    F     F_    0.476204 0.379070 0.046371 -0.563449
F7    F     F_    0.077288 0.868794 0.936806 -0.588657
F8    F     F_    0.976205 0.879070 0.046371 -0.563448
C101  C     C_2   0.470565 0.963443 0.054123 0.293615
H25   H     H_    0.505444 0.895571 0.079959 0.130798
O57   O     O_2   0.408384 0.949017 0.050207 -0.499914
C102  C     C_2   0.575752 0.955083 0.939839 0.254979
H26   H     H_    0.600225 0.886409 0.975033 0.109799
O58   O     O_2   0.570397 0.938309 0.877359 -0.458848
C103  C     C_2   0.970564 0.463444 0.054123 0.293615
H27   H     H_    0.005443 0.395572 0.079959 0.130798
O59   O     O_2   0.908384 0.449018 0.050207 -0.499914
C104  C     C_2   0.075752 0.455083 0.939840 0.254979
H28   H     H_    0.100225 0.386410 0.975034 0.109800
O60   O     O_2   0.070395 0.438307 0.877359 -0.458847

loop_
_geom_bond_atom_site_label_1
_geom_bond_atom_site_label_2
_ccdc_geom_bond_type
C58   C62   S    
C79   O11   A    
C82   O42   A    
C67   C83   S    
C100  H24   S    
Cr4   O44   S    
C17   C29   S    
C101  H25   S    
C14   C18   S    
C19   C23   S    
C35   C36   S    
C8    C96   S    
C24   H16   S    
C82   O14   A    
C44   C80   S    
C19   C31   S    
C14   C98   S    
Cr6   O30   S    
C20   H10   S    
C94   H6    S    
C7    C27   S    
C38   C49   S    
C47   O31   A    
C97   H21   S    
Cr4   O24   S    
C15   C19   S    
Cr12  O36   S    
C69   O37   A    
Cr5   O17   S    
C35   F7    S    
C77   O5    A    
C2    O22   A    
C37   C41   S    
C33   C42   S    
Cr10  O38   S    
C77   O9    A    
C74   O46   A    
C8    H4    S    
C15   C95   S    
Cr2   O46   S    
C11   C71   S    
Cr10  O10   S    
Cr3   O43   S    
C83   O43   A    
C84   O16   A    
C43   C79   S    
C46   O30   A    
C70   O2    A    
Cr1   O41   S    
C98   H22   S    
C49   C50   S    
Cr8   O20   S    
C36   C40   S    
C9    C13   S    
C59   C67   T    
C43   C51   S    
C55   C74   S    
C11   C15   S    
C58   C66   T    
C12   C16   S    
C95   H7    S    
C6    C94   S    
C55   C63   T    
Cr4   O48   S    
C56   C64   T    
Cr10  O14   S    
C18   C30   S    
C81   O41   A    
C3    O23   A    
C75   O51   A    
Cr6   O26   S    
C4    C29   S    
C16   C20   S    
C46   C85   S    
C47   O35   A    
C44   C52   S    
C81   O13   A    
C39   C52   S    
Cr12  O40   S    
C51   C103  S    
Cr5   O29   S    
C2    O26   A    
C49   C101  S    
C34   C38   S    
C87   C92   T    
C21   H13   S    
C72   O40   A    
Cr1   O21   S    
C102  O58   D    
C34   C41   S    
C53   C61   T    
C101  O57   D    
Cr8   O32   S    
C78   O10   A    
C45   O33   A    
C41   C49   S    
C96   H8    S    
C38   H18   S    
C20   C32   S    
C22   H14   S    
C37   H17   S    
C23   C27   S    
C97   O53   D    
C25   C29   S    
C4    O24   A    
Cr11  O39   S    
C16   C96   S    
C39   H19   S    
C52   C104  S    
Cr7   O19   S    
C51   C52   S    
C68   C84   S    
C20   C24   S    
C28   C32   S    
C76   O48   A    
C45   O29   A    
C36   F8    S    
C21   C25   S    
C10   C14   S    
C57   C65   T    
C91   C92   S    
Cr12  O12   S    
C29   C93   S    
C23   H15   S    
Cr2   O18   S    
C76   O52   A    
Cr5   O25   S    
C80   O12   A    
C27   C31   S    
Cr3   O3    S    
C1    C32   S    
C10   C22   S    
C103  H27   S    
C13   C93   S    
C2    C31   S    
C6    H2    S    
C3    C30   S    
C35   C39   S    
C17   C21   S    
Cr6   O6    S    
C5    C9    S    
C66   C82   S    
Cr11  O19   S    
C34   F6    S    
C65   C81   S    
C74   O50   A    
C88   C91   T    
C33   F5    S    
C8    C12   S    
Cr9   O17   S    
Cr2   O2    S    
C3    O27   A    
C33   C34   S    
C36   C43   S    
C48   C87   S    
C93   H5    S    
Cr8   O28   S    
C1    O25   A    
C35   C44   S    
C78   O6    A    
C19   H9    S    
C16   C100  S    
C42   C50   S    
C5    C25   S    
C10   C70   S    
Cr7   O27   S    
C4    O28   A    
Cr11  O35   S    
C42   C78   S    
C13   C97   S    
C22   C26   S    
Cr6   O50   S    
Cr9   O33   S    
C59   C63   S    
C53   C76   S    
C27   F3    S    
C9    C21   S    
Cr11  O15   S    
C26   F2    S    
C18   H12   S    
Cr12  O16   S    
C25   F1    S    
C7    C95   S    
Cr2   O22   S    
C75   O47   A    
Cr3   O19   S    
C100  O56   D    
C56   C73   S    
Cr8   O8    S    
C32   C96   S    
C18   C22   S    
Cr1   O17   S    
Cr3   O23   S    
Cr8   O52   S    
C24   C28   S    
C9    C69   S    
C1    O21   A    
C84   O44   A    
C86   C89   T    
Cr10  O18   S    
C6    C10   S    
C5    C93   S    
C85   C90   T    
Cr4   O4    S    
C57   C61   S    
C48   O36   A    
Cr5   O5    S    
C50   C102  S    
C40   C51   S    
C79   O7    A    
C12   C24   S    
C104  O60   D    
C80   O8    A    
C13   C17   S    
Cr7   O7    S    
C60   C64   S    
C47   C88   S    
C48   O32   A    
Cr9   O9    S    
C70   O38   A    
C45   C86   S    
C73   O49   A    
C99   H23   S    
C30   C94   S    
Cr6   O18   S    
C72   O4    A    
C41   C77   S    
C37   C50   S    
Cr7   O31   S    
C6    C26   S    
C5    H1    S    
Cr4   O20   S    
C8    C28   S    
C11   C23   S    
C28   F4    S    
C7    H3    S    
C98   O54   D    
Cr7   O51   S    
Cr10  O34   S    
C73   O45   A    
C12   C72   S    
Cr9   O13   S    
C33   C37   S    
C99   O55   D    
Cr1   O45   S    
Cr5   O49   S    
C31   C95   S    
C17   H11   S    
Cr1   O1    S    
C54   C75   S    
Cr2   O42   S    
C38   C42   S    
C40   C44   S    
Cr3   O47   S    
C102  H26   S    
C60   C68   T    
C71   O3    A    
C69   O1    A    
C104  H28   S    
C46   O34   A    
C39   C43   S    
C103  O59   D    
Cr9   O37   S    
C54   C62   T    
C83   O15   A    
C71   O39   A    
C89   C90   S    
C14   C94   S    
Cr11  O11   S    
C15   C99   S    
C7    C11   S    
Cr12  O20   S    
C26   C30   S    
C40   H20   S    
