data_mof_unit_67725.cif
_audit_creation_date              2012-10-26T19:56:19-0400
_audit_creation_method            fapswitch 2.2
_symmetry_space_group_name_H-M    P1
_symmetry_Int_Tables_number       1
_space_group_crystal_system       triclinic
_cell_length_a                    11.056113
_cell_length_b                    10.659348
_cell_length_c                    9.503273
_cell_angle_alpha                 88.591782
_cell_angle_beta                  92.435499
_cell_angle_gamma                 92.923139
_cell_volume                      1117.22034474

loop_
_atom_site_label
_atom_site_type_symbol
_atom_type_description
_atom_site_fract_x
_atom_site_fract_y
_atom_site_fract_z
_atom_type_partial_charge
C1    C     C_R   0.494830 0.259843 0.501200 0.549602
C2    C     C_3   0.399953 0.029951 0.568349 0.287025
C3    C     C_3   0.500423 0.877716 0.497718 0.020335
C4    C     C_3   0.492076 0.123188 0.503490 -0.000702
C5    C     C_3   0.503602 0.954300 0.634088 -0.106622
C6    C     C_3   0.487320 0.046552 0.367259 -0.136551
C7    C     C_3   0.464026 0.604656 0.045261 0.036961
C8    C     C_3   0.536674 0.395225 0.954704 -0.046225
C9    C     C_3   0.392859 0.514857 0.943554 0.038099
C10   C     C_3   0.607129 0.484302 0.056989 -0.012197
C11   C     C_3   0.571336 0.589218 0.950643 -0.000914
C12   C     C_R   0.502238 0.740539 0.498884 0.574090
C13   C     C_3   0.429942 0.409890 0.049718 0.032189
C14   C     C_R   0.262167 0.497419 0.496941 0.534096
C15   C     C_R   0.737687 0.503020 0.502205 0.555730
C16   C     C_R   0.157718 0.304497 0.052489 -0.048275
C17   C     C_R   0.874768 0.558544 0.984476 -0.126731
C18   C     C_R   0.141871 0.395059 0.154633 0.278056
C19   C     C_R   0.896668 0.516481 0.850866 0.275119
C20   C     C_R   0.090723 0.354545 0.283118 0.041540
C21   C     C_R   0.902625 0.604175 0.738692 0.054993
C22   C     C_R   0.053820 0.227712 0.303270 -0.202514
C23   C     C_R   0.871937 0.505839 0.502815 0.031234
C24   C     C_R   0.881089 0.730866 0.758574 -0.158697
C25   C     C_R   0.078995 0.138791 0.205968 -0.141957
C26   C     C_R   0.857620 0.771370 0.892801 -0.121632
C27   C     C_R   0.133457 0.176704 0.082267 0.062246
C28   C     C_R   0.855660 0.685029 0.005845 0.035187
C29   C     C_R   0.925147 0.448431 0.392550 -0.151350
C30   C     C_R   0.074514 0.564063 0.598300 -0.123596
C31   C     C_3   0.126563 0.610520 0.123165 -0.010259
C32   C     C_3   0.188123 0.731238 0.178806 -0.350848
C33   C     C_3   0.831947 0.309410 0.854753 -0.013675
C34   C     C_R   0.128146 0.501740 0.490946 0.004720
C35   C     C_3   0.866550 0.177830 0.820498 -0.377083
C36   C     C_3   0.766861 0.047443 0.325555 0.017806
C37   C     C_3   0.747274 0.086665 0.171328 -0.372329
C38   C     C_3   0.199071 0.083981 0.564368 0.014061
C39   C     C_3   0.112900 0.967184 0.567191 -0.376751
C40   C     C_R   0.948342 0.563742 0.606811 0.023101
C41   C     C_R   0.051048 0.441831 0.387220 -0.016609
C42   C     C_3   0.597144 0.049085 0.568276 -0.173052
C43   C     C_3   0.394257 0.951001 0.433943 -0.174914
C44   C     C_3   0.591628 0.972608 0.432925 0.289590
Cu1   Cu    Cu3+1 0.500030 0.499990 0.643150 0.944284
Cu2   Cu    Cu3+1 0.499970 0.500010 0.356850 0.993866
H1    H     H_    0.302640 0.530323 0.892341 0.135578
H2    H     H_    0.886692 0.798279 0.671650 0.131112
H3    H     H_    0.057701 0.040190 0.227659 0.144005
H4    H     H_    0.843615 0.869556 0.909386 0.137828
H5    H     H_    0.867528 0.400542 0.313313 0.116807
H6    H     H_    0.131181 0.608231 0.680994 0.126204
H7    H     H_    0.679819 0.090876 0.621984 0.094496
H8    H     H_    0.312894 0.910096 0.376625 0.101603
H9    H     H_    0.508366 0.915399 0.743563 0.142465
H10   H     H_    0.478166 0.085334 0.258191 0.137232
H11   H     H_    0.043137 0.594906 0.181586 0.166029
H12   H     H_    0.691890 0.460167 0.113608 0.121207
H13   H     H_    0.105557 0.624745 0.008880 0.157211
H14   H     H_    0.258372 0.767574 0.106823 0.156319
H15   H     H_    0.120431 0.804115 0.184983 0.144689
H16   H     H_    0.229142 0.714747 0.285734 0.168914
H17   H     H_    0.752722 0.332268 0.784834 0.167755
H18   H     H_    0.805581 0.309167 0.966125 0.104477
H19   H     H_    0.944859 0.150755 0.888644 0.197439
H20   H     H_    0.789492 0.109708 0.840249 0.082478
H21   H     H_    0.890617 0.174067 0.708388 0.148640
H22   H     H_    0.862099 0.021323 0.341894 0.157596
H23   H     H_    0.440528 0.695667 0.087368 0.124145
H24   H     H_    0.756822 0.130188 0.392632 0.099393
H25   H     H_    0.659058 0.130542 0.153398 0.127312
H26   H     H_    0.820095 0.156651 0.142595 0.102724
H27   H     H_    0.750392 0.004650 0.102214 0.187802
H28   H     H_    0.219760 0.112019 0.454214 0.125161
H29   H     H_    0.152121 0.163191 0.607918 0.171994
H30   H     H_    0.159306 0.882520 0.537453 0.151202
H31   H     H_    0.078039 0.950898 0.674067 0.185854
H32   H     H_    0.034609 0.980229 0.492626 0.088058
H33   H     H_    0.565636 0.305522 0.913397 0.102345
H34   H     H_    0.625800 0.668019 0.903306 0.133309
H35   H     H_    0.383497 0.326613 0.098576 0.128135
H36   H     H_    0.198770 0.331800 0.954465 0.144709
H37   H     H_    0.881495 0.493965 0.073396 0.103305
H38   H     H_    0.007878 0.197400 0.397519 0.095585
I1    I     I_    0.192024 0.037369 0.952966 -0.489333
I2    I     I_    0.830320 0.742881 0.210485 -0.449808
N1    N     N_3   0.500090 0.499970 0.858290 -0.253860
N2    N     N_3   0.499910 0.500030 0.141710 -0.222330
O1    O     O_R   0.500060 0.316850 0.620870 -0.488888
O2    O     O_3   0.931322 0.394937 0.832553 -0.565262
O3    O     O_3   0.692426 0.939676 0.359522 -0.514253
O4    O     O_3   0.303982 0.064385 0.650005 -0.510429
O5    O     O_R   0.499940 0.683150 0.379130 -0.471855
O6    O     O_R   0.500000 0.316860 0.379090 -0.528458
O7    O     O_R   0.500000 0.683140 0.620910 -0.519374
O8    O     O_R   0.319670 0.500010 0.620890 -0.517441
O9    O     O_R   0.680330 0.499990 0.379110 -0.492180
O10   O     O_R   0.319620 0.500010 0.379110 -0.450489
O11   O     O_R   0.680380 0.499990 0.620890 -0.517432
O12   O     O_3   0.204430 0.510791 0.141715 -0.570174

loop_
_geom_bond_atom_site_label_1
_geom_bond_atom_site_label_2
_ccdc_geom_bond_type
C5    C42   S    
C8    C13   S    
C13   H35   S    
C20   C41   S    
Cu1   Cu2   S    
C7    C11   S    
Cu2   O5    S    
C10   N2    S    
C18   O12   S    
C39   H31   S    
C36   C37   S    
Cu1   N1    S    
C24   C26   A    
C32   H15   S    
C26   H4    S    
C42   H7    S    
C38   H28   S    
C38   C39   S    
C35   H19   S    
C23   C40   A    
C38   O4    S    
C31   H13   S    
C27   I1    S    
C9    C13   S    
C30   H6    S    
C3    C12   S    
C33   C35   S    
C7    N2    S    
C11   N1    S    
C1    O6    A    
C22   C25   A    
C8    H33   S    
C12   O7    A    
Cu1   O1    S    
C29   C41   A    
C16   C27   A    
C15   C23   S    
Cu2   O10   S    
C6    C44   S    
C34   C41   A    
C42   C44   S    
C15   O9    A    
C14   O8    A    
C36   H24   S    
C14   O10   A    
Cu2   N2    S    
C38   H29   S    
C3    C44   S    
C30   C34   A    
C24   H2    S    
C39   H32   S    
C4    C6    S    
Cu1   O11   S    
C6    H10   S    
C35   H20   S    
C31   O12   S    
C17   H37   S    
C22   H38   S    
C2    C4    S    
C14   C34   S    
C43   H8    S    
C31   C32   S    
Cu2   O6    S    
C35   H21   S    
C2    C43   S    
C33   H17   S    
C3    C43   S    
C16   H36   S    
C30   C40   A    
C39   H30   S    
C2    O4    S    
C44   O3    S    
C36   O3    S    
C16   C18   A    
Cu2   O9    S    
C20   C22   A    
C9    H1    S    
C6    C43   S    
C37   H25   S    
C28   I2    S    
C12   O5    A    
C37   H26   S    
C2    C5    S    
C32   H14   S    
Cu1   O7    S    
C23   C29   A    
C29   H5    S    
C7    C9    S    
C37   H27   S    
C1    O1    A    
C10   H12   S    
C17   C28   A    
C5    H9    S    
C15   O11   A    
C3    C5    S    
C7    H23   S    
C36   H22   S    
C11   H34   S    
C25   C27   A    
C26   C28   A    
C8    N1    S    
C1    C4    S    
C32   H16   S    
C19   O2    S    
C33   O2    S    
C9    N1    S    
C31   H11   S    
C21   C40   S    
C4    C42   S    
C33   H18   S    
C13   N2    S    
C17   C19   A    
C18   C20   A    
C25   H3    S    
C10   C11   S    
C8    C10   S    
C21   C24   A    
Cu1   O8    S    
C19   C21   A    
