data_mof_unit_36873.cif
_audit_creation_date              2013-03-05T15:54:38-0500
_audit_creation_method            fapswitch 2.2
_symmetry_space_group_name_H-M    P1
_symmetry_Int_Tables_number       1
_space_group_crystal_system       triclinic
_cell_length_a                    9.891797
_cell_length_b                    10.7188
_cell_length_c                    16.846992
_cell_angle_alpha                 91.887619
_cell_angle_beta                  84.446843
_cell_angle_gamma                 89.541998
_cell_volume                      1776.7959622

loop_
_atom_site_label
_atom_site_type_symbol
_atom_site_description
_atom_site_fract_x
_atom_site_fract_y
_atom_site_fract_z
_atom_type_partial_charge
O1    O     O_R   0.385310 0.683220 0.500000 -0.652273
O2    O     O_R   0.614640 0.683250 0.500010 -0.643937
C1    C     C_R   0.499300 0.740140 0.495155 0.865305
O3    O     O_R   0.371780 0.500010 0.615800 -0.644710
O4    O     O_R   0.601110 0.500030 0.615800 -0.638377
C2    C     C_R   0.480223 0.501932 0.652914 0.890674
Zn1   Zn    Zn3+2 0.346870 0.499980 0.499990 0.930559
Zn2   Zn    Zn3+2 0.653130 0.500020 0.500010 0.992194
O5    O     O_R   0.385360 0.316750 0.499990 -0.629757
O6    O     O_R   0.614690 0.316780 0.500000 -0.584011
O7    O     O_R   0.398890 0.499970 0.384200 -0.623907
O8    O     O_R   0.628220 0.499990 0.384200 -0.566714
C3    C     C_R   0.498210 0.261333 0.508916 0.901973
C4    C     C_R   0.519545 0.493839 0.347133 0.892414
C5    C     C_R   0.465955 0.503920 0.739277 -0.152314
C6    C     C_R   0.570975 0.550866 0.780670 -0.268761
C7    C     C_R   0.563023 0.546696 0.863123 0.431674
C8    C     C_R   0.450217 0.488051 0.903997 -0.115288
C9    C     C_R   0.339835 0.447006 0.862863 0.305793
C10   C     C_R   0.348668 0.457203 0.780316 -0.263406
C11   C     C_R   0.432578 0.366637 0.150264 -0.135515
C12   C     C_R   0.423309 0.400341 0.230451 -0.181931
C13   C     C_R   0.653019 0.480990 0.214407 -0.126858
C14   C     C_R   0.662164 0.447080 0.133659 -0.059843
C15   C     C_R   0.549956 0.394301 0.101337 0.128785
C16   C     C_2   0.448562 0.467644 0.988690 -0.050218
C17   C     C_2   0.543650 0.395776 0.015927 -0.131481
C18   C     C_R   0.531884 0.461035 0.262470 -0.048194
H1    H     H_    0.659217 0.591258 0.748547 0.181918
H2    H     H_    0.330388 0.380272 0.267079 0.172767
H3    H     H_    0.738205 0.526432 0.238551 0.185265
H4    H     H_    0.625258 0.353511 0.975908 0.196109
H5    H     H_    0.345433 0.325904 0.125299 0.188648
H6    H     H_    0.266890 0.422335 0.747640 0.199118
H7    H     H_    0.368513 0.512269 0.028887 0.180282
H8    H     H_    0.752499 0.470083 0.095585 0.198634
H9    H     H_    0.713428 0.887412 0.499166 0.175928
C19   C     C_R   0.245980 0.890328 0.474562 -0.161187
H10   H     H_    0.242532 0.805058 0.438930 0.176987
C20   C     C_R   0.122392 0.951931 0.495807 -0.106933
H11   H     H_    0.028433 0.910407 0.480614 0.154169
C21   C     C_R   0.119849 0.065101 0.538516 -0.110978
H12   H     H_    0.023825 0.110554 0.558410 0.157803
C22   C     C_R   0.241612 0.122176 0.552784 -0.153663
H13   H     H_    0.235633 0.209902 0.586632 0.165057
C23   C     C_R   0.368033 0.065489 0.524613 0.098747
C24   C     C_R   0.369592 0.941240 0.496791 0.094915
C25   C     C_R   0.494982 0.874289 0.493231 -0.117352
C26   C     C_R   0.616758 0.936446 0.501844 -0.201973
H14   H     H_    0.712638 0.110101 0.514400 0.207774
C27   C     C_R   0.616288 0.063381 0.513026 -0.160403
C28   C     C_R   0.493365 0.129026 0.520666 -0.144548
C29   C     C_R   0.842262 0.668762 0.602224 -0.145031
H15   H     H_    0.734403 0.673812 0.607026 0.202793
C30   C     C_R   0.904191 0.751792 0.652163 -0.219564
H16   H     H_    0.843006 0.817022 0.691131 0.183466
C31   C     C_R   0.043935 0.749904 0.653025 -0.164997
H17   H     H_    0.091778 0.813670 0.692618 0.171789
C32   C     C_R   0.122635 0.665807 0.603319 -0.127477
H18   H     H_    0.229062 0.668351 0.608165 0.206183
C33   C     C_R   0.063581 0.582622 0.550463 0.135219
C34   C     C_R   0.918914 0.583294 0.550161 0.103792
N1    N     N_R   0.857140 0.501200 0.500750 -0.180428
C35   C     C_R   0.937823 0.418258 0.453076 0.336918
H19   H     H_    0.142755 0.353289 0.415021 0.183459
C36   C     C_R   0.080942 0.419018 0.453231 -0.181877
N2    N     N_R   0.142740 0.501280 0.500770 -0.148209
N3    N     N_R   0.878827 0.328510 0.402817 0.229486
O9    O     O_R   0.895592 0.210558 0.415254 -0.433086
O10   O     O_R   0.850288 0.360987 0.332676 -0.385831
N4    N     N_R   0.220679 0.391690 0.902932 0.221066
O11   O     O_R   0.230000 0.319360 0.962749 -0.380007
O12   O     O_R   0.104009 0.402056 0.873903 -0.340153
S1    S     S_3+6 0.694534 0.618518 0.912302 0.039237
O13   O     O_2   0.638495 0.676840 0.991131 -0.254477
O14   O     O_2   0.799913 0.522085 0.926544 -0.290802
O15   O     O_3   0.768182 0.730498 0.855781 -0.529801
H20   H     H_    0.847638 0.689422 0.824965 0.369375

loop_
_geom_bond_atom_site_label_1
_geom_bond_atom_site_label_2
_geom_bond_distance
_ccdc_geom_bond_type
C30   H16   1.082693 S    
C9    N4    1.442236 S    
C9    C10   1.392915 A    
C8    C16   1.449145 S    
O15   H20   0.990735 S    
Zn1   O7    1.968699 S    
C16   C17   1.335638 D    
C14   H8    1.083384 S    
S1    O14   1.503349 D    
C35   N3    1.426132 S    
O4    C2    1.294354 A    
O7    C4    1.292486 A    
C31   C32   1.390222 A    
C11   H5    1.083840 S    
C5    C6    1.394330 A    
C23   C28   1.416254 A    
C1    C25   1.439731 S    
C8    C9    1.414214 A    
O5    C3    1.284263 A    
C2    C5    1.447557 S    
N3    O9    1.300261 A    
C26   C27   1.367316 A    
S1    O15   1.683197 S    
C13   C14   1.390657 A    
C10   H6    1.083770 S    
C20   C21   1.388645 A    
C36   N2    1.359939 A    
C32   H18   1.064257 S    
C12   C18   1.402815 A    
C11   C12   1.381011 A    
C21   C22   1.393163 A    
O3    Zn1   1.990054 S    
C22   C23   1.418541 A    
H14   C27   1.082037 S    
C29   C30   1.390797 A    
C5    C10   1.397009 A    
C32   C33   1.409207 A    
S1    O13   1.503014 D    
C27   C28   1.392920 A    
C14   C15   1.398307 A    
O3    C2    1.292812 A    
N4    O12   1.301605 A    
C6    C7    1.385905 A    
C6    H1    1.082721 S    
C29   H15   1.062955 S    
O1    C1    1.283271 A    
C13   H3    1.082862 S    
C34   N1    1.378199 A    
C3    C28   1.438896 S    
H9    C26   1.083843 S    
C29   C34   1.410920 A    
C33   N2    1.374157 A    
C24   C25   1.423222 A    
Zn2   O8    1.990054 S    
C7    C8    1.416150 A    
C13   C18   1.401756 A    
C19   C24   1.420901 A    
Zn2   O6    2.003560 S    
C25   C26   1.398662 A    
O8    C4    1.295469 A    
C30   C31   1.383798 A    
C7    S1    1.775950 S    
C21   H12   1.082651 S    
C22   H13   1.081721 S    
Zn1   O5    1.997581 S    
C11   C15   1.397079 A    
C23   C24   1.396698 A    
C20   H11   1.082861 S    
C12   H2    1.083523 S    
C17   H4    1.086343 S    
O1    Zn1   2.003560 S    
O2    Zn2   1.997578 S    
O6    C3    1.298719 A    
O4    Zn2   1.968699 S    
C15   C17   1.446873 S    
O2    C1    1.300176 A    
N4    O11   1.301320 A    
C19   C20   1.394806 A    
C31   H17   1.082716 S    
C19   H10   1.079449 S    
C33   C34   1.431486 A    
Zn2   N1    2.019407 S    
Zn1   N2    2.017917 S    
N1    C35   1.374772 A    
C16   H7    1.087758 S    
N3    O10   1.298967 A    
H19   C36   1.082441 S    
C4    C18   1.451035 S    
C35   C36   1.416049 A    
