data_mof_unit_36283.cif
_audit_creation_date              2012-12-11T16:33:27-0500
_audit_creation_method            fapswitch 2.2
_symmetry_space_group_name_H-M    P1
_symmetry_Int_Tables_number       1
_space_group_crystal_system       triclinic
_cell_length_a                    6.951214
_cell_length_b                    18.19349
_cell_length_c                    20.294187
_cell_angle_alpha                 68.544566
_cell_angle_beta                  90.752144
_cell_angle_gamma                 90.458029
_cell_volume                      2388.46659189

loop_
_atom_site_label
_atom_site_type_symbol
_atom_type_description
_atom_site_fract_x
_atom_site_fract_y
_atom_site_fract_z
_atom_type_partial_charge
O1    O     O_R   0.488960 0.443750 0.941980 -0.518042
O2    O     O_R   0.823890 0.406510 0.087590 -0.540634
O3    O     O_R   0.999680 0.556250 0.058020 -0.517383
C1    C     C_R   0.654039 0.381567 0.113843 0.699059
O4    O     O_R   0.818360 0.434410 0.944340 -0.530492
O5    O     O_R   0.994110 0.584350 0.913750 -0.535313
C2    C     C_R   0.649573 0.420764 0.923670 0.727258
O6    O     O_R   0.494530 0.415650 0.086250 -0.536159
O7    O     O_3   0.662590 0.549160 0.990130 -0.347688
V1    V     V_3+5 0.935320 0.490880 0.001830 1.551031
O8    O     O_R   0.324180 0.593490 0.912410 -0.540276
C3    C     C_R   0.152738 0.619720 0.886941 0.696138
O9    O     O_R   0.329720 0.565590 0.055660 -0.529850
C4    C     C_R   0.162379 0.579477 0.076148 0.724186
V2    V     V_3+5 0.435990 0.509120 0.998170 1.548561
O10   O     O_3   0.158850 0.450840 0.009870 -0.349477
C5    C     C_3   0.028363 0.710126 0.305743 -0.057482
C6    C     C_3   0.216946 0.682207 0.283332 0.165657
C7    C     C_1   0.157465 0.625635 0.120969 -0.128817
C8    C     C_1   0.108988 0.874985 0.378183 -0.140972
C9    C     C_3   0.960244 0.739169 0.227843 0.189781
C10   C     C_3   0.147251 0.710096 0.205570 0.006558
C11   C     C_3   0.048183 0.822217 0.213443 -0.178549
C12   C     C_3   0.120108 0.792299 0.292010 -0.013684
C13   C     C_3   0.238513 0.792237 0.192198 -0.085506
C14   C     C_3   0.307943 0.763543 0.269936 0.167707
C15   C     C_1   0.153990 0.663902 0.158883 0.005312
C16   C     C_1   0.112976 0.837584 0.339496 0.013823
H1    H     H_    0.975765 0.879144 0.184057 0.161077
H2    H     H_    0.225032 0.531544 0.680348 0.136353
C17   C     C_R   0.036145 0.781917 0.876473 -0.159489
C18   C     C_R   0.042311 0.858682 0.877495 -0.101264
C19   C     C_R   0.081726 0.923066 0.816154 0.248462
C20   C     C_R   0.123099 0.910943 0.753245 0.129848
C21   C     C_R   0.116231 0.832762 0.750629 -0.014814
C22   C     C_R   0.094960 0.766300 0.815523 0.003399
C23   C     C_R   0.127160 0.819067 0.685818 -0.133307
C24   C     C_R   0.152364 0.741334 0.686821 0.061153
C25   C     C_R   0.156720 0.674738 0.752113 0.027489
C26   C     C_R   0.133306 0.687601 0.817356 -0.157054
C27   C     C_R   0.176978 0.729582 0.622093 -0.178480
C28   C     C_R   0.206227 0.655025 0.620341 -0.000615
C29   C     C_R   0.206471 0.589754 0.682742 -0.150004
C30   C     C_R   0.179099 0.597771 0.747949 -0.066633
H3    H     H_    0.176157 0.778464 0.571682 0.098970
H4    H     H_    0.663615 0.369250 0.425770 0.136316
C31   C     C_R   0.633598 0.092156 0.248015 -0.069149
C32   C     C_R   0.646764 0.082293 0.182719 0.165284
C33   C     C_R   0.611705 0.146166 0.120062 -0.077372
C34   C     C_R   0.572366 0.220350 0.122687 -0.138368
C35   C     C_R   0.611728 0.236035 0.185519 0.033746
C36   C     C_R   0.623295 0.170186 0.251119 -0.047209
C37   C     C_R   0.637592 0.314917 0.183745 -0.154338
C38   C     C_R   0.646328 0.329744 0.248435 -0.010722
C39   C     C_R   0.634886 0.264104 0.315011 0.076595
C40   C     C_R   0.621579 0.184645 0.316086 -0.170676
C41   C     C_R   0.662238 0.408362 0.249995 -0.057096
C42   C     C_R   0.669521 0.420229 0.313825 -0.158570
C43   C     C_R   0.658685 0.357754 0.377001 -0.156205
C44   C     C_R   0.640739 0.280742 0.379058 0.181608
H5    H     H_    0.681921 0.479273 0.315004 0.135628
O11   O     O_R   0.770540 0.084530 0.414050 -0.531906
O12   O     O_R   0.445710 0.065660 0.555720 -0.535984
O13   O     O_R   0.270420 0.915650 0.586190 -0.546089
C45   C     C_R   0.614573 0.077420 0.578180 0.746539
O14   O     O_R   0.441140 0.093540 0.412470 -0.532918
O15   O     O_R   0.265820 0.943740 0.441930 -0.528045
C46   C     C_R   0.609876 0.116633 0.384983 0.799912
O16   O     O_R   0.775150 0.056440 0.558310 -0.541366
O17   O     O_3   0.602370 0.950960 0.510050 -0.359179
V3    V     V_3+5 0.329450 0.009140 0.498150 1.452349
O18   O     O_R   0.935790 0.934280 0.444060 -0.524859
C47   C     C_R   0.103459 0.920325 0.423766 0.726094
O19   O     O_R   0.940370 0.906390 0.587310 -0.541720
C48   C     C_R   0.110402 0.885308 0.615947 0.683009
V4    V     V_3+5 0.828810 0.990710 0.501460 1.470075
O20   O     O_3   0.105780 0.049100 0.489960 -0.373988
C49   C     C_3   0.703371 0.323833 0.713670 -0.059444
C50   C     C_3   0.518391 0.286579 0.694453 -0.221498
H6    H     H_    0.416421 0.316189 0.650280 0.153421
C51   C     C_1   0.623807 0.123486 0.623089 -0.189405
C52   C     C_1   0.643530 0.375225 0.878413 -0.122399
C53   C     C_3   0.814985 0.247037 0.725163 0.155516
C54   C     C_3   0.633344 0.209239 0.706587 0.040241
C55   C     C_3   0.762589 0.214838 0.804407 -0.070299
C56   C     C_3   0.649353 0.291737 0.793085 -0.041432
C57   C     C_3   0.579903 0.177965 0.785554 0.158733
C58   C     C_3   0.468333 0.253981 0.774273 0.214452
C59   C     C_1   0.628531 0.162223 0.660607 -0.011182
C60   C     C_1   0.646086 0.337468 0.840126 -0.010928
N1    N     N_3   0.310303 0.606883 0.321290 -0.645209
H7    H     H_    0.350660 0.606424 0.371209 0.264935
H8    H     H_    0.437271 0.605818 0.294657 0.243432
N2    N     N_3   0.071663 0.001474 0.818297 -0.641795
H9    H     H_    0.930723 0.010231 0.831248 0.241818
H10   H     H_    0.093877 0.045421 0.768839 0.246586
N3    N     N_3   0.194117 0.978265 0.696130 -0.689239
H11   H     H_    0.092824 0.998878 0.655160 0.237009
H12   H     H_    0.328284 0.965641 0.680427 0.247787
C61   C     C_1   0.234036 0.645472 0.553669 0.340859
N4    N     N_1   0.256573 0.637925 0.500103 -0.351076
C62   C     C_1   0.164522 0.523466 0.806785 0.262690
N5    N     N_1   0.152436 0.462906 0.852680 -0.309439
C63   C     C_1   0.622778 0.019007 0.308664 0.311601
N6    N     N_1   0.611851 0.959347 0.355714 -0.318849
N7    N     N_3   0.680230 0.004947 0.181176 -0.670113
H13   H     H_    0.800233 0.007963 0.149760 0.243056
H14   H     H_    0.560681 0.988319 0.157985 0.247070
C64   C     C_1   0.597984 0.133574 0.053527 0.330074
N8    N     N_1   0.586364 0.123537 0.000511 -0.335077
C65   C     C_1   0.440430 0.268785 0.068999 0.273779
N9    N     N_1   0.329593 0.304141 0.026493 -0.300403
C66   C     C_1   0.910786 0.664336 0.366668 0.388752
N10   N     N_1   0.817904 0.628228 0.414663 -0.330725
C67   C     C_1   0.666731 0.481268 0.189292 0.255128
N11   N     N_1   0.669983 0.540999 0.142097 -0.306297
N12   N     N_3   0.629806 0.220485 0.447802 -0.678593
H15   H     H_    0.754082 0.223788 0.476247 0.219625
H16   H     H_    0.511086 0.232100 0.473587 0.221571
C68   C     C_1   0.775403 0.403693 0.674037 0.340864
N13   N     N_1   0.832272 0.466677 0.642838 -0.342799
N14   N     N_3   0.279075 0.256867 0.802810 -0.618250
H17   H     H_    0.295025 0.238673 0.857732 0.251242
H18   H     H_    0.237237 0.316069 0.784637 0.248715
N15   N     N_3   0.511363 0.098349 0.825006 -0.634188
H19   H     H_    0.464580 0.097051 0.874127 0.276954
H20   H     H_    0.390459 0.089223 0.798018 0.267218
C69   C     C_1   0.890004 0.172557 0.864281 0.417674
N16   N     N_1   0.989482 0.138731 0.911697 -0.312103
N17   N     N_3   0.005313 0.244726 0.696875 -0.632317
H21   H     H_    0.042358 0.185447 0.710580 0.235688
H22   H     H_    0.993743 0.268812 0.641692 0.225651
N18   N     N_3   0.500075 0.776210 0.293345 -0.612577
H23   H     H_    0.501067 0.753657 0.348668 0.248111
H24   H     H_    0.521373 0.837155 0.277319 0.254280
C70   C     C_1   0.355767 0.837504 0.131022 0.374583
N19   N     N_1   0.448274 0.873203 0.082770 -0.315631
N20   N     N_3   0.768497 0.725814 0.204589 -0.609956
H25   H     H_    0.766308 0.749530 0.149275 0.258092
H26   H     H_    0.749664 0.664840 0.219603 0.227064
C71   C     C_1   0.920187 0.727430 0.931301 0.275979
N21   N     N_1   0.820409 0.688344 0.975463 -0.291032
C72   C     C_1   0.001376 0.872550 0.942146 0.388016
N22   N     N_1   0.968889 0.883502 0.993594 -0.317246

loop_
_geom_bond_atom_site_label_1
_geom_bond_atom_site_label_2
_ccdc_geom_bond_type
O14   C46   A    
C57   C58   S    
O12   C45   A    
C3    C26   S    
C1    C37   S    
C27   C28   A    
C49   C68   S    
C21   C22   A    
C6    C14   S    
C54   C57   S    
V3    O20   S    
O18   V4    S    
C19   N2    S    
N3    H11   S    
C5    C66   S    
C41   C67   S    
C55   C56   S    
C34   C65   S    
C39   C44   A    
O19   V4    S    
C53   C54   S    
C6    N1    S    
C11   H1    S    
C21   C23   A    
C12   C14   S    
N12   H16   S    
O5    C3    A    
C50   C54   S    
H4    C43   S    
C56   C58   S    
N7    H13   S    
C72   N22   T    
C20   N3    S    
O16   V4    S    
C20   C21   A    
O13   V3    S    
C13   C70   S    
C50   C58   S    
C18   C72   S    
O8    V2    S    
C49   C53   S    
C32   N7    S    
O14   V3    S    
C10   C13   S    
C11   C12   S    
O17   V3    S    
O15   C47   A    
C7    C15   T    
O7    V1    S    
C1    O6    A    
C51   C59   T    
C49   C56   S    
C42   H5    S    
C23   C48   S    
C43   C44   A    
O1    C2    A    
O9    C4    A    
C69   N16   T    
N18   H24   S    
O11   V4    S    
N2    H9    S    
C9    N20   S    
C63   N6    T    
N3    H12   S    
C5    C6    S    
C55   C57   S    
C24   C25   A    
C5    C12   S    
O19   C48   A    
C35   C36   A    
C22   C26   A    
V4    O20   S    
C24   C27   A    
C58   N14   S    
C56   C60   S    
N1    H7    S    
O4    C2    A    
C30   C62   S    
C49   C50   S    
O18   C47   A    
C8    C16   T    
C42   C43   A    
C40   C46   S    
V2    O10   S    
C5    C9    S    
C35   C37   A    
C17   C71   S    
N17   H22   S    
C29   C30   A    
C23   C24   A    
C28   C61   S    
N1    H8    S    
C45   C51   S    
C31   C32   A    
C39   C40   A    
C34   C35   A    
C44   N12   S    
N2    H10   S    
C31   C36   A    
O3    C4    A    
N20   H26   S    
C53   N17   S    
O1    V2    S    
C32   C33   A    
C53   C55   S    
O12   V3    S    
O6    V2    S    
C10   C15   S    
C9    C11   S    
O17   V4    S    
N18   H23   S    
H2    C29   S    
C28   C29   A    
N14   H18   S    
O2    V1    S    
C57   N15   S    
C68   N13   T    
C33   C64   S    
C66   N10   T    
C45   O16   A    
C38   C39   A    
C31   C63   S    
C65   N9    T    
C6    C10   S    
C4    C7    S    
C17   C18   A    
C12   C16   S    
C70   N19   T    
O5    V1    S    
O8    C3    A    
C37   C38   A    
C25   C30   A    
N12   H15   S    
C52   C60   T    
O11   C46   A    
C18   C19   A    
O9    V2    S    
N17   H21   S    
C13   C14   S    
O4    V1    S    
C14   N18   S    
V1    O10   S    
C71   N21   T    
C41   C42   A    
N15   H19   S    
N7    H14   S    
O3    V1    S    
O2    C1    A    
C61   N4    T    
O13   C48   A    
C19   C20   A    
C8    C47   S    
O15   V3    S    
C11   C13   S    
O7    V2    S    
C62   N5    T    
N20   H25   S    
C50   H6    S    
C25   C26   A    
C36   C40   A    
C2    C52   S    
C33   C34   A    
C54   C59   S    
C64   N8    T    
N15   H20   S    
C27   H3    S    
C17   C22   A    
C55   C69   S    
N14   H17   S    
C9    C10   S    
C67   N11   T    
C38   C41   A    
