data_mof_unit_50291.cif
_audit_creation_date              2012-12-11T17:37:51-0500
_audit_creation_method            fapswitch 2.2
_symmetry_space_group_name_H-M    P1
_symmetry_Int_Tables_number       1
_space_group_crystal_system       triclinic
_cell_length_a                    12.946788
_cell_length_b                    13.094507
_cell_length_c                    15.127865
_cell_angle_alpha                 115.505321
_cell_angle_beta                  63.463264
_cell_angle_gamma                 96.439238
_cell_volume                      2060.60962068

loop_
_atom_site_label
_atom_site_type_symbol
_atom_type_description
_atom_site_fract_x
_atom_site_fract_y
_atom_site_fract_z
_atom_type_partial_charge
C1    C     C_R   0.002995 0.832152 0.049500 -0.124981
C2    C     C_R   0.297412 0.596361 0.788760 -0.143287
C3    C     C_R   0.260056 0.416328 0.047166 -0.152096
C4    C     C_R   0.678210 0.480337 0.222055 -0.118861
C5    C     C_R   0.015761 0.289131 0.685950 -0.154273
C6    C     C_R   0.363750 0.434299 0.973017 0.132617
C7    C     C_R   0.975939 0.186386 0.682366 0.076524
C8    C     C_R   0.290133 0.574902 0.693083 0.056774
C9    C     C_R   0.022174 0.149729 0.033443 0.053867
C10   C     C_R   0.449568 0.815648 0.219302 -0.254993
C11   C     C_R   0.340234 0.845038 0.310681 0.013142
C12   C     C_R   0.670501 0.558919 0.324642 0.054555
C13   C     C_R   0.259181 0.921894 0.326613 0.111563
C14   C     C_R   0.287995 0.967366 0.250769 -0.313664
C15   C     C_R   0.397390 0.940423 0.161193 0.176561
C16   C     C_R   0.758983 0.515071 0.887515 -0.123699
C17   C     C_R   0.478459 0.862842 0.144563 0.210217
C18   C     C_R   0.112939 0.046086 0.513280 -0.239542
C19   C     C_R   0.996772 0.087161 0.586222 0.058643
C20   C     C_R   0.904810 0.032250 0.566674 -0.009213
C21   C     C_R   0.932289 0.931393 0.474766 -0.241790
C22   C     C_R   0.048291 0.891277 0.401436 0.072685
C23   C     C_R   0.667055 0.452447 0.918036 0.127594
C24   C     C_R   0.139850 0.950154 0.416616 0.055419
C25   C     C_R   0.711073 0.081846 0.732612 -0.166054
C26   C     C_R   0.592152 0.115241 0.783989 -0.105725
C27   C     C_R   0.543284 0.148599 0.733614 -0.069749
C28   C     C_R   0.015874 0.698061 0.302501 0.027331
C29   C     C_R   0.613546 0.150457 0.632569 -0.119626
C30   C     C_R   0.732444 0.117386 0.581083 -0.148053
C31   C     C_R   0.782293 0.082414 0.630456 0.138284
C32   C     C_R   0.800643 0.575555 0.575313 0.197524
C33   C     C_R   0.711923 0.569948 0.543615 -0.208098
C34   C     C_R   0.068015 0.794606 0.303754 0.045216
C35   C     C_R   0.663347 0.668342 0.555108 0.063106
C36   C     C_R   0.702216 0.773510 0.599735 -0.214865
C37   C     C_R   0.789470 0.780327 0.631713 -0.103815
C38   C     C_R   0.838006 0.683136 0.621143 -0.000589
C39   C     C_R   0.455841 0.678079 0.624322 -0.228044
C40   C     C_R   0.679423 0.418143 0.986617 -0.158393
C41   C     C_R   0.365292 0.615920 0.609171 0.050952
C42   C     C_R   0.365615 0.575961 0.505463 0.032459
C43   C     C_R   0.458390 0.594476 0.422239 -0.251514
C44   C     C_R   0.564012 0.613290 0.428191 0.057285
C45   C     C_R   0.339646 0.517750 0.950683 -0.122772
C46   C     C_R   0.561439 0.661819 0.533713 0.048304
C47   C     C_R   0.347391 0.372483 0.448736 -0.194695
C48   C     C_R   0.292574 0.275702 0.415746 0.082853
C49   C     C_R   0.197804 0.282432 0.396279 -0.123868
C50   C     C_R   0.161185 0.385630 0.406901 -0.159949
C51   C     C_R   0.216351 0.483045 0.440774 -0.198938
C52   C     C_R   0.090684 0.800586 0.208874 -0.166881
C53   C     C_R   0.306739 0.476874 0.465735 0.118284
C54   C     C_2   0.477320 0.393838 0.947443 -0.267288
C55   C     C_2   0.576114 0.421578 0.882171 0.044359
C56   C     C_R   0.932874 0.188416 0.783946 -0.122470
C57   C     C_2   0.842728 0.958222 0.076908 -0.205951
C58   C     C_2   0.825833 0.040985 0.174353 -0.166543
C59   C     C_R   0.782330 0.569132 0.312775 -0.149593
C60   C     C_R   0.902584 0.747514 0.953265 -0.149604
C61   C     C_R   0.916578 0.851547 0.025942 0.148862
C62   C     C_3   0.578820 0.734827 0.955789 -0.961444
C63   C     C_3   0.475318 0.091624 0.107121 -0.978441
C64   C     C_3   0.823713 0.364267 0.506687 -0.975144
C65   C     C_R   0.193690 0.515900 0.697169 -0.129215
C66   C     C_R   0.058681 0.253835 0.083010 -0.141085
C67   C     C_R   0.961125 0.170313 0.985968 -0.101186
H1    H     H_    0.034143 0.894768 0.104331 0.090245
H2    H     H_    0.608058 0.451924 0.199931 0.097076
H3    H     H_    0.224461 0.023594 0.260865 0.129611
H4    H     H_    0.181520 0.090472 0.531369 0.140012
H5    H     H_    0.863106 0.887109 0.456635 0.142078
H6    H     H_    0.745723 0.051476 0.770822 0.096836
H7    H     H_    0.537439 0.113585 0.862121 0.105722
H8    H     H_    0.451048 0.173578 0.773161 0.109934
H9    H     H_    0.575713 0.176523 0.593642 0.106208
H10   H     H_    0.785347 0.116142 0.501289 0.114084
H11   H     H_    0.785057 0.541037 0.822345 0.084787
H12   H     H_    0.894436 0.122211 0.809076 0.084413
H13   H     H_    0.678280 0.490074 0.511312 0.142775
H14   H     H_    0.663889 0.850135 0.610906 0.143932
H15   H     H_    0.819661 0.861679 0.665641 0.128527
H16   H     H_    0.455240 0.716848 0.703697 0.127948
H17   H     H_    0.456536 0.564092 0.344180 0.123957
H18   H     H_    0.420257 0.367031 0.464223 0.115770
H19   H     H_    0.152619 0.208588 0.372794 0.110866
H20   H     H_    0.089807 0.390213 0.389463 0.141283
H21   H     H_    0.188173 0.562728 0.448987 0.113043
H22   H     H_    0.475042 0.369464 0.008171 0.125854
H23   H     H_    0.147774 0.503562 0.649494 0.114407
H24   H     H_    0.796617 0.968438 0.036103 0.124735
H25   H     H_    0.867078 0.035185 0.220892 0.130856
H26   H     H_    0.636980 0.352259 0.010958 0.094984
H27   H     H_    0.135403 0.863080 0.180690 0.103501
H28   H     H_    0.810527 0.629113 0.370359 0.136893
H29   H     H_    0.839752 0.731410 0.921303 0.114844
H30   H     H_    0.398762 0.559756 0.903208 0.096867
H31   H     H_    0.626754 0.891606 0.030733 0.179886
H32   H     H_    0.665916 0.708587 0.884811 0.242316
H33   H     H_    0.519780 0.762608 0.933216 0.250609
H34   H     H_    0.097094 0.271097 0.137733 0.091630
H35   H     H_    0.545702 0.661389 0.974909 0.262945
H36   H     H_    0.371681 0.813406 0.416149 0.118934
H37   H     H_    0.317666 0.706561 0.341237 0.101409
H38   H     H_    0.354232 0.989459 0.068365 0.164520
H39   H     H_    0.506268 0.112599 0.036244 0.246878
H40   H     H_    0.550694 0.085372 0.121739 0.250088
H41   H     H_    0.410403 0.161396 0.179857 0.264053
H42   H     H_    0.896835 0.670755 0.719901 0.076637
H43   H     H_    0.999938 0.641981 0.591161 0.107029
H44   H     H_    0.876467 0.484682 0.621038 0.158789
H45   H     H_    0.911784 0.110586 0.948860 0.089906
H46   H     H_    0.880812 0.298503 0.496202 0.251312
H47   H     H_    0.837009 0.349691 0.424183 0.256956
H48   H     H_    0.732262 0.355296 0.556650 0.259843
H49   H     H_    0.419514 0.150016 0.341675 0.124598
H50   H     H_    0.336375 0.185504 0.475067 0.091661
H51   H     H_    0.091440 0.640610 0.365696 0.098687
H52   H     H_    0.994788 0.558344 0.332094 0.104836
H53   H     H_    0.595190 0.512412 0.795780 0.103360
H54   H     H_    0.525120 0.394261 0.763106 0.116886
H55   H     H_    0.351337 0.653388 0.821469 0.089088
H56   H     H_    0.249996 0.362656 0.087501 0.098507
H57   H     H_    0.050871 0.316902 0.621258 0.118886
H58   H     H_    0.511553 0.754733 0.205492 0.147645
N1    N     N_R   0.037320 0.720000 0.995830 -0.041967
N2    N     N_R   0.824900 0.517970 0.936430 -0.040389
N3    N     N_R   0.003190 0.648180 0.211390 -0.057327
N4    N     N_R   0.774330 0.457010 0.995830 -0.039559
N5    N     N_R   0.053760 0.709130 0.151980 -0.043530
N6    N     N_R   0.853840 0.498830 0.211390 -0.045004
N7    N     N_R   0.974250 0.667320 0.936430 -0.044028
N8    N     N_R   0.225670 0.542990 0.004170 -0.040173
N9    N     N_2   0.586379 0.826287 0.049314 -0.107062
N10   N     N_3   0.310520 0.794795 0.385302 -0.214560
N11   N     N_2   0.423153 0.985474 0.084006 -0.111017
N12   N     N_R   0.946240 0.290870 0.848020 -0.038852
N13   N     N_3   0.926425 0.695848 0.656432 -0.218244
N14   N     N_2   0.854380 0.475907 0.560779 -0.115476
N15   N     N_3   0.333782 0.171153 0.402569 -0.213591
N16   N     N_3   0.009557 0.643134 0.368518 -0.210619
N17   N     N_3   0.592438 0.427743 0.783955 -0.205853
N18   N     N_R   0.146160 0.501170 0.788610 -0.043453
N19   N     N_R   0.025750 0.332680 0.063570 -0.040418
N20   N     N_R   0.962680 0.280000 0.004170 -0.043074
N21   N     N_R   0.209230 0.553860 0.848010 -0.039720
N22   N     N_R   0.175100 0.482030 0.063570 -0.043197
N23   N     N_R   0.996810 0.351820 0.788610 -0.040151
N24   N     N_R   0.790770 0.446140 0.151990 -0.039551
Ni1   Ni    Ni4+2 0.130310 0.630310 0.000000 0.207838
Ni2   Ni    Ni4+2 0.869690 0.369690 0.000000 0.212311
Ni3   Ni    Ni4+2 0.985660 0.509480 0.863750 0.205104
Ni4   Ni    Ni4+2 0.014340 0.490520 0.136250 0.202631

loop_
_geom_bond_atom_site_label_1
_geom_bond_atom_site_label_2
_ccdc_geom_bond_type
C25   C31   A    
N18   N21   A    
C40   N4    A    
C3    N22   A    
C6    C45   A    
C27   C29   A    
N1    Ni1   S    
C41   C42   A    
N12   N23   A    
C35   C36   A    
C40   H26   S    
C3    C6    A    
C60   N7    A    
C9    C67   A    
H44   N14   S    
C39   C41   A    
C29   H9    S    
C4    N24   A    
C5    H57   S    
C59   N6    A    
C26   C27   A    
C29   C30   A    
C56   H12   S    
C60   C61   A    
C18   C24   A    
C47   H18   S    
C36   C37   A    
H37   N10   S    
N4    Ni2   S    
N24   Ni2   S    
C42   C53   S    
C30   C31   A    
C65   N18   A    
C66   N19   A    
C10   C17   A    
C23   C40   A    
C1    H1    S    
C18   C19   A    
N19   Ni4   S    
H36   N10   S    
C9    C66   A    
C33   C35   A    
N21   Ni1   S    
C30   H10   S    
C19   C20   A    
C44   C46   A    
N5    Ni1   S    
C52   H27   S    
N8    N22   A    
C32   C38   A    
C4    C12   A    
C10   H58   S    
C25   H6    S    
C47   C53   A    
H51   N16   S    
C28   C34   A    
C8    C65   A    
C5    N23   A    
C13   C14   A    
C43   H17   S    
C14   H3    S    
C66   H34   S    
C59   H28   S    
C7    C56   A    
C6    C54   S    
C27   H8    S    
H54   N17   S    
C4    H2    S    
C3    H56   S    
C2    H55   S    
C65   H23   S    
C22   C34   S    
C64   H47   S    
C48   N15   S    
C21   H5    S    
H43   N13   S    
H53   N17   S    
C1    N1    A    
C32   N14   S    
C10   C11   A    
C5    C7    A    
C15   N11   S    
C25   C26   A    
C13   C24   S    
N3    N5    A    
H42   N13   S    
C51   C53   A    
C43   C44   A    
N2    N4    A    
C67   N20   A    
C37   C38   A    
C11   N10   S    
N2    Ni3   S    
C47   C48   A    
N6    Ni4   S    
C36   H14   S    
C50   C51   A    
C38   N13   S    
C8    C41   S    
C63   H39   S    
C57   C61   S    
N20   Ni2   S    
N3    Ni4   S    
C54   H22   S    
H38   N11   S    
C62   H33   S    
C50   H20   S    
C48   C49   A    
C16   C23   A    
C7    C19   S    
C39   C46   A    
H52   N16   S    
C22   C24   A    
C37   H15   S    
N6    N24   A    
H50   N15   S    
C42   C43   A    
C63   H40   S    
C60   H29   S    
C18   H4    S    
C15   C17   A    
C54   C55   D    
N18   Ni3   S    
C64   H46   S    
C57   H24   S    
C34   C52   A    
C49   H19   S    
C2    C8    A    
N8    Ni1   S    
N23   Ni3   S    
N19   N20   A    
C1    C61   A    
C51   H21   S    
C33   H13   S    
C23   C55   S    
C2    N21   A    
H31   N9    S    
C45   N8    A    
C52   N5    A    
C32   C33   A    
C62   N9    S    
C39   H16   S    
C12   C44   S    
C45   H30   S    
C63   N11   S    
C56   N12   A    
C11   C13   A    
C57   C58   D    
N7    Ni3   S    
C26   H7    S    
C16   H11   S    
C12   C59   A    
N22   Ni4   S    
C16   N2    A    
N1    N7    A    
C62   H32   S    
C67   H45   S    
C20   C21   A    
C49   C50   A    
C17   N9    S    
C64   H48   S    
C14   C15   A    
N12   Ni2   S    
C28   N16   S    
C62   H35   S    
C63   H41   S    
C21   C22   A    
C35   C46   S    
C58   H25   S    
C64   N14   S    
C28   N3    A    
H49   N15   S    
C20   C31   S    
C55   N17   S    
