data_mof_unit_26141.cif
_audit_creation_date              2012-12-10T17:39:24-0500
_audit_creation_method            fapswitch 2.2
_symmetry_space_group_name_H-M    P1
_symmetry_Int_Tables_number       1
_space_group_crystal_system       triclinic
_cell_length_a                    12.326111
_cell_length_b                    13.138256
_cell_length_c                    27.671144
_cell_angle_alpha                 77.341882
_cell_angle_beta                  100.519824
_cell_angle_gamma                 116.656009
_cell_volume                      3889.26232581

loop_
_atom_site_label
_atom_site_type_symbol
_atom_type_description
_atom_site_fract_x
_atom_site_fract_y
_atom_site_fract_z
_atom_type_partial_charge
C1    C     C_R   0.855032 0.286791 0.502601 0.774708
C2    C     C_R   0.944802 0.414849 0.725853 -0.136107
C3    C     C_R   0.013798 0.517666 0.745036 0.309047
C4    C     C_R   0.016285 0.519245 0.897388 -0.055802
C5    C     C_R   0.095843 0.485704 0.881551 -0.056727
C6    C     C_R   0.183955 0.464138 0.915991 -0.158942
C7    C     C_R   0.938381 0.555381 0.861783 -0.050858
C8    C     C_R   0.006777 0.511471 0.644121 -0.061297
C9    C     C_R   0.999468 0.495123 0.355318 -0.035329
C10   C     C_R   0.075654 0.457477 0.035447 0.001980
C11   C     C_R   0.918817 0.530274 0.015534 0.009939
C12   C     C_R   0.001050 0.502404 0.591981 0.803773
C13   C     C_R   0.993246 0.488225 0.051167 0.063848
C14   C     C_R   0.125693 0.391565 0.070615 -0.198140
C15   C     C_R   0.121385 0.379077 0.122012 0.142477
C16   C     C_R   0.052873 0.426211 0.138635 -0.070573
C17   C     C_R   0.981813 0.472803 0.102785 -0.099992
C18   C     C_R   0.898549 0.503589 0.118372 -0.022153
C19   C     C_R   0.904413 0.506960 0.169391 0.540702
C20   C     C_R   0.048917 0.426006 0.189602 0.521666
C21   C     C_R   0.097821 0.545259 0.279691 -0.095608
C22   C     C_R   0.106076 0.553552 0.330013 0.134604
C23   C     C_R   0.145392 0.713916 0.492502 0.807661
C24   C     C_R   0.888063 0.429378 0.330162 -0.265770
C25   C     C_R   0.881842 0.419680 0.280575 -0.102498
C26   C     C_R   0.986383 0.478027 0.254960 0.313447
C27   C     C_R   0.094341 0.480432 0.984163 0.044349
C28   C     C_R   0.014755 0.516831 0.948710 -0.000593
C29   C     C_R   0.935145 0.552683 0.964018 0.046571
C30   C     C_R   0.190581 0.470629 0.966259 0.164126
C31   C     C_R   0.871392 0.603150 0.876645 -0.155455
C32   C     C_R   0.820179 0.534852 0.032058 -0.210404
C33   C     C_R   0.811273 0.527107 0.082382 0.170707
C34   C     C_R   0.001200 0.500455 0.407765 0.804560
C35   C     C_R   0.877314 0.611435 0.926636 0.157098
C36   C     C_R   0.270199 0.032448 0.442343 0.177058
C37   C     C_R   0.229216 0.836434 0.482340 -0.097390
C38   C     C_R   0.817440 0.081045 0.519417 -0.206295
C39   C     C_R   0.741683 0.963833 0.520069 0.210755
C40   C     C_R   0.616782 0.928839 0.505715 -0.238129
C41   C     C_R   0.567852 0.010707 0.487378 0.060215
C42   C     C_R   0.649973 0.128422 0.477991 0.080311
C43   C     C_R   0.440209 0.979395 0.477073 0.048138
C44   C     C_R   0.397393 0.062675 0.451103 0.143984
C45   C     C_R   0.091497 0.483086 0.830783 0.545473
C46   C     C_R   0.482859 0.173577 0.433978 -0.238633
C47   C     C_R   0.606630 0.205446 0.446765 -0.200666
C48   C     C_R   0.354189 0.868365 0.493646 -0.266958
C49   C     C_R   0.187458 0.918820 0.457641 -0.206199
C50   C     C_R   0.773189 0.164376 0.499149 -0.148243
C51   C     C_R   0.309064 0.285004 0.549414 -0.293240
C52   C     C_R   0.771535 0.658914 0.438402 0.054896
C53   C     C_R   0.679821 0.697901 0.424376 0.143298
C54   C     C_R   0.568538 0.635784 0.444984 -0.204276
C55   C     C_R   0.546584 0.532791 0.478222 -0.072137
C56   C     C_R   0.936699 0.551392 0.811380 0.525803
C57   C     C_R   0.642888 0.495778 0.491779 0.239638
C58   C     C_R   0.433117 0.464689 0.499678 -0.021779
C59   C     C_R   0.408973 0.350487 0.522211 0.091156
C60   C     C_R   0.494803 0.308329 0.524112 -0.283860
C61   C     C_R   0.616020 0.388854 0.524842 0.187856
C62   C     C_R   0.343691 0.503913 0.501003 -0.017060
C63   C     C_R   0.233462 0.333079 0.555694 0.376451
C64   C     C_R   0.082857 0.620197 0.713915 0.172219
C65   C     C_R   0.079594 0.617003 0.662547 0.103607
C66   C     C_R   0.941820 0.411578 0.675915 -0.299802
Cu1   Cu    Cu3+1 0.098270 0.475420 0.511360 0.922743
Cu2   Cu    Cu3+1 0.901730 0.524580 0.488640 0.912004
H1    H     H_    0.887884 0.330748 0.661846 0.141079
H2    H     H_    0.821274 0.642387 0.848886 0.191122
H3    H     H_    0.746622 0.541590 0.005778 0.167919
H4    H     H_    0.806007 0.383708 0.349284 0.151581
H5    H     H_    0.795533 0.366932 0.261942 0.153552
H6    H     H_    0.090344 0.893947 0.449305 0.155395
H7    H     H_    0.455255 0.237895 0.411341 0.167865
H8    H     H_    0.893023 0.336863 0.750010 0.152115
H9    H     H_    0.382698 0.804867 0.516066 0.158496
H10   H     H_    0.911947 0.107030 0.534084 0.155237
H11   H     H_    0.560545 0.837493 0.507344 0.125668
H12   H     H_    0.667273 0.290604 0.430518 0.177630
H13   H     H_    0.474459 0.220550 0.542457 0.148699
H14   H     H_    0.295593 0.199844 0.569276 0.141857
H15   H     H_    0.350657 0.586244 0.480642 0.128017
H16   H     H_    0.857841 0.707174 0.422551 0.137882
H17   H     H_    0.253777 0.450203 0.903340 0.190231
H18   H     H_    0.498706 0.666814 0.433088 0.146709
H19   H     H_    0.177981 0.590982 0.259415 0.144889
H20   H     H_    0.165111 0.346077 0.057329 0.183995
N1    N     N_R   0.013346 0.516514 0.796937 -0.454931
N2    N     N_R   0.979578 0.470001 0.203333 -0.452523
N3    N     N_R   0.246290 0.438210 0.528570 -0.194611
N4    N     N_R   0.754320 0.561170 0.471730 -0.228012
O1    O     O_R   0.972510 0.318140 0.514280 -0.598574
O2    O     O_2   0.114130 0.383714 0.225641 -0.577252
O3    O     O_2   0.860541 0.583619 0.776938 -0.555422
O4    O     O_2   0.839359 0.550702 0.185214 -0.551716
O5    O     O_R   0.806530 0.359640 0.495100 -0.591633
O6    O     O_R   0.082990 0.479270 0.579320 -0.586491
O7    O     O_R   0.917010 0.520770 0.560140 -0.575089
O8    O     O_R   0.193470 0.640360 0.504900 -0.591986
O9    O     O_R   0.027490 0.681860 0.485720 -0.596228
O10   O     O_R   0.082990 0.479230 0.439860 -0.568830
O11   O     O_R   0.917010 0.520730 0.420680 -0.586769
O12   O     O_2   0.165313 0.448360 0.815255 -0.551033
C67   C     C_3   0.159375 0.730623 0.735998 -0.408321
C68   C     C_3   0.289511 0.743959 0.752963 -0.816883
H21   H     H_    0.289818 0.675581 0.784560 0.280686
H22   H     H_    0.332608 0.738779 0.722262 0.248071
H23   H     H_    0.344961 0.828923 0.765521 0.239397
H24   H     H_    0.161053 0.807364 0.709130 0.206982
H25   H     H_    0.119189 0.732615 0.768284 0.215535
C69   C     C_3   0.703770 0.538264 0.095708 -0.763016
H26   H     H_    0.735412 0.619797 0.110662 0.265486
H27   H     H_    0.637363 0.540671 0.062897 0.198420
H28   H     H_    0.653768 0.463047 0.123280 0.245093
C70   C     C_3   0.839830 0.699662 0.936232 -0.888252
H29   H     H_    0.873691 0.778463 0.907939 0.239044
H30   H     H_    0.738883 0.664730 0.933403 0.230312
H31   H     H_    0.880939 0.728975 0.972662 0.247257
C71   C     C_3   0.220714 0.119079 0.416880 -0.875726
H32   H     H_    0.256971 0.192391 0.437988 0.242067
H33   H     H_    0.247583 0.151292 0.378325 0.240515
H34   H     H_    0.119557 0.080841 0.414743 0.234628
C72   C     C_3   0.794005 0.876125 0.537227 -0.402464
C73   C     C_3   0.893651 0.898019 0.505283 -0.839849
H35   H     H_    0.865222 0.916664 0.465205 0.263571
H36   H     H_    0.979501 0.972126 0.515427 0.243468
H37   H     H_    0.911912 0.820705 0.511248 0.250428
H38   H     H_    0.832857 0.880063 0.576670 0.200212
H39   H     H_    0.721525 0.787301 0.535317 0.204829
C74   C     C_3   0.143536 0.266637 0.594331 -0.399954
C75   C     C_3   0.208945 0.274061 0.646811 -0.841194
H40   H     H_    0.257770 0.365494 0.652797 0.269242
H41   H     H_    0.141196 0.226003 0.674544 0.250272
H42   H     H_    0.275294 0.235701 0.652880 0.247540
H43   H     H_    0.073480 0.297270 0.592212 0.256901
H44   H     H_    0.094904 0.174666 0.589133 0.167268
C76   C     C_3   0.698921 0.804807 0.386994 -0.893686
H45   H     H_    0.792340 0.846806 0.374818 0.225994
H46   H     H_    0.632131 0.782201 0.353820 0.247614
H47   H     H_    0.685024 0.867311 0.403560 0.246294
C77   C     C_3   0.678519 0.380968 0.577456 -0.328304
C78   C     C_3   0.704514 0.484652 0.602154 -0.772195
H48   H     H_    0.761983 0.567766 0.580416 0.257067
H49   H     H_    0.617155 0.486998 0.605394 0.235300
H50   H     H_    0.750757 0.476337 0.640151 0.253455
H51   H     H_    0.618850 0.305103 0.602604 0.166006
H52   H     H_    0.754918 0.358343 0.579279 0.207367
C79   C     C_3   0.227304 0.626890 0.355364 -0.855204
H53   H     H_    0.297980 0.674013 0.328778 0.226688
H54   H     H_    0.218092 0.691570 0.372260 0.223913
H55   H     H_    0.259802 0.571677 0.384752 0.246334
C80   C     C_3   0.188066 0.314820 0.158385 -0.311563
C81   C     C_3   0.251402 0.261289 0.136002 -0.906898
H56   H     H_    0.184029 0.195218 0.113450 0.258605
H57   H     H_    0.323549 0.328939 0.113023 0.256800
H58   H     H_    0.295634 0.218022 0.166533 0.258258
H59   H     H_    0.260236 0.376051 0.181797 0.244402
H60   H     H_    0.121326 0.243221 0.182420 0.238778
C82   C     C_3   0.311103 0.486282 0.996297 -0.907876
H61   H     H_    0.387639 0.547224 0.973845 0.237570
H62   H     H_    0.325239 0.525302 0.029944 0.247869
H63   H     H_    0.317919 0.402630 0.006504 0.231306
C83   C     C_3   0.151324 0.724290 0.627161 -0.417037
C84   C     C_3   0.073217 0.787648 0.601926 -0.839585
H64   H     H_    0.989752 0.729395 0.581726 0.269544
H65   H     H_    0.045974 0.818783 0.629812 0.249081
H66   H     H_    0.125726 0.862907 0.574929 0.244722
H67   H     H_    0.235529 0.784384 0.646169 0.211575
H68   H     H_    0.184441 0.701207 0.598365 0.201449

loop_
_geom_bond_atom_site_label_1
_geom_bond_atom_site_label_2
_ccdc_geom_bond_type
C10   C27   A    
C58   C62   A    
C56   O3    S    
C62   H15   S    
C21   H19   S    
C8    C66   A    
C84   H64   S    
C57   N4    A    
C78   H50   S    
C41   C42   A    
C83   H68   S    
Cu2   O11   S    
C21   C26   A    
C69   H27   S    
C64   C67   S    
C23   O9    A    
C53   C54   A    
C52   C53   A    
C30   C82   S    
C34   O10   A    
C6    H17   S    
C20   N2    A    
C7    C56   A    
C28   C29   A    
C67   H24   S    
C79   H54   S    
C5    C6    A    
C9    C22   A    
C66   H1    S    
C68   H21   S    
C15   C16   A    
C70   H29   S    
C18   C19   A    
C80   H59   S    
C52   H16   S    
Cu2   O5    S    
C69   H26   S    
C12   O7    A    
Cu1   O6    S    
C54   C55   A    
C31   H2    S    
C44   C46   A    
C75   H40   S    
C72   H38   S    
C73   H37   S    
C63   C74   S    
C45   N1    A    
C43   C48   A    
C81   H57   S    
C71   H34   S    
C8    C12   S    
C23   O8    A    
C67   H25   S    
C22   C79   S    
C59   C60   A    
C84   H65   S    
C21   C22   A    
C27   C30   A    
C41   C43   A    
C83   H67   S    
C47   H12   S    
C4    C7    A    
C46   H7    S    
C4    C28   A    
C71   H33   S    
C32   H3    S    
C7    C31   A    
C53   C76   S    
C82   H63   S    
C77   H52   S    
C51   C63   A    
C24   C25   A    
C81   H58   S    
C74   H43   S    
C10   C14   A    
C79   H55   S    
C1    O5    A    
C39   C40   A    
C54   H18   S    
C16   C17   A    
C38   H10   S    
C58   C59   A    
C23   C37   S    
C5    C45   A    
C76   H47   S    
C39   C72   S    
Cu1   Cu2   S    
C32   C33   A    
C60   C61   A    
C82   H62   S    
C48   H9    S    
C80   H60   S    
C43   C44   A    
C74   H44   S    
C45   O12   S    
C37   C49   A    
C60   H13   S    
C14   C15   A    
C16   C20   A    
C62   N3    A    
Cu1   N3    S    
C17   C18   A    
C40   H11   S    
C72   H39   S    
C35   C70   S    
C33   C69   S    
Cu2   O9    S    
C37   C48   A    
C51   H14   S    
C81   H56   S    
C76   H46   S    
Cu1   O8    S    
C42   C50   A    
C75   H41   S    
C56   N1    A    
C6    C30   A    
C11   C32   A    
C84   H66   S    
C55   C57   A    
C73   H35   S    
C31   C35   A    
C36   C44   A    
C51   C59   A    
C74   C75   S    
C2    H8    S    
C71   H32   S    
C24   H4    S    
C73   H36   S    
C1    C50   S    
C78   H49   S    
C20   O2    S    
C46   C47   A    
C83   C84   S    
C77   C78   S    
C12   O6    A    
C77   H51   S    
C4    C5    A    
C2    C66   A    
C10   C13   A    
C9    C24   A    
C57   C61   A    
C38   C50   A    
C26   N2    S    
C67   C68   S    
C29   C35   A    
C34   O11   A    
C70   H31   S    
C13   C17   A    
C3    N1    S    
C64   C65   A    
C2    C3    A    
C25   C26   A    
Cu2   O7    S    
C14   H20   S    
C19   N2    A    
C79   H53   S    
C82   H61   S    
C11   C13   A    
C38   C39   A    
C68   H22   S    
C75   H42   S    
C65   C83   S    
Cu2   N4    S    
C70   H30   S    
C9    C34   S    
C25   H5    S    
C42   C47   A    
C3    C64   A    
C36   C71   S    
C18   C33   A    
C15   C80   S    
C52   N4    A    
C76   H45   S    
C36   C49   A    
C61   C77   S    
C8    C65   A    
C11   C29   A    
C1    O1    A    
C55   C58   A    
C63   N3    A    
C27   C28   A    
Cu1   O1    S    
C49   H6    S    
C40   C41   A    
C80   C81   S    
C69   H28   S    
C19   O4    S    
C78   H48   S    
Cu1   O10   S    
C72   C73   S    
C68   H23   S    
