data_mof_unit_19171.cif
_audit_creation_date              2012-12-11T14:57:56-0500
_audit_creation_method            fapswitch 2.2
_symmetry_space_group_name_H-M    P1
_symmetry_Int_Tables_number       1
_space_group_crystal_system       triclinic
_cell_length_a                    6.951242
_cell_length_b                    16.729946
_cell_length_c                    17.142332
_cell_angle_alpha                 100.12395
_cell_angle_beta                  88.561198
_cell_angle_gamma                 90.78888
_cell_volume                      1961.80134318

loop_
_atom_site_label
_atom_site_type_symbol
_atom_type_description
_atom_site_fract_x
_atom_site_fract_y
_atom_site_fract_z
_atom_type_partial_charge
O1    O     O_R   0.506180 0.438940 0.579430 -0.552802
O2    O     O_R   0.170520 0.406230 0.413590 -0.538337
O3    O     O_R   0.005180 0.561060 0.420570 -0.506094
C1    C     C_R   0.341149 0.386764 0.382081 0.738061
O4    O     O_R   0.176140 0.429310 0.578370 -0.544948
O5    O     O_R   0.010830 0.584300 0.586530 -0.542410
C2    C     C_R   0.341957 0.413223 0.604861 0.656664
O6    O     O_R   0.500520 0.415700 0.413470 -0.536555
O7    O     O_3   0.340830 0.550820 0.502480 -0.339926
V1    V     V_3+5 0.064040 0.490570 0.499540 1.518991
O8    O     O_R   0.681400 0.593770 0.586410 -0.537889
C3    C     C_R   0.849423 0.617070 0.615294 0.768511
O9    O     O_R   0.675790 0.570690 0.421630 -0.518780
C4    C     C_R   0.845348 0.585428 0.393993 0.844207
V2    V     V_3+5 0.564650 0.509430 0.500460 1.524895
O10   O     O_3   0.837730 0.449180 0.497520 -0.386255
C5    C     C_R   0.903471 0.862428 0.166369 -0.037009
C6    C     C_R   0.858977 0.635559 0.329901 -0.065132
C7    C     C_R   0.002752 0.653753 0.202692 -0.135533
C8    C     C_R   0.967041 0.606137 0.261000 -0.163714
C9    C     C_R   0.768946 0.712043 0.335770 0.196618
C10   C     C_R   0.821629 0.763828 0.281443 0.079631
C11   C     C_R   0.935127 0.733501 0.213129 0.123894
C12   C     C_R   0.972748 0.782562 0.155181 -0.197841
C13   C     C_R   0.809778 0.894430 0.237779 -0.118238
C14   C     C_R   0.765009 0.845603 0.293861 -0.078909
H1    H     H_    0.050834 0.758186 0.100852 0.101390
H2    H     H_    0.769765 0.957728 0.249811 0.139768
H3    H     H_    0.085630 0.628479 0.149954 0.123199
H4    H     H_    0.689400 0.873258 0.347484 0.164919
H5    H     H_    0.017686 0.544400 0.251084 0.143756
H6    H     H_    0.385030 0.691042 0.937511 0.111429
C15   C     C_R   0.252360 0.817149 0.778684 -0.115348
C16   C     C_R   0.380918 0.813437 0.714757 -0.208500
C17   C     C_R   0.316611 0.786917 0.638764 -0.113164
C18   C     C_R   0.129823 0.756271 0.627236 0.420561
C19   C     C_R   0.015920 0.741328 0.693010 -0.075546
C20   C     C_R   0.060850 0.787463 0.767766 0.031326
C21   C     C_R   0.859629 0.684425 0.686493 -0.172612
C22   C     C_R   0.733514 0.685532 0.753901 0.065206
C23   C     C_R   0.755506 0.747226 0.822606 0.065496
C24   C     C_R   0.912856 0.802933 0.827053 -0.190282
C25   C     C_R   0.586881 0.626043 0.755773 -0.146429
C26   C     C_R   0.460727 0.629385 0.820636 -0.116511
C27   C     C_R   0.480964 0.689835 0.886583 -0.125905
C28   C     C_R   0.628311 0.747221 0.888430 -0.155146
H7    H     H_    0.311147 0.839296 0.835897 0.161957
H8    H     H_    0.525767 0.837290 0.723761 0.143988
H9    H     H_    0.405609 0.797216 0.588920 0.194876
H10   H     H_    0.568242 0.574919 0.708786 0.116276
H11   H     H_    0.348746 0.583692 0.820289 0.107352
H12   H     H_    0.645646 0.789007 0.943520 0.124548
H13   H     H_    0.301342 0.473650 0.114304 0.132655
C29   C     C_R   0.419720 0.228103 0.409409 -0.133680
C30   C     C_R   0.450381 0.152205 0.428091 -0.108745
C31   C     C_R   0.448258 0.084304 0.369233 -0.090577
C32   C     C_R   0.421108 0.091126 0.290197 0.084035
C33   C     C_R   0.408772 0.169491 0.267503 0.034062
C34   C     C_R   0.396940 0.238886 0.329925 0.050247
C35   C     C_R   0.403833 0.181402 0.186879 -0.169463
C36   C     C_R   0.367820 0.260189 0.170460 0.054994
C37   C     C_R   0.357081 0.329570 0.232791 0.036124
C38   C     C_R   0.362508 0.317870 0.313490 -0.167190
C39   C     C_R   0.342355 0.270803 0.091048 -0.132024
C40   C     C_R   0.309878 0.346568 0.072428 -0.156934
C41   C     C_R   0.314148 0.414527 0.131124 -0.114755
C42   C     C_R   0.344892 0.407732 0.209892 0.086796
H14   H     H_    0.415340 0.278218 0.458706 0.105950
H15   H     H_    0.468750 0.145718 0.489215 0.162146
H16   H     H_    0.460930 0.025168 0.386038 0.161914
H17   H     H_    0.345746 0.220683 0.041759 0.098983
H18   H     H_    0.289225 0.352936 0.011419 0.120149
C43   C     C_R   0.428524 0.139105 0.833198 -0.096868
C44   C     C_R   0.338122 0.360093 0.666138 -0.066971
C45   C     C_R   0.165385 0.310859 0.774342 -0.140897
C46   C     C_R   0.180789 0.363823 0.719812 -0.140528
C47   C     C_R   0.481119 0.301859 0.668195 -0.211091
C48   C     C_R   0.465469 0.246642 0.722093 0.109217
C49   C     C_R   0.305225 0.251583 0.775752 0.141825
C50   C     C_R   0.286826 0.197436 0.830188 -0.221054
C51   C     C_R   0.585784 0.134112 0.779349 -0.168529
C52   C     C_R   0.604232 0.186111 0.723727 0.138540
H19   H     H_    0.165608 0.202346 0.871754 0.124691
H20   H     H_    0.695687 0.089026 0.780312 0.153434
H21   H     H_    0.042030 0.315536 0.814766 0.119329
H22   H     H_    0.068321 0.407937 0.719432 0.116622
H23   H     H_    0.600461 0.298762 0.626138 0.153602
O11   O     O_R   0.265840 0.084300 0.086750 -0.529170
O12   O     O_R   0.589750 0.070740 0.921690 -0.544404
O13   O     O_R   0.755020 0.915730 0.913400 -0.542747
C53   C     C_R   0.423939 0.086745 0.895179 0.700162
O14   O     O_R   0.595830 0.093740 0.086480 -0.533085
O15   O     O_R   0.761150 0.938890 0.079360 -0.534664
C54   C     C_R   0.425293 0.112821 0.118247 0.753953
O16   O     O_R   0.259710 0.061140 0.920790 -0.534617
O17   O     O_3   0.425260 0.949200 0.997610 -0.369881
V3    V     V_3+5 0.702060 0.009430 0.000450 1.444284
O18   O     O_R   0.090530 0.929220 0.078150 -0.521963
C55   C     C_R   0.919890 0.912413 0.103519 0.719820
O19   O     O_R   0.084440 0.906220 0.913360 -0.551866
C56   C     C_R   0.916870 0.878827 0.889248 0.687318
V4    V     V_3+5 0.201450 0.990520 0.999290 1.450897
O20   O     O_3   0.928380 0.050800 0.002390 -0.365768
S1    S     S_3+6 0.017972 0.777658 0.542924 0.003765
O21   O     O_2   0.078572 0.860654 0.528789 -0.311039
O22   O     O_2   0.078306 0.716875 0.472229 -0.320936
O23   O     O_3   0.778944 0.775805 0.557242 -0.516873
H24   H     H_    0.750729 0.825626 0.596240 0.332206
I1    I     I_    0.362938 0.975883 0.220607 -0.404442
I2    I     I_    0.413652 0.522001 0.278019 -0.427654
I3    I     I_    0.845439 0.167477 0.644044 -0.428310
I4    I     I_    0.524370 0.742639 0.412230 -0.168699

loop_
_geom_bond_atom_site_label_1
_geom_bond_atom_site_label_2
_ccdc_geom_bond_type
C30   C31   A    
O17   V4    S    
C6    C9    A    
C23   C24   A    
C4    C6    S    
O2    C1    A    
C7    C8    A    
C12   H1    S    
C1    O6    A    
C9    I4    S    
S1    O22   D    
C51   C52   A    
C47   C48   A    
C13   H2    S    
C1    C38   S    
C19   C20   A    
C44   C46   A    
C37   C42   A    
C18   C19   A    
C20   C24   A    
O5    C3    A    
C7    H3    S    
C29   H14   S    
C33   C35   A    
V2    O10   S    
O18   C55   A    
C28   H12   S    
C31   C32   A    
C16   C17   A    
H6    C27   S    
C39   H17   S    
O8    V2    S    
C45   H21   S    
C22   C25   A    
C32   I1    S    
C17   C18   A    
C44   C47   A    
C17   H9    S    
C23   C28   A    
O1    V2    S    
O12   C53   A    
O7    V1    S    
O15   C55   A    
O13   V3    S    
O16   V4    S    
C41   C42   A    
O9    C4    A    
V4    O20   S    
C50   H19   S    
C43   C51   A    
S1    O21   D    
O14   V3    S    
C2    C44   S    
C29   C34   A    
O11   C54   A    
C5    C12   A    
C43   C53   S    
C21   C22   A    
O4    C2    A    
C48   C49   A    
C13   C14   A    
O18   V4    S    
O12   V3    S    
C35   C36   A    
C36   C39   A    
C7    C11   A    
C45   C46   A    
O13   C56   A    
C37   C38   A    
C48   C52   A    
C42   I2    S    
O23   H24   S    
O17   V3    S    
O14   C54   A    
C15   C16   A    
V3    O20   S    
H13   C41   S    
C5    C55   S    
C30   H15   S    
O3    C4    A    
C26   H11   S    
C22   C23   A    
C14   H4    S    
O6    V2    S    
C31   H16   S    
O9    V2    S    
C25   C26   A    
C15   H7    S    
C16   H8    S    
O2    V1    S    
C24   C56   S    
O15   V3    S    
C51   H20   S    
C26   C27   A    
O19   V4    S    
C29   C30   A    
O1    C2    A    
O5    V1    S    
O11   V4    S    
O8    C3    A    
C25   H10   S    
C40   H18   S    
C34   C38   A    
C15   C20   A    
C18   S1    S    
C5    C13   A    
C52   I3    S    
C3    C21   S    
C33   C34   A    
O4    V1    S    
C19   C21   A    
O3    V1    S    
V1    O10   S    
C39   C40   A    
C32   C33   A    
O19   C56   A    
C43   C50   A    
C6    C8    A    
O7    V2    S    
C36   C37   A    
C11   C12   A    
C53   O16   A    
C49   C50   A    
C27   C28   A    
C47   H23   S    
C40   C41   A    
C10   C14   A    
C46   H22   S    
C10   C11   A    
C9    C10   A    
C45   C49   A    
S1    O23   S    
C8    H5    S    
C35   C54   S    
