data_mof_unit_44401.cif
_audit_creation_date              2012-12-10T16:51:31-0500
_audit_creation_method            fapswitch 2.2
_symmetry_space_group_name_H-M    P1
_symmetry_Int_Tables_number       1
_space_group_crystal_system       triclinic
_cell_length_a                    7.850345
_cell_length_b                    8.568966
_cell_length_c                    12.401871
_cell_angle_alpha                 92.348375
_cell_angle_beta                  103.320016
_cell_angle_gamma                 93.73881
_cell_volume                      808.746587629

loop_
_atom_site_label
_atom_site_type_symbol
_atom_type_description
_atom_site_fract_x
_atom_site_fract_y
_atom_site_fract_z
_atom_type_partial_charge
Br1   Br    Br    0.113750 0.301332 0.136247 -0.523320
Br2   Br    Br    0.497048 0.818882 0.729215 -0.557241
C1    C     C_R   0.044087 0.794385 0.497188 0.960059
C2    C     C_R   0.184338 0.613309 0.819331 -0.114474
C3    C     C_2   0.067265 0.957986 0.495961 -0.322601
C4    C     C_R   0.114032 0.542938 0.705363 0.887376
C5    C     C_2   0.933144 0.042068 0.504787 -0.365420
C6    C     C_R   0.956009 0.205651 0.502984 0.985025
C7    C     C_R   0.888204 0.484921 0.290412 0.900133
C8    C     C_R   0.838476 0.427377 0.980776 -0.186936
C9    C     C_R   0.820970 0.480148 0.170743 -0.133223
C10   C     C_R   0.076624 0.674499 0.883581 -0.188429
C11   C     C_R   0.140283 0.701709 0.998126 -0.087943
C12   C     C_R   0.421799 0.611784 0.982271 0.073838
C13   C     C_R   0.308038 0.659958 0.048774 -0.116033
C14   C     C_R   0.363350 0.616062 0.867364 0.060214
C15   C     C_R   0.589235 0.555739 0.021835 0.087641
C16   C     C_R   0.686547 0.505758 0.944908 0.061862
C17   C     C_R   0.636987 0.548328 0.835260 -0.267066
C18   C     C_R   0.487359 0.627859 0.803818 0.244036
C19   C     C_R   0.661261 0.545948 0.133666 -0.259066
C20   C     C_R   0.906524 0.413160 0.093815 0.259879
H1    H     H_    0.806477 0.991368 0.513181 0.195541
H2    H     H_    0.193999 0.008667 0.487690 0.196955
H3    H     H_    0.528358 0.638198 0.567249 0.234742
H4    H     H_    0.719462 0.532237 0.777962 0.188651
H5    H     H_    0.907638 0.382370 0.921364 0.182697
H6    H     H_    0.596002 0.593768 0.193466 0.176073
H7    H     H_    0.945141 0.701590 0.845772 0.177912
H8    H     H_    0.344683 0.669039 0.138195 0.144043
H9    H     H_    0.055755 0.745716 0.048242 0.161106
H10   H     H_    0.470211 0.366766 0.424980 0.210360
N1    N     N_2   0.434800 0.456690 0.470850 -0.162882
N2    N     N_2   0.565200 0.543310 0.529150 -0.178913
O1    O     O_R   0.893060 0.738880 0.507150 -0.616755
O2    O     O_R   0.172250 0.711130 0.488470 -0.613384
O3    O     O_R   0.944700 0.520730 0.667600 -0.630918
O4    O     O_R   0.223890 0.492980 0.648920 -0.597960
O5    O     O_R   0.827750 0.288870 0.511530 -0.618822
O6    O     O_R   0.106940 0.261120 0.492850 -0.598828
O7    O     O_R   0.776110 0.507020 0.351080 -0.630970
O8    O     O_R   0.055300 0.479270 0.332400 -0.576979
Zn1   Zn    Zn3+2 0.813580 0.518530 0.512470 0.961163
Zn2   Zn    Zn3+2 0.186420 0.481470 0.487530 0.998857

loop_
_geom_bond_atom_site_label_1
_geom_bond_atom_site_label_2
_ccdc_geom_bond_type
C8    H5    S    
O3    Zn1   S    
C4    O4    A    
O4    Zn2   S    
C6    O5    A    
C10   H7    S    
C2    C10   A    
O1    Zn1   S    
C9    C20   A    
C7    O7    A    
C17   C18   A    
C1    O1    A    
H3    N2    S    
C14   C18   A    
H10   N1    S    
C11   C13   A    
N1    N2    D    
C4    O3    A    
C5    C6    S    
C8    C20   A    
O7    Zn1   S    
C12   C15   A    
C7    O8    A    
C3    H2    S    
O8    Zn2   S    
C1    O2    A    
C8    C16   A    
C5    H1    S    
C2    C14   A    
C19   H6    S    
C11   H9    S    
C15   C16   A    
C7    C9    S    
C12   C14   A    
O2    Zn2   S    
Br2   C18   S    
O6    Zn2   S    
C10   C11   A    
C13   H8    S    
C2    C4    S    
C16   C17   A    
C3    C5    D    
C17   H4    S    
C12   C13   A    
Br1   C20   S    
O5    Zn1   S    
C6    O6    A    
N1    Zn2   S    
C9    C19   A    
C15   C19   A    
N2    Zn1   S    
C1    C3    S    
