data_mof_unit_13074.cif
_audit_creation_date              2012-12-10T17:46:32-0500
_audit_creation_method            fapswitch 2.2
_symmetry_space_group_name_H-M    P1
_symmetry_Int_Tables_number       1
_space_group_crystal_system       monoclinic
_cell_length_a                    20.847407
_cell_length_b                    21.296815
_cell_length_c                    14.748467
_cell_angle_alpha                 90.0
_cell_angle_beta                  127.872926
_cell_angle_gamma                 90.0
_cell_volume                      5168.88116733

loop_
_atom_site_label
_atom_site_type_symbol
_atom_type_description
_atom_site_fract_x
_atom_site_fract_y
_atom_site_fract_z
_atom_type_partial_charge
C1    C     C_R   0.603220 0.914368 0.632056 0.833561
C2    C     C_R   0.396780 0.085632 0.367944 0.833561
C3    C     C_R   0.396780 0.914368 0.367944 0.833562
C4    C     C_R   0.603220 0.085632 0.632056 0.833560
C5    C     C_R   0.103220 0.414368 0.632056 0.833561
C6    C     C_R   0.896780 0.585632 0.367944 0.833561
C7    C     C_R   0.896780 0.414368 0.367944 0.833561
C8    C     C_R   0.103220 0.585632 0.632056 0.833561
C9    C     C_R   0.297228 0.794626 0.890512 -0.214198
C10   C     C_R   0.702774 0.205373 0.109490 -0.214198
C11   C     C_R   0.702773 0.794627 0.109489 -0.214198
C12   C     C_R   0.297228 0.205374 0.890512 -0.214198
C13   C     C_R   0.797226 0.294627 0.890510 -0.214198
C14   C     C_R   0.202772 0.705374 0.109489 -0.214198
C15   C     C_R   0.202772 0.294626 0.109489 -0.214198
C16   C     C_R   0.797226 0.705372 0.890509 -0.214198
C17   C     C_R   0.322579 0.000000 0.666208 -0.324405
C18   C     C_R   0.677421 1.000000 0.333792 -0.324405
C19   C     C_R   0.822579 0.500000 0.666208 -0.324405
C20   C     C_R   0.177421 0.500000 0.333792 -0.324405
C21   C     C_R   0.352096 0.000000 0.603257 0.075373
C22   C     C_R   0.647904 1.000000 0.396743 0.075373
C23   C     C_R   0.852096 0.500000 0.603257 0.075373
C24   C     C_R   0.147904 0.500000 0.396743 0.075373
C25   C     C_R   0.487753 1.000000 0.775082 -0.006527
C26   C     C_R   0.512247 0.000000 0.224918 -0.006528
C27   C     C_R   0.987753 0.500000 0.775082 -0.006528
C28   C     C_R   0.012247 0.500000 0.224918 -0.006527
C29   C     C_R   0.461744 0.000000 0.844756 -0.023285
C30   C     C_R   0.538256 1.000000 0.155244 -0.023284
C31   C     C_R   0.961744 0.500000 0.844756 -0.023284
C32   C     C_R   0.038256 0.500000 0.155244 -0.023285
C33   C     C_R   0.376907 0.000000 0.786690 0.163420
C34   C     C_R   0.623093 1.000000 0.213310 0.163420
C35   C     C_R   0.876907 0.500000 0.786690 0.163420
C36   C     C_R   0.123093 0.500000 0.213310 0.163420
C37   C     C_R   0.516065 1.000000 0.968564 0.079437
C38   C     C_R   0.483935 1.000000 0.031435 0.079436
C39   C     C_R   0.016065 0.500000 0.968564 0.079436
C40   C     C_R   0.983935 0.500000 0.031435 0.079437
C41   C     C_R   0.398705 0.000000 0.968343 -0.255275
C42   C     C_R   0.601294 1.000000 0.031656 -0.255275
C43   C     C_R   0.898705 0.500000 0.968343 -0.255275
C44   C     C_R   0.101294 0.500000 0.031656 -0.255275
C45   C     C_R   0.346655 0.000000 0.848859 -0.205568
C46   C     C_R   0.653345 1.000000 0.151141 -0.205568
C47   C     C_R   0.846655 0.500000 0.848859 -0.205568
C48   C     C_R   0.153345 0.500000 0.151141 -0.205568
C49   C     C_R   0.658566 0.137186 0.702065 -0.037454
C50   C     C_R   0.341434 0.862814 0.297935 -0.037455
C51   C     C_R   0.341433 0.137186 0.297935 -0.037455
C52   C     C_R   0.658566 0.862814 0.702064 -0.037454
C53   C     C_R   0.158566 0.637186 0.702065 -0.037455
C54   C     C_R   0.841434 0.362814 0.297935 -0.037454
C55   C     C_R   0.841434 0.637186 0.297935 -0.037454
C56   C     C_R   0.158566 0.362814 0.702065 -0.037455
C57   C     C_R   0.728737 0.231894 0.718493 -0.198951
C58   C     C_R   0.271261 0.768107 0.281506 -0.198950
C59   C     C_R   0.271261 0.231893 0.281506 -0.198951
C60   C     C_R   0.728737 0.768106 0.718492 -0.198951
C61   C     C_R   0.228739 0.731893 0.718494 -0.198951
C62   C     C_R   0.771263 0.268106 0.281507 -0.198951
C63   C     C_R   0.771262 0.731894 0.281507 -0.198951
C64   C     C_R   0.228739 0.268107 0.718494 -0.198951
C65   C     C_R   0.680674 0.180587 0.654360 -0.250051
C66   C     C_R   0.319324 0.819414 0.345639 -0.250050
C67   C     C_R   0.319325 0.180586 0.345639 -0.250050
C68   C     C_R   0.680674 0.819413 0.654359 -0.250050
C69   C     C_R   0.180675 0.680586 0.654361 -0.250050
C70   C     C_R   0.819326 0.319413 0.345640 -0.250050
C71   C     C_R   0.819326 0.680587 0.345640 -0.250050
C72   C     C_R   0.180675 0.319414 0.654361 -0.250050
C73   C     C_R   0.685764 0.144789 0.815157 0.095127
C74   C     C_R   0.314236 0.855210 0.184843 0.095127
C75   C     C_R   0.314236 0.144790 0.184843 0.095127
C76   C     C_R   0.685764 0.855210 0.815157 0.095127
C77   C     C_R   0.185764 0.644789 0.815157 0.095127
C78   C     C_R   0.814236 0.355210 0.184843 0.095127
C79   C     C_R   0.814235 0.644789 0.184842 0.095127
C80   C     C_R   0.185764 0.355210 0.815157 0.095127
C81   C     C_R   0.719515 0.203268 0.870893 0.044654
C82   C     C_R   0.280485 0.796731 0.129107 0.044654
C83   C     C_R   0.280485 0.203268 0.129107 0.044654
C84   C     C_R   0.719514 0.796731 0.870892 0.044654
C85   C     C_R   0.219515 0.703268 0.870893 0.044654
C86   C     C_R   0.780485 0.296731 0.129107 0.044654
C87   C     C_R   0.780484 0.703268 0.129106 0.044654
C88   C     C_R   0.219515 0.296731 0.870893 0.044654
C89   C     C_R   0.747789 0.243842 0.825889 0.139137
C90   C     C_R   0.252210 0.756158 0.174110 0.139137
C91   C     C_R   0.252210 0.243842 0.174110 0.139137
C92   C     C_R   0.747788 0.756157 0.825888 0.139137
C93   C     C_R   0.247790 0.743842 0.825890 0.139137
C94   C     C_R   0.752211 0.256157 0.174111 0.139137
C95   C     C_R   0.752210 0.743842 0.174110 0.139137
C96   C     C_R   0.247790 0.256158 0.825890 0.139137
C97   C     C_R   0.726884 0.222745 0.969395 0.066490
C98   C     C_R   0.273117 0.777255 0.030606 0.066490
C99   C     C_R   0.273117 0.222745 0.030606 0.066490
C100  C     C_R   0.726883 0.777255 0.969394 0.066490
C101  C     C_R   0.226883 0.722745 0.969394 0.066490
C102  C     C_R   0.773117 0.277255 0.030606 0.066490
C103  C     C_R   0.773116 0.722745 0.030605 0.066490
C104  C     C_R   0.226883 0.277255 0.969394 0.066490
C105  C     C_R   0.313878 0.808433 0.994852 -0.233988
C106  C     C_R   0.686124 0.191566 0.005149 -0.233989
C107  C     C_R   0.686123 0.808433 0.005148 -0.233989
C108  C     C_R   0.313878 0.191567 0.994852 -0.233989
C109  C     C_R   0.813877 0.308434 0.994851 -0.233989
C110  C     C_R   0.186122 0.691567 0.005148 -0.233989
C111  C     C_R   0.186122 0.308433 0.005148 -0.233988
C112  C     C_R   0.813876 0.691566 0.994850 -0.233988
Cu1   Cu    Cu3+1 0.526640 0.000000 0.436960 0.942050
Cu2   Cu    Cu3+1 0.473360 0.000000 0.563040 0.942051
Cu3   Cu    Cu3+1 0.026640 0.500000 0.436960 0.942050
Cu4   Cu    Cu3+1 0.973360 0.500000 0.563040 0.942051
H1    H     H_    0.325028 0.822797 0.861820 0.150495
H2    H     H_    0.674975 0.177201 0.138182 0.150495
H3    H     H_    0.674974 0.822798 0.138181 0.150496
H4    H     H_    0.325028 0.177203 0.861820 0.150496
H5    H     H_    0.825025 0.322798 0.861818 0.150496
H6    H     H_    0.174972 0.677203 0.138180 0.150496
H7    H     H_    0.174973 0.322797 0.138180 0.150496
H8    H     H_    0.825024 0.677201 0.861817 0.150496
H9    H     H_    0.369924 0.000000 0.008908 0.132770
H10   H     H_    0.630076 1.000000 0.991092 0.132769
H11   H     H_    0.869924 0.500000 0.008908 0.132769
H12   H     H_    0.130076 0.500000 0.991092 0.132770
H13   H     H_    0.338360 0.825613 0.431898 0.164774
H14   H     H_    0.661638 0.174388 0.568101 0.164774
H15   H     H_    0.661638 0.825612 0.568101 0.164774
H16   H     H_    0.338360 0.174387 0.431898 0.164774
H17   H     H_    0.838362 0.325612 0.431899 0.164774
H18   H     H_    0.161640 0.674387 0.568102 0.164774
H19   H     H_    0.161640 0.325613 0.568102 0.164774
H20   H     H_    0.838362 0.674388 0.431899 0.164774
H21   H     H_    0.248612 0.763456 0.682517 0.142296
H22   H     H_    0.751390 0.236543 0.317485 0.142296
H23   H     H_    0.751390 0.763457 0.317485 0.142296
H24   H     H_    0.248612 0.236544 0.682517 0.142296
H25   H     H_    0.748610 0.263457 0.682515 0.142296
H26   H     H_    0.251387 0.736544 0.317483 0.142295
H27   H     H_    0.251388 0.263456 0.317483 0.142296
H28   H     H_    0.748609 0.736543 0.682514 0.142296
H29   H     H_    0.359508 0.843485 0.046532 0.154670
H30   H     H_    0.640494 0.156514 0.953471 0.154671
H31   H     H_    0.640493 0.843486 0.953469 0.154670
H32   H     H_    0.359508 0.156515 0.046531 0.154671
H33   H     H_    0.859506 0.343486 0.046530 0.154671
H34   H     H_    0.140492 0.656515 0.953469 0.154671
H35   H     H_    0.140492 0.343485 0.953469 0.154670
H36   H     H_    0.859505 0.656513 0.046529 0.154670
H37   H     H_    0.281657 1.000000 0.804468 0.144052
H38   H     H_    0.718343 1.000000 0.195532 0.144051
H39   H     H_    0.781657 0.500000 0.804468 0.144051
H40   H     H_    0.218343 0.500000 0.195532 0.144052
H41   H     H_    0.449235 0.000000 0.188204 0.118388
H42   H     H_    0.550765 1.000000 0.811796 0.118387
H43   H     H_    0.949235 0.500000 0.188204 0.118387
H44   H     H_    0.050765 0.500000 0.811796 0.118388
H45   H     H_    0.689950 1.000000 0.489609 0.131220
H46   H     H_    0.310050 0.000000 0.510391 0.131220
H47   H     H_    0.189950 0.500000 0.489609 0.131220
H48   H     H_    0.810050 0.500000 0.510391 0.131220
H49   H     H_    0.257480 0.000000 0.620831 0.139077
H50   H     H_    0.742519 1.000000 0.379169 0.139077
H51   H     H_    0.757480 0.500000 0.620831 0.139077
H52   H     H_    0.242519 0.500000 0.379169 0.139077
N1    N     N_R   0.433280 0.000000 0.657760 -0.177348
N2    N     N_R   0.566720 0.000000 0.342240 -0.177348
N3    N     N_R   0.933280 0.500000 0.657760 -0.177348
N4    N     N_R   0.066720 0.500000 0.342240 -0.177348
O1    O     O_R   0.600040 0.935040 0.546740 -0.595712
O2    O     O_R   0.399960 0.064960 0.453260 -0.595712
O3    O     O_R   0.399960 0.935040 0.453260 -0.595712
O4    O     O_R   0.600040 0.064960 0.546740 -0.595712
O5    O     O_R   0.100040 0.435040 0.546740 -0.595712
O6    O     O_R   0.899960 0.564960 0.453260 -0.595712
O7    O     O_R   0.899960 0.435040 0.453260 -0.595712
O8    O     O_R   0.100040 0.564960 0.546740 -0.595712
O9    O     O_R   0.555010 0.935070 0.653220 -0.578502
O10   O     O_R   0.444990 0.064930 0.346780 -0.578502
O11   O     O_R   0.444990 0.935070 0.346780 -0.578502
O12   O     O_R   0.555010 0.064930 0.653220 -0.578502
O13   O     O_R   0.055010 0.435070 0.653220 -0.578502
O14   O     O_R   0.944990 0.564930 0.346780 -0.578502
O15   O     O_R   0.944990 0.435070 0.346780 -0.578502
O16   O     O_R   0.055010 0.564930 0.653220 -0.578502
N5    N     N_3   0.303895 0.911062 0.122017 -0.594019
H53   H     H_    0.357375 0.921173 0.133635 0.215381
H54   H     H_    0.255516 0.906290 0.034632 0.229600
N6    N     N_3   0.696106 0.088937 0.877983 -0.594020
H55   H     H_    0.744485 0.093710 0.965368 0.229600
H56   H     H_    0.642627 0.078826 0.866365 0.215381
N7    N     N_3   0.696106 0.911062 0.877983 -0.594020
H57   H     H_    0.642626 0.921174 0.866365 0.215381
H58   H     H_    0.744484 0.906289 0.965368 0.229600
N8    N     N_3   0.303895 0.088938 0.122017 -0.594020
H59   H     H_    0.255516 0.093710 0.034632 0.229601
H60   H     H_    0.357374 0.078826 0.133635 0.215382
N9    N     N_3   0.803894 0.411062 0.122017 -0.594019
H61   H     H_    0.857373 0.421174 0.133635 0.215381
H62   H     H_    0.755515 0.406290 0.034632 0.229600
N10   N     N_3   0.196105 0.588937 0.877983 -0.594019
H63   H     H_    0.244483 0.593710 0.965368 0.229600
H64   H     H_    0.142625 0.578827 0.866364 0.215381
N11   N     N_3   0.196105 0.411062 0.877983 -0.594020
H65   H     H_    0.142626 0.421174 0.866365 0.215381
H66   H     H_    0.244484 0.406290 0.965368 0.229600
N12   N     N_3   0.803893 0.588937 0.122017 -0.594020
H67   H     H_    0.755514 0.593710 0.034632 0.229600
H68   H     H_    0.857373 0.578825 0.133635 0.215381

loop_
_geom_bond_atom_site_label_1
_geom_bond_atom_site_label_2
_ccdc_geom_bond_type
C79   N12   S    
C88   C96   A    
C69   H18   S    
C14   H6    S    
Cu4   O6    S    
Cu2   N1    S    
C33   C45   A    
N9    H61   S    
C5    C56   S    
C19   C23   A    
C67   H16   S    
C78   N9    S    
C5    O13   A    
C6    C55   S    
C53   C69   A    
C76   C84   A    
C79   C87   A    
C65   H14   S    
C18   H50   S    
C8    O16   A    
C99   C108  A    
Cu4   O16   S    
C1    O1    A    
C98   C105  A    
C15   H7    S    
C57   C89   A    
C106  H30   S    
C32   C36   A    
C7    O15   A    
C51   C75   A    
C23   H48   S    
C50   C74   A    
C42   C46   A    
C61   C93   A    
C108  H32   S    
C10   C94   A    
C9    C105  A    
Cu3   Cu4   S    
C21   N1    A    
C63   C95   A    
C2    O2    A    
Cu3   O15   S    
C62   C70   A    
C26   H41   S    
C14   C110  A    
C2    O10   A    
C37   C42   A    
N5    H54   S    
C58   H26   S    
C14   C90   A    
C13   C109  A    
C86   C94   A    
C59   C67   A    
C12   H4    S    
C85   C93   A    
C58   C66   A    
C40   C43   A    
C20   C24   A    
C29   C33   A    
C56   C72   A    
C87   C95   A    
C70   H17   S    
C13   H5    S    
C112  H36   S    
N8    H59   S    
C34   C46   A    
C43   C47   A    
C60   C92   A    
C97   C102  A    
C52   C68   A    
C66   H13   S    
C81   C89   A    
C78   C86   A    
C32   C40   A    
C99   C104  A    
C48   H40   S    
C59   H27   S    
C83   C99   A    
C6    O6    A    
C82   C98   A    
C17   C33   A    
N9    H62   S    
C74   C82   A    
C20   H52   S    
C73   C81   A    
C88   C104  A    
C3    C50   S    
C28   N4    A    
C19   H51   S    
C25   C29   A    
C46   H38   S    
C30   C34   A    
C27   C31   A    
N11   H65   S    
C84   C100  A    
C75   C83   A    
C15   C111  A    
C107  H31   S    
C28   C32   A    
C64   C96   A    
C38   C41   A    
C11   H3    S    
C43   H11   S    
C39   C40   A    
C12   C108  A    
C22   H45   S    
C1    O9    A    
C72   H19   S    
C51   C67   A    
C110  H34   S    
C101  C110  A    
C100  C103  A    
C4    O12   A    
Cu4   N3    S    
C103  C112  A    
N6    H56   S    
C68   H15   S    
C109  H33   S    
Cu3   O5    S    
C37   C38   A    
C10   H2    S    
C76   N7    S    
C41   H9    S    
C74   N5    S    
C55   C79   A    
C8    O8    A    
Cu1   O10   S    
C54   C70   A    
C105  H29   S    
C7    C54   S    
C7    O7    A    
C59   C91   A    
C82   C90   A    
C62   H22   S    
C18   C34   A    
C5    O5    A    
C22   N2    A    
C49   C65   A    
C58   C90   A    
Cu1   O4    S    
C87   C103  A    
C97   C106  A    
C26   N2    A    
C3    O3    A    
Cu2   O3    S    
N10   H64   S    
C19   C35   A    
C26   C30   A    
N12   H68   S    
C62   C94   A    
C11   C107  A    
C53   C77   A    
C49   C73   A    
C10   C106  A    
C24   H47   S    
C45   H37   S    
C42   H10   S    
C86   C102  A    
C77   N10   S    
C9    C93   A    
C71   H20   S    
C85   C101  A    
C16   C112  A    
Cu1   O1    S    
Cu1   Cu2   S    
C64   H24   S    
C75   N8    S    
C25   N1    A    
Cu3   O14   S    
C44   H12   S    
C100  C107  A    
C21   H46   S    
C13   C89   A    
C18   C22   A    
C63   H23   S    
Cu3   O8    S    
C63   C71   A    
Cu3   N4    S    
C52   C76   A    
C111  H35   S    
C8    C53   S    
C104  C111  A    
C50   C66   A    
C16   C92   A    
C39   C44   A    
Cu2   O9    S    
C83   C91   A    
Cu4   O13   S    
C6    O14   A    
C56   C80   A    
C98   C101  A    
C57   H25   S    
C4    C49   S    
C61   C69   A    
N6    H55   S    
C27   H44   S    
C80   C88   A    
C17   H49   S    
C60   H28   S    
C61   H21   S    
Cu1   O11   S    
C47   H39   S    
C77   C85   A    
Cu2   O12   S    
C57   C65   A    
C31   C35   A    
C81   C97   A    
C31   C39   A    
C36   C48   A    
Cu1   N2    S    
C64   C72   A    
C16   H8    S    
N5    H53   S    
C24   N4    A    
C1    C52   S    
C17   C21   A    
C73   N6    S    
C2    C51   S    
C28   H43   S    
C15   C91   A    
N7    H57   S    
C20   C36   A    
Cu2   O2    S    
C80   N11   S    
C11   C95   A    
N10   H63   S    
C60   C68   A    
N12   H67   S    
C4    O4    A    
Cu4   O7    S    
C29   C37   A    
C25   H42   S    
N11   H66   S    
C41   C45   A    
C12   C96   A    
C102  C109  A    
N8    H60   S    
C84   C92   A    
C30   C38   A    
C54   C78   A    
C35   C47   A    
C27   N3    A    
C3    O11   A    
C55   C71   A    
C9    H1    S    
C44   C48   A    
N7    H58   S    
C23   N3    A    
