data_mof_unit_64338.cif
_audit_creation_date              2012-12-11T16:10:51-0500
_audit_creation_method            fapswitch 2.2
_symmetry_space_group_name_H-M    P1
_symmetry_Int_Tables_number       1
_space_group_crystal_system       triclinic
_cell_length_a                    12.860544
_cell_length_b                    13.288266
_cell_length_c                    26.934094
_cell_angle_alpha                 97.240846
_cell_angle_beta                  90.159265
_cell_angle_gamma                 118.908366
_cell_volume                      3986.432094

loop_
_atom_site_label
_atom_site_type_symbol
_atom_type_description
_atom_site_fract_x
_atom_site_fract_y
_atom_site_fract_z
_atom_type_partial_charge
C1    C     C_R   0.627920 0.894715 0.424353 0.543366
C2    C     C_1   0.139804 0.824121 0.179500 -0.029339
C3    C     C_1   0.160011 0.837145 0.231863 0.009203
C4    C     C_R   0.601920 0.223640 0.443249 0.544727
C5    C     C_1   0.174455 0.844171 0.276555 0.006752
C6    C     C_1   0.194498 0.851075 0.328560 -0.034922
C7    C     C_1   0.220604 0.859368 0.372354 -0.000652
C8    C     C_1   0.689079 0.799129 0.136099 0.008858
C9    C     C_1   0.672532 0.808998 0.179922 -0.018146
C10   C     C_1   0.661453 0.818427 0.232015 0.014262
C11   C     C_1   0.655820 0.827606 0.276773 0.003152
C12   C     C_R   0.692427 0.432728 0.240484 -0.134414
C13   C     C_1   0.650293 0.842598 0.329156 -0.040232
C14   C     C_1   0.643027 0.861816 0.373464 -0.003484
C15   C     C_1   0.693905 0.385057 0.874796 -0.004851
C16   C     C_R   0.268287 0.875578 0.422497 0.543731
C17   C     C_1   0.685037 0.358978 0.829996 -0.043146
C18   C     C_1   0.676708 0.338537 0.777238 -0.005379
C19   C     C_1   0.668325 0.323449 0.732127 -0.004903
C20   C     C_1   0.654074 0.302328 0.679391 -0.042676
C21   C     C_1   0.635358 0.275355 0.634648 -0.005171
C22   C     C_1   0.214737 0.863460 0.608473 -0.007737
C23   C     C_R   0.685231 0.419801 0.291047 -0.119532
C24   C     C_R   0.059812 0.763120 0.717293 -0.110270
C25   C     C_R   0.048014 0.752016 0.768028 -0.113153
C26   C     C_R   0.244691 0.919496 0.788907 -0.103813
C27   C     C_R   0.256496 0.930605 0.738179 -0.103594
C28   C     C_R   0.630566 0.898318 0.563803 0.547482
C29   C     C_R   0.164562 0.851815 0.702417 0.033231
C30   C     C_R   0.141044 0.829291 0.803669 0.032447
C31   C     C_1   0.127734 0.814935 0.855261 -0.056663
C32   C     C_1   0.184924 0.856108 0.650525 -0.057088
C33   C     C_1   0.105127 0.796247 0.897335 -0.006392
C34   C     C_R   0.676465 0.319516 0.306059 -0.011942
C35   C     C_1   0.655298 0.857082 0.606293 -0.010152
C36   C     C_R   0.797119 0.841833 0.716583 -0.105297
C37   C     C_R   0.807819 0.825874 0.766219 -0.108416
C38   C     C_R   0.592763 0.711066 0.765598 -0.100793
C39   C     C_R   0.582042 0.727108 0.716019 -0.102941
C40   C     C_R   0.602955 0.227182 0.582905 0.542714
C41   C     C_R   0.684035 0.794121 0.691778 0.035324
C42   C     C_R   0.705504 0.762336 0.791000 0.034770
C43   C     C_1   0.716198 0.755792 0.843265 -0.058064
C44   C     C_1   0.670904 0.825949 0.644255 -0.055340
C45   C     C_R   0.690371 0.345390 0.204630 0.030135
C46   C     C_1   0.728043 0.753030 0.887234 -0.009775
C47   C     C_R   0.065329 0.771874 0.084180 0.547638
C48   C     C_R   0.715842 0.438407 0.066528 0.548946
C49   C     C_R   0.720114 0.782404 0.086035 0.558059
C50   C     C_R   0.059637 0.765076 0.944283 0.539199
C51   C     C_R   0.709529 0.432286 0.926632 0.534947
C52   C     C_R   0.267821 0.879310 0.561904 0.545540
C53   C     C_R   0.748055 0.751244 0.939153 0.562757
C54   C     C_1   0.636100 0.272724 0.398096 -0.001947
C55   C     C_R   0.676187 0.232536 0.270673 -0.034090
C56   C     C_1   0.695723 0.364106 0.153260 -0.062972
C57   C     C_R   0.683253 0.244099 0.219734 0.267637
C58   C     C_1   0.658045 0.300022 0.357048 -0.052456
C59   C     C_1   0.702585 0.390572 0.111966 -0.006320
C60   C     C_1   0.113431 0.805602 0.135152 0.003506
Cr1   Cr    Cr6+3 0.416010 0.828400 0.490230 1.039995
Cr2   Cr    Cr6+3 0.676380 0.087280 0.505260 1.039838
Cr3   Cr    Cr6+3 0.407590 0.084280 0.504540 1.039811
Cr4   Cr    Cr6+3 0.914090 0.832340 0.018020 1.040047
Cr5   Cr    Cr6+3 0.923310 0.576840 0.003860 1.038113
Cr6   Cr    Cr6+3 0.654200 0.573160 0.004700 1.040619
H1    H     H_    0.668343 0.154310 0.282562 0.142833
H2    H     H_    0.338377 0.998744 0.726696 0.118376
H3    H     H_    0.876380 0.894854 0.698291 0.119536
H4    H     H_    0.687701 0.173552 0.152128 0.333552
H5    H     H_    0.895359 0.866148 0.785760 0.122650
H6    H     H_    0.513255 0.662047 0.784578 0.119375
H7    H     H_    0.494176 0.691130 0.697261 0.118376
H8    H     H_    0.698228 0.510668 0.229188 0.125580
H9    H     H_    0.684377 0.486836 0.318213 0.127342
H10   H     H_    0.988919 0.701379 0.689757 0.117995
H11   H     H_    0.967075 0.682502 0.779443 0.118000
H12   H     H_    0.316551 0.979803 0.816366 0.118354
O1    O     O_R   0.294740 0.800910 0.434410 -0.503308
O2    O     O_R   0.635480 0.460400 0.052590 -0.501885
O3    O     O_R   0.662650 0.681410 0.060750 -0.489432
O4    O     O_R   0.526010 0.837250 0.440870 -0.493958
O5    O     O_R   0.814500 0.852290 0.965490 -0.496987
O6    O     O_R   0.013160 0.821640 0.966980 -0.513167
O7    O     O_R   0.038850 0.666600 0.954370 -0.500748
O8    O     O_R   0.813260 0.476410 0.948680 -0.494853
O9    O     O_R   0.630060 0.454430 0.944230 -0.511626
O10   O     O_R   0.657630 0.675880 0.960300 -0.487727
O11   O     O_3   0.830530 0.660780 0.008860 -0.283172
O12   O     O_R   0.664100 0.185180 0.560770 -0.493552
O13   O     O_R   0.704290 0.994500 0.446090 -0.503510
O14   O     O_R   0.662870 0.181760 0.460430 -0.494173
O15   O     O_R   0.498970 0.199080 0.457120 -0.502851
O16   O     O_R   0.309350 0.975930 0.448180 -0.493101
O17   O     O_R   0.296060 0.804610 0.542650 -0.504734
O18   O     O_R   0.527240 0.840670 0.541200 -0.494404
O19   O     O_R   0.705610 0.998200 0.554330 -0.503990
O20   O     O_3   0.681541 0.154698 0.186742 -0.696052
O21   O     O_R   0.500290 0.202770 0.565360 -0.504205
O22   O     O_R   0.310570 0.979360 0.548520 -0.494037
O23   O     O_3   0.499990 0.999990 0.500010 -0.255536
O24   O     O_R   0.819910 0.858260 0.073860 -0.494005
O25   O     O_R   0.018180 0.827180 0.067430 -0.492740
O26   O     O_R   0.044260 0.672570 0.062730 -0.499036
O27   O     O_R   0.818270 0.481940 0.049130 -0.489921

loop_
_geom_bond_atom_site_label_1
_geom_bond_atom_site_label_2
_ccdc_geom_bond_type
C28   O19   A    
Cr4   O25   S    
C12   H8    S    
C27   C29   A    
C19   C20   S    
Cr3   O23   S    
C40   O21   A    
Cr1   O18   S    
C50   O6    A    
Cr5   O8    S    
C39   C41   A    
Cr4   O24   S    
C12   C23   A    
C45   C57   A    
C26   C27   A    
C26   H12   S    
C22   C32   T    
C25   H11   S    
C36   C37   A    
C38   C42   A    
C29   C32   S    
Cr1   O4    S    
Cr6   O10   S    
C30   C31   S    
C2    C60   T    
C52   O17   A    
C18   C19   T    
C49   O3    A    
C37   C42   A    
C24   C29   A    
Cr4   O6    S    
Cr3   O21   S    
C27   H2    S    
C50   O7    A    
C47   C60   S    
C28   C35   S    
C8    C9    T    
Cr2   O14   S    
C31   C33   T    
C15   C51   S    
C9    C10   S    
Cr2   O23   S    
C34   C55   A    
C1    O13   A    
C13   C14   T    
C36   C41   A    
Cr4   O11   S    
C51   O8    A    
Cr5   O27   S    
Cr6   O11   S    
C38   C39   A    
C38   H6    S    
C47   O25   A    
C24   C25   A    
C45   C56   S    
C51   O9    A    
Cr6   O9    S    
C24   H10   S    
C33   C50   S    
C52   O22   A    
Cr1   O23   S    
Cr4   O5    S    
Cr3   O22   S    
Cr2   O19   S    
C48   O27   A    
Cr3   O16   S    
C23   C34   A    
Cr2   O13   S    
C17   C18   S    
C35   C44   T    
C7    C16   S    
C26   C30   A    
C55   C57   A    
C41   C44   S    
C42   C43   S    
C49   O24   A    
C36   H3    S    
C48   C59   S    
C22   C52   S    
C54   C58   T    
C25   C30   A    
C15   C17   T    
Cr3   O15   S    
C47   O26   A    
C4    C54   S    
C23   H9    S    
C12   C45   A    
C3    C5    T    
C55   H1    S    
Cr1   O17   S    
Cr5   O7    S    
C6    C7    T    
Cr6   O2    S    
Cr5   O11   S    
C16   O16   A    
C56   C59   T    
C28   O18   A    
C53   O5    A    
C16   O1    A    
C48   O2    A    
C37   H5    S    
C2    C3    S    
C1    O4    A    
Cr6   O3    S    
C11   C13   S    
C5    C6    S    
C21   C40   S    
Cr1   O1    S    
C57   O20   S    
Cr2   O12   S    
C46   C53   S    
C53   O10   A    
C39   H7    S    
C43   C46   T    
C10   C11   T    
C4    O15   A    
C20   C21   T    
C34   C58   S    
C1    C14   S    
Cr5   O26   S    
C40   O12   A    
C8    C49   S    
H4    O20   S    
C4    O14   A    
