data_mof_unit_17300.cif
_audit_creation_date              2012-12-10T17:06:15-0500
_audit_creation_method            fapswitch 2.2
_symmetry_space_group_name_H-M    P1
_symmetry_Int_Tables_number       1
_space_group_crystal_system       triclinic
_cell_length_a                    10.654737
_cell_length_b                    11.051027
_cell_length_c                    9.912821
_cell_angle_alpha                 111.689165
_cell_angle_beta                  98.977426
_cell_angle_gamma                 90.494173
_cell_volume                      1068.47437415

loop_
_atom_site_label
_atom_site_type_symbol
_atom_type_description
_atom_site_fract_x
_atom_site_fract_y
_atom_site_fract_z
_atom_type_partial_charge
C1    C     C_R   0.490664 0.253965 0.440241 0.855845
C2    C     C_R   0.509395 0.746022 0.559739 0.861912
C3    C     C_R   0.259422 0.499065 0.500220 0.794424
C4    C     C_R   0.740381 0.500487 0.499738 0.805500
C5    C     C_3   0.061386 0.534256 0.640275 -0.186156
C6    C     C_3   0.937911 0.465273 0.360353 -0.182299
C7    C     C_3   0.964174 0.414335 0.557833 -0.208132
C8    C     C_3   0.035102 0.585321 0.442859 -0.205018
C9    C     C_3   0.876853 0.500414 0.499329 -0.024761
C10   C     C_3   0.122638 0.498889 0.500969 -0.024848
C11   C     C_3   0.972056 0.618850 0.580825 0.217459
C12   C     C_3   0.026971 0.380495 0.419760 0.224308
C13   C     C_2   0.485522 0.114040 0.406579 -0.365789
C14   C     C_2   0.514582 0.885917 0.593282 -0.362734
C15   C     C_2   0.502189 0.069649 0.515972 -0.151786
C16   C     C_2   0.497729 0.930257 0.483841 -0.153186
C17   C     C_2   0.505297 0.517207 0.085475 -0.054374
C18   C     C_2   0.479244 0.507542 0.924624 -0.018786
Cu1   Cu    Cu3+1 0.522260 0.521810 0.644920 0.930633
Cu2   Cu    Cu3+1 0.477740 0.478190 0.355080 0.936667
H1    H     H_    0.932656 0.343815 0.603762 0.140219
H2    H     H_    0.066397 0.656011 0.397044 0.140985
H3    H     H_    0.113521 0.563346 0.754899 0.142247
H4    H     H_    0.885743 0.436259 0.245750 0.144590
H5    H     H_    0.480285 0.863427 0.369172 0.177569
H6    H     H_    0.519387 0.136462 0.630670 0.180706
H7    H     H_    0.532026 0.952986 0.707801 0.146712
H8    H     H_    0.468274 0.047002 0.292032 0.149399
H9    H     H_    0.392647 0.456133 0.853060 0.128019
H10   H     H_    0.580166 0.586145 0.162582 0.155190
N1    N     N_2   0.444270 0.445410 0.137360 -0.130298
N2    N     N_2   0.555730 0.554590 0.862640 -0.141954
O1    O     O_R   0.511880 0.332340 0.577400 -0.582420
O2    O     O_R   0.488120 0.667660 0.422600 -0.585636
O3    O     O_R   0.474280 0.295500 0.332650 -0.576055
O4    O     O_R   0.525720 0.704500 0.667350 -0.575651
O5    O     O_R   0.335640 0.518390 0.622350 -0.593131
O6    O     O_R   0.664360 0.481610 0.377650 -0.587307
O7    O     O_R   0.298050 0.481550 0.377590 -0.575209
O8    O     O_R   0.701950 0.518450 0.622410 -0.595406
C19   C     C_3   0.938175 0.754727 0.672194 -0.893508
H11   H     H_    0.025693 0.821790 0.716617 0.234824
H12   H     H_    0.869771 0.791430 0.602225 0.229464
H13   H     H_    0.894131 0.751033 0.765046 0.232179
C20   C     C_3   0.055238 0.242568 0.328116 -0.907282
H14   H     H_    0.973075 0.173824 0.313413 0.237693
H15   H     H_    0.069495 0.237493 0.217941 0.231210
H16   H     H_    0.141627 0.214050 0.384355 0.227135
C21   C     C_3   0.665949 0.642262 0.952227 -0.117508
C22   C     C_3   0.626803 0.779098 0.036182 -0.874760
H17   H     H_    0.579483 0.821696 0.957822 0.267104
H18   H     H_    0.560444 0.776972 0.111150 0.232408
H19   H     H_    0.712795 0.843232 0.102990 0.224398
H20   H     H_    0.722322 0.601864 0.027887 0.125504
H21   H     H_    0.731225 0.652169 0.879886 0.203707
C23   C     C_3   0.337481 0.355746 0.036182 -0.149539
C24   C     C_3   0.302887 0.240747 0.075880 -0.752744
H22   H     H_    0.384535 0.178763 0.074385 0.244324
H23   H     H_    0.269292 0.272583 0.182191 0.276167
H24   H     H_    0.223106 0.179053 0.991395 0.185451
H25   H     H_    0.252029 0.411312 0.027961 0.154123
H26   H     H_    0.362238 0.305683 0.925093 0.138198

loop_
_geom_bond_atom_site_label_1
_geom_bond_atom_site_label_2
_ccdc_geom_bond_type
C8    H2    S    
C5    C7    S    
C13   H8    S    
C5    C11   S    
Cu1   O5    S    
C14   H7    S    
Cu2   O6    S    
C19   H11   S    
C19   H12   S    
C22   H18   S    
Cu1   Cu2   S    
C5    H3    S    
C4    O8    A    
C6    H4    S    
C2    O2    A    
C6    C9    S    
C13   C15   D    
C22   H17   S    
C3    O7    A    
C5    C10   S    
C18   H9    S    
C21   H21   S    
C20   H14   S    
C17   H10   S    
C9    C11   S    
C3    O5    A    
C24   H22   S    
C10   C12   S    
C8    C11   S    
C2    C14   S    
Cu1   N2    S    
C8    C10   S    
C4    O6    A    
C11   C19   S    
N1    C23   S    
C14   C16   D    
Cu1   O4    S    
C20   H15   S    
C6    C12   S    
C7    C12   S    
C17   N1    D    
C19   H13   S    
C23   H26   S    
N2    C21   S    
C24   H23   S    
C22   H19   S    
C1    C13   S    
Cu1   O8    S    
C1    O1    A    
Cu2   O2    S    
C7    C9    S    
C18   N2    D    
C23   C24   S    
C1    O3    A    
C17   C18   S    
C21   C22   S    
Cu1   O1    S    
C20   H16   S    
C2    O4    A    
C16   H5    S    
C3    C10   S    
Cu2   O7    S    
C23   H25   S    
C15   H6    S    
C6    C8    S    
C21   H20   S    
C4    C9    S    
C7    H1    S    
Cu2   O3    S    
C15   C16   S    
C12   C20   S    
C24   H24   S    
Cu2   N1    S    
