data_mof_unit_28207.cif
_audit_creation_date              2012-12-11T15:48:50-0500
_audit_creation_method            fapswitch 2.2
_symmetry_space_group_name_H-M    P1
_symmetry_Int_Tables_number       1
_space_group_crystal_system       triclinic
_cell_length_a                    11.042592
_cell_length_b                    10.911721
_cell_length_c                    18.828772
_cell_angle_alpha                 90.374154
_cell_angle_beta                  90.030216
_cell_angle_gamma                 60.675738
_cell_volume                      1977.98370572

loop_
_atom_site_label
_atom_site_type_symbol
_atom_type_description
_atom_site_fract_x
_atom_site_fract_y
_atom_site_fract_z
_atom_type_partial_charge
C1    C     C_R   0.246732 0.642798 0.612248 0.548139
C2    C     C_R   0.566367 0.152371 0.711812 -0.173806
C3    C     C_R   0.572488 0.142554 0.784406 -0.128225
C4    C     C_R   0.654451 0.622467 0.601061 0.535249
C5    C     C_3   0.915187 0.114333 0.786189 -0.270948
C6    C     C_3   0.902577 0.123419 0.706390 -0.283863
C7    C     C_R   0.657448 0.183485 0.675622 0.013155
C8    C     C_R   0.196013 0.665479 0.839005 -0.006032
C9    C     C_R   0.226163 0.543227 0.801356 0.020860
C10   C     C_R   0.244093 0.536144 0.728381 -0.023593
C11   C     C_R   0.214086 0.771846 0.728603 -0.042921
C12   C     C_3   0.764804 0.516699 0.793539 -0.240824
C13   C     C_R   0.210643 0.769826 0.802868 -0.160454
C14   C     C_3   0.161780 0.450532 0.800455 -0.046538
C15   C     C_3   0.185518 0.438805 0.720164 -0.263103
C16   C     C_R   0.625757 0.231100 0.603109 0.543770
C17   C     C_R   0.222641 0.654648 0.689383 0.015943
C18   C     C_R   0.653292 0.657339 0.165195 0.017943
C19   C     C_R   0.748459 0.536666 0.202114 0.030802
C20   C     C_R   0.743402 0.530790 0.274656 0.037787
C21   C     C_R   0.531729 0.751247 0.277401 -0.163010
C22   C     C_R   0.536092 0.758082 0.202701 -0.170864
C23   C     C_3   0.703533 0.673369 0.813006 0.056700
C24   C     C_3   0.904638 0.458117 0.203223 -0.265446
C25   C     C_3   0.897126 0.454269 0.283142 -0.280156
C26   C     C_R   0.642994 0.641795 0.314398 0.018409
C27   C     C_R   0.636345 0.188544 0.168871 0.021472
C28   C     C_R   0.220891 0.648852 0.401982 0.557194
C29   C     C_R   0.519409 0.206580 0.206584 0.023798
C30   C     C_R   0.515311 0.218780 0.279244 0.032578
C31   C     C_R   0.730481 0.223637 0.278141 -0.154143
C32   C     C_R   0.733279 0.214785 0.204070 -0.155184
C33   C     C_3   0.450528 0.117814 0.208807 -0.268840
C34   C     C_3   0.675261 0.647221 0.677053 0.042857
C35   C     C_3   0.445778 0.132488 0.288734 -0.281065
C36   C     C_R   0.626791 0.213162 0.316595 0.021110
C37   C     C_R   0.117717 0.690233 0.188688 0.023539
C38   C     C_R   0.071678 0.810185 0.231498 0.044780
C39   C     C_R   0.085062 0.801473 0.303740 0.014783
C40   C     C_R   0.638729 0.619527 0.390502 0.545919
C41   C     C_R   0.173636 0.550731 0.294638 -0.164744
C42   C     C_R   0.159949 0.560632 0.220948 -0.179490
C43   C     C_3   0.103900 0.927815 0.227194 -0.263127
C44   C     C_3   0.114604 0.921791 0.307168 -0.273903
C45   C     C_3   0.766336 0.716463 0.687657 -0.250154
C46   C     C_R   0.148792 0.669876 0.335647 0.017727
C47   C     C_R   0.701226 0.100256 0.895918 0.551096
C48   C     C_R   0.724486 0.687558 0.888668 0.538720
C49   C     C_R   0.119920 0.705672 0.906398 0.550359
C50   C     C_R   0.673456 0.110669 0.102530 0.550894
C51   C     C_R   0.695917 0.688182 0.096926 0.541326
C52   C     C_R   0.611342 0.238877 0.392324 0.547440
C53   C     C_R   0.089072 0.711941 0.113933 0.551067
C54   C     C_3   0.548286 0.749294 0.794241 -0.244491
C55   C     C_3   0.534649 0.740728 0.713754 -0.233486
C56   C     C_3   0.743221 0.502872 0.714985 -0.216973
C57   C     C_3   0.775270 0.740820 0.768198 -0.219016
C58   C     C_3   0.204163 0.903068 0.694641 -0.387605
C59   C     C_2   0.242034 0.315140 0.839984 0.564475
C60   C     C_R   0.675285 0.155721 0.824013 0.029863
C61   C     C_R   0.761605 0.193052 0.788153 -0.015437
C62   C     C_R   0.751609 0.206728 0.714485 0.003271
Cr1   Cr    Cr6+3 0.392960 0.397920 0.502240 1.009513
Cr2   Cr    Cr6+3 0.398340 0.708480 0.501250 0.995792
Cr3   Cr    Cr6+3 0.708670 0.393570 0.496460 1.004110
Cr4   Cr    Cr6+3 0.937650 0.938540 0.007610 1.012978
Cr5   Cr    Cr6+3 0.625330 0.937370 0.994520 1.028550
Cr6   Cr    Cr6+3 0.937940 0.625230 0.001190 1.035525
H1    H     H_    0.496501 0.861848 0.810739 0.133298
H2    H     H_    0.923901 0.022584 0.681055 0.138597
H3    H     H_    0.494883 0.699359 0.822101 0.125997
H4    H     H_    0.202037 0.859968 0.831777 0.145439
H5    H     H_    0.051751 0.505148 0.816080 0.111965
H6    H     H_    0.265076 0.333073 0.701286 0.161207
H7    H     H_    0.088286 0.485117 0.689016 0.107264
H8    H     H_    0.445386 0.833895 0.306055 0.121307
H9    H     H_    0.454312 0.846985 0.175364 0.117507
H10   H     H_    0.950484 0.522710 0.185155 0.176994
H11   H     H_    0.948769 0.352507 0.177908 0.125710
H12   H     H_    0.845620 0.428850 0.690938 0.144890
H13   H     H_    0.938398 0.346446 0.304226 0.131104
H14   H     H_    0.468508 0.692621 0.703379 0.152937
H15   H     H_    0.935402 0.519088 0.310639 0.145790
H16   H     H_    0.811370 0.233595 0.305209 0.129697
H17   H     H_    0.817928 0.214691 0.175217 0.120735
H18   H     H_    0.521620 0.009047 0.190796 0.167050
H19   H     H_    0.346168 0.169980 0.183731 0.133632
H20   H     H_    0.338571 0.194481 0.310094 0.132622
H21   H     H_    0.512587 0.031972 0.316566 0.140066
H22   H     H_    0.217767 0.447572 0.318136 0.141855
H23   H     H_    0.884605 0.701083 0.783444 0.108417
H24   H     H_    0.188050 0.467056 0.189414 0.125652
H25   H     H_    0.015715 0.026091 0.207526 0.141032
H26   H     H_    0.491793 0.848423 0.691886 0.122074
H27   H     H_    0.204662 0.896216 0.200260 0.138452
H28   H     H_    0.220289 0.893572 0.325373 0.161124
H29   H     H_    0.029702 0.015520 0.333972 0.128540
H30   H     H_    0.722671 0.855580 0.778991 0.126376
H31   H     H_    0.720785 0.818592 0.659283 0.113287
H32   H     H_    0.877595 0.456104 0.805135 0.146866
H33   H     H_    0.713446 0.469245 0.825315 0.128118
H34   H     H_    0.871140 0.648533 0.665032 0.117812
H35   H     H_    0.671428 0.459958 0.708832 0.141253
H36   H     H_    0.295656 0.884298 0.664467 0.154792
H37   H     H_    0.126379 0.942835 0.652361 0.150362
H38   H     H_    0.184560 0.987255 0.733801 0.144354
H39   H     H_    0.283046 0.114812 0.852130 0.321631
H40   H     H_    0.490031 0.134847 0.684183 0.133989
H41   H     H_    0.504250 0.109183 0.807782 0.178230
H42   H     H_    0.957889 0.005685 0.806291 0.165383
H43   H     H_    0.961625 0.175910 0.809202 0.165383
H44   H     H_    0.948646 0.182913 0.681191 0.141383
O1    O     O_R   0.507380 0.255700 0.581440 -0.529058
O2    O     O_R   0.837170 0.593410 0.915250 -0.528922
O3    O     O_R   0.065200 0.635530 0.931570 -0.487387
O4    O     O_R   0.280320 0.527350 0.578930 -0.499319
O5    O     O_R   0.068260 0.828890 0.091840 -0.520703
O6    O     O_R   0.798870 0.057410 0.079340 -0.510051
O7    O     O_R   0.584930 0.080350 0.076780 -0.510658
O8    O     O_R   0.626960 0.809650 0.067060 -0.507551
O9    O     O_R   0.816040 0.596610 0.076510 -0.524355
O10   O     O_R   0.045610 0.638500 0.081060 -0.507864
O11   O     O_3   0.833640 0.833710 0.001100 -0.262723
O12   O     O_R   0.524480 0.695810 0.424040 -0.508943
O13   O     O_R   0.260510 0.739590 0.584590 -0.538555
O14   O     O_R   0.532300 0.695080 0.573820 -0.514706
O15   O     O_R   0.744840 0.503500 0.576370 -0.526366
O16   O     O_R   0.699120 0.276560 0.571960 -0.501951
O17   O     O_R   0.498940 0.256500 0.419860 -0.521169
O18   O     O_R   0.272500 0.528080 0.429150 -0.511077
O19   O     O_R   0.252060 0.740380 0.423010 -0.525527
O20   O     O_2   0.313776 0.308574 0.890899 -0.498717
O21   O     O_R   0.227423 0.199135 0.820666 -0.754651
O22   O     O_R   0.736390 0.504290 0.414790 -0.519021
O23   O     O_R   0.691300 0.277290 0.422170 -0.511343
O24   O     O_3   0.499990 0.499990 0.499980 -0.253877
O25   O     O_R   0.089400 0.825690 0.930570 -0.535326
O26   O     O_R   0.818460 0.054440 0.929850 -0.509139
O27   O     O_R   0.606060 0.077150 0.915510 -0.496903
O28   O     O_R   0.646550 0.806680 0.917570 -0.516365

loop_
_geom_bond_atom_site_label_1
_geom_bond_atom_site_label_2
_ccdc_geom_bond_type
C15   H7    S    
C21   C26   A    
Cr2   O24   S    
C34   C56   S    
C8    C13   A    
C49   O25   A    
C27   C29   A    
C41   C42   A    
C2    C7    A    
C43   C44   S    
C26   C40   S    
C16   O1    A    
C14   C59   S    
C54   H1    S    
C21   H8    S    
C45   C57   S    
C29   C30   A    
C30   C35   S    
C52   O17   A    
Cr3   O15   S    
C1    O13   A    
C53   O10   A    
C31   C36   A    
C38   C39   A    
C53   O5    A    
C20   C25   S    
C32   H17   S    
C10   C17   A    
C29   C33   S    
C23   C57   S    
C18   C19   A    
C44   H29   S    
Cr1   O18   S    
C37   C42   A    
C33   C35   S    
C47   C60   S    
C54   H3    S    
C19   C20   A    
C8    C9    A    
Cr4   O5    S    
Cr4   O26   S    
C43   H27   S    
C41   C46   A    
C1    O4    A    
C11   C58   S    
Cr5   O27   S    
Cr5   O8    S    
C28   O18   A    
Cr3   O22   S    
C36   C52   S    
C27   C50   S    
C37   C53   S    
C3    C60   A    
C41   H22   S    
C34   C55   S    
C50   O6    A    
C21   C22   A    
C25   H13   S    
C55   H26   S    
Cr6   O11   S    
C18   C51   S    
C40   O12   A    
C4    C34   S    
C59   O20   D    
C48   O28   A    
C50   O7    A    
Cr3   O16   S    
C24   C25   S    
C56   H35   S    
C45   H31   S    
Cr6   O10   S    
C9    C14   S    
C5    H43   S    
Cr2   O12   S    
C40   O22   A    
C59   O21   S    
C31   H16   S    
C60   C61   A    
C58   H38   S    
Cr1   O1    S    
C33   H18   S    
C14   H5    S    
C7    C62   A    
C37   C38   A    
C44   H28   S    
C35   H20   S    
C24   H11   S    
C31   C32   A    
C12   C23   S    
Cr2   O19   S    
C28   C46   S    
C51   O8    A    
C5    C61   S    
C34   C45   S    
C12   C56   S    
C55   H14   S    
Cr5   O28   S    
C16   O16   A    
Cr3   O23   S    
C39   C46   A    
Cr1   O4    S    
C35   H21   S    
C24   H10   S    
C7    C16   S    
C49   O3    A    
Cr2   O14   S    
Cr4   O6    S    
C51   O9    A    
C58   H36   S    
C23   C54   S    
C48   O2    A    
C9    C10   A    
C6    H2    S    
C54   C55   S    
C11   C17   A    
C23   C48   S    
C57   H23   S    
C4    O15   A    
C27   C32   A    
C18   C22   A    
C6    H44   S    
C22   H9    S    
Cr5   O11   S    
Cr6   O9    S    
C39   C44   S    
C13   H4    S    
C30   C36   A    
C1    C17   S    
C56   H12   S    
C4    O14   A    
C10   C15   S    
C28   O19   A    
Cr1   O24   S    
C58   H37   S    
C2    C3    A    
C33   H19   S    
C12   H33   S    
H39   O21   S    
C11   C13   A    
C6    C62   S    
C5    C6    S    
Cr4   O25   S    
C20   C26   A    
C3    H41   S    
C57   H30   S    
C47   O26   A    
C2    H40   S    
C43   H25   S    
C19   C24   S    
C42   H24   S    
Cr1   O17   S    
C61   C62   A    
C12   H32   S    
Cr3   O24   S    
C45   H34   S    
Cr6   O3    S    
Cr4   O11   S    
C38   C43   S    
C15   H6    S    
Cr2   O13   S    
C5    H42   S    
C47   O27   A    
C25   H15   S    
C52   O23   A    
C14   C15   S    
Cr5   O7    S    
C8    C49   S    
Cr6   O2    S    
