data_mof_unit_63135.cif
_audit_creation_date              2013-03-05T16:45:00-0500
_audit_creation_method            fapswitch 2.2
_symmetry_space_group_name_H-M    P1
_symmetry_Int_Tables_number       1
_space_group_crystal_system       triclinic
_cell_length_a                    11.692729
_cell_length_b                    15.927142
_cell_length_c                    16.987629
_cell_angle_alpha                 95.243686
_cell_angle_beta                  91.517026
_cell_angle_gamma                 92.181232
_cell_volume                      3146.68705926

loop_
_atom_site_label
_atom_site_type_symbol
_atom_site_description
_atom_site_fract_x
_atom_site_fract_y
_atom_site_fract_z
_atom_type_partial_charge
O1    O     O_R   0.494910 0.420530 0.382500 -0.571147
O2    O     O_R   0.505090 0.579470 0.617500 -0.569711
O3    O     O_R   0.504100 0.563720 0.388950 -0.581700
O4    O     O_R   0.495900 0.436280 0.611050 -0.582989
C1    C     C_R   0.500646 0.490647 0.348858 0.858901
C2    C     C_R   0.499358 0.509351 0.651139 0.858656
O5    O     O_R   0.332600 0.428410 0.496780 -0.556093
O6    O     O_R   0.667400 0.571590 0.503220 -0.557501
O7    O     O_R   0.341800 0.571600 0.503230 -0.564850
O8    O     O_R   0.658200 0.428400 0.496770 -0.563559
C3    C     C_R   0.284046 0.500249 0.499679 0.855232
C4    C     C_R   0.715954 0.499751 0.500309 0.854653
Cu1   Cu    Cu3+1 0.494550 0.415220 0.496180 1.025761
Cu2   Cu    Cu3+1 0.505450 0.584780 0.503820 1.026044
C5    C     C_1   0.162399 0.500630 0.499744 -0.052798
C6    C     C_1   0.837600 0.499372 0.500236 -0.053023
C7    C     C_1   0.059898 0.500320 0.499884 0.055089
C8    C     C_1   0.940101 0.499686 0.500095 0.055079
C9    C     C_R   0.499097 0.489647 0.262693 -0.155739
C10   C     C_R   0.500710 0.510323 0.737294 -0.155688
C11   C     C_R   0.579057 0.539968 0.224798 -0.144948
C12   C     C_R   0.420253 0.460312 0.775080 -0.144467
C13   C     C_R   0.563211 0.549444 0.143471 0.230892
C14   C     C_R   0.435838 0.450655 0.856390 0.230891
C15   C     C_R   0.468277 0.507692 0.100845 0.184515
C16   C     C_R   0.531017 0.491940 0.899118 0.184655
C17   C     C_R   0.386461 0.461381 0.140428 0.293081
C18   C     C_R   0.613321 0.537918 0.859633 0.292934
C19   C     C_R   0.404198 0.451235 0.220473 -0.236714
C20   C     C_R   0.595855 0.548235 0.779596 -0.237383
N1    N     N_2   0.455283 0.509359 0.017817 -0.118523
N2    N     N_2   0.543858 0.490162 0.982147 -0.118708
H1    H     H_    0.339174 0.418177 0.251383 0.203866
H2    H     H_    0.661239 0.581007 0.748756 0.205106
N3    N     N_R   0.513630 0.712130 0.509560 -0.254994
N4    N     N_R   0.486370 0.287870 0.490440 -0.254660
C21   C     C_R   0.447308 0.753869 0.458258 0.137016
C22   C     C_R   0.551775 0.246165 0.542314 0.136773
C23   C     C_R   0.451131 0.842853 0.461122 -0.264424
C24   C     C_R   0.547922 0.157179 0.539500 -0.264662
C25   C     C_R   0.522674 0.891648 0.516749 0.358934
C26   C     C_R   0.477430 0.108335 0.483267 0.358868
C27   C     C_R   0.589026 0.848741 0.568051 -0.289877
C28   C     C_R   0.412052 0.151182 0.431368 -0.289968
C29   C     C_R   0.584521 0.759890 0.564087 0.150276
C30   C     C_R   0.416457 0.240033 0.435335 0.149772
N5    N     N_2   0.530983 0.982498 0.523824 -0.201216
N6    N     N_2   0.469137 0.017487 0.476207 -0.201234
H3    H     H_    0.600441 0.126767 0.581148 0.179455
H4    H     H_    0.397792 0.873299 0.419976 0.179313
H5    H     H_    0.644936 0.884884 0.611702 0.177182
H6    H     H_    0.356947 0.114989 0.387251 0.177455
C31   C     C_2   0.322915 0.415406 0.728958 0.971441
O9    O     O_2   0.263709 0.453357 0.684770 -0.604372
O10   O     O_R   0.300016 0.329537 0.735382 -0.671105
H7    H     H_    0.232266 0.306039 0.700656 0.350312
C32   C     C_2   0.676146 0.585345 0.270806 0.971916
O11   O     O_2   0.735766 0.547731 0.315023 -0.603838
O12   O     O_R   0.698327 0.671271 0.264250 -0.671460
H8    H     H_    0.765963 0.695106 0.298913 0.350450
N7    N     N_R   0.357530 0.397444 0.895289 0.183040
O13   O     O_R   0.396183 0.341098 0.938912 -0.251138
O14   O     O_R   0.247501 0.404989 0.887270 -0.241932
N8    N     N_R   0.641030 0.602895 0.104427 0.182914
O15   O     O_R   0.601831 0.658874 0.060607 -0.251877
O16   O     O_R   0.751157 0.595868 0.112433 -0.241811
N9    N     N_R   0.283727 0.425758 0.100225 0.178464
O17   O     O_R   0.230185 0.467687 0.049395 -0.232218
O18   O     O_R   0.234583 0.357441 0.122345 -0.265731
N10   N     N_R   0.716260 0.573033 0.899936 0.178541
O19   O     O_R   0.769178 0.530878 0.950885 -0.232698
O20   O     O_R   0.766135 0.641102 0.877856 -0.265372
C33   C     C_2   0.629054 0.291443 0.602815 0.903850
O21   O     O_2   0.597193 0.304575 0.670640 -0.565093
O22   O     O_R   0.741986 0.311518 0.584453 -0.741183
H9    H     H_    0.787620 0.340783 0.631378 0.336476
C34   C     C_2   0.368960 0.708614 0.398416 0.903627
O23   O     O_2   0.400058 0.694455 0.330508 -0.565312
O24   O     O_R   0.255930 0.689806 0.417461 -0.741014
H10   H     H_    0.209470 0.660472 0.370947 0.336694
C35   C     C_2   0.656964 0.721887 0.621962 0.899583
O25   O     O_2   0.626590 0.721963 0.690251 -0.562348
O26   O     O_R   0.765055 0.694481 0.601141 -0.741891
H11   H     H_    0.807889 0.671622 0.646739 0.336810
C36   C     C_2   0.345159 0.277908 0.376721 0.899738
O27   O     O_2   0.376047 0.276559 0.308468 -0.561567
O28   O     O_R   0.237539 0.306773 0.396868 -0.742142
H12   H     H_    0.195566 0.329429 0.350810 0.336420

loop_
_geom_bond_atom_site_label_1
_geom_bond_atom_site_label_2
_geom_bond_distance
_ccdc_geom_bond_type
C15   N1    1.417376 S    
O28   H12   1.013914 S    
C16   N2    1.417442 S    
C14   N7    1.438280 S    
C17   C19   1.394953 A    
C33   O22   1.396821 S    
C33   O21   1.222567 D    
C31   O10   1.398226 S    
O10   H7    1.013879 S    
C35   O25   1.222078 D    
C23   C25   1.403984 A    
C10   C20   1.394957 A    
C31   O9    1.222849 D    
O5    C3    1.294040 A    
O26   H11   1.014049 S    
O1    C1    1.300486 A    
C9    C11   1.414221 A    
C14   C16   1.418473 A    
C32   O12   1.398220 S    
C24   H3    1.083777 S    
C19   H1    1.082686 S    
O4    Cu1   1.949084 S    
N7    O14   1.301409 A    
C3    C5    1.422651 S    
C4    C6    1.422648 S    
N4    C30   1.380857 A    
N10   O19   1.300860 A    
C34   O23   1.222593 D    
C30   C36   1.467796 S    
C28   H6    1.084582 S    
C24   C26   1.403844 A    
O12   H8    1.013868 S    
Cu1   Cu2   2.689836 S    
C25   C27   1.393507 A    
O2    C2    1.300485 A    
C26   C28   1.393342 A    
C35   O26   1.396592 S    
C28   C30   1.409488 A    
C12   C31   1.486331 S    
C34   O24   1.396897 S    
C29   C35   1.467712 S    
C20   H2    1.082703 S    
C36   O28   1.396446 S    
N9    O17   1.300819 A    
N5    N6    1.252960 D    
Cu1   N4    2.020231 S    
O4    C2    1.292265 A    
Cu2   N3    2.020231 S    
O7    Cu2   1.916696 S    
C36   O27   1.222073 D    
C21   C34   1.469245 S    
N9    O18   1.301506 A    
N8    O16   1.301392 A    
O22   H9    1.013912 S    
C11   C32   1.486360 S    
C27   C29   1.409488 A    
N1    N2    1.247708 D    
O6    C4    1.294028 A    
C7    C8    1.400502 S    
C25   N5    1.440328 S    
C26   N6    1.440281 S    
O7    C3    1.295384 A    
O3    Cu2   1.949084 S    
O8    C4    1.295395 A    
C13   N8    1.438340 S    
C10   C12   1.414178 A    
C11   C13   1.411551 A    
C12   C14   1.411514 A    
O1    Cu1   1.940821 S    
C9    C19   1.394975 A    
C5    C7    1.198411 T    
O6    Cu2   1.913377 S    
N3    C21   1.382821 A    
C18   N10   1.437159 S    
O3    C1    1.292326 A    
O8    Cu1   1.916699 S    
C1    C9    1.461986 S    
C15   C17   1.407982 A    
C2    C10   1.461901 S    
C16   C18   1.408055 A    
N8    O15   1.301349 A    
N4    C22   1.382965 A    
C21   C23   1.412604 A    
C22   C24   1.412673 A    
C27   H5    1.084558 S    
C32   O11   1.222856 D    
C18   C20   1.394995 A    
C13   C15   1.418433 A    
N7    O13   1.301348 A    
O2    Cu2   1.940820 S    
C17   N9    1.437071 S    
O24   H10   1.014016 S    
O5    Cu1   1.913377 S    
C23   H4    1.083773 S    
C6    C8    1.198412 T    
N10   O20   1.301523 A    
C22   C33   1.469227 S    
N3    C29   1.380689 A    
