data_mof_unit_20316.cif
_audit_creation_date              2013-03-05T15:53:42-0500
_audit_creation_method            fapswitch 2.2
_symmetry_space_group_name_H-M    P1
_symmetry_Int_Tables_number       1
_space_group_crystal_system       triclinic
_cell_length_a                    14.839062
_cell_length_b                    14.759414
_cell_length_c                    17.047236
_cell_angle_alpha                 108.885114
_cell_angle_beta                  105.590498
_cell_angle_gamma                 107.629936
_cell_volume                      3075.60785967

loop_
_atom_site_label
_atom_site_type_symbol
_atom_site_description
_atom_site_fract_x
_atom_site_fract_y
_atom_site_fract_z
_atom_type_partial_charge
C1    C     C_R   0.089867 0.273670 0.046329 -0.118786
H1    H     H_    0.167455 0.288884 0.085863 0.115251
N1    N     N_R   0.055640 0.348550 0.045600 -0.037436
C2    C     C_R   0.934323 0.516832 0.746618 -0.208486
H2    H     H_    0.855282 0.493164 0.703228 0.152622
N2    N     N_R   0.960830 0.507850 0.823710 -0.072473
C3    C     C_R   0.760342 0.201056 0.812881 -0.163522
H3    H     H_    0.731750 0.135587 0.828351 0.108957
N3    N     N_R   0.811290 0.303400 0.871650 -0.046660
C4    C     C_R   0.247621 0.521842 0.940321 -0.188016
H4    H     H_    0.245730 0.541109 0.884578 0.105401
N4    N     N_R   0.205180 0.552990 0.997660 -0.050057
C5    C     C_R   0.773951 0.298560 0.735954 -0.037859
H5    H     H_    0.763497 0.322990 0.682151 0.112837
N5    N     N_R   0.814810 0.361830 0.823710 -0.051521
C6    C     C_R   0.256818 0.439429 0.028188 -0.089697
H6    H     H_    0.277992 0.395345 0.063224 0.097110
N6    N     N_R   0.201660 0.494570 0.045600 -0.033771
C7    C     C_R   0.103989 0.615048 0.827385 0.536100
N7    N     N_R   0.068420 0.560530 0.871650 -0.095513
C8    C     C_R   0.918851 0.191420 0.969214 -0.127782
H7    H     H_    0.840012 0.132706 0.937592 0.092555
N8    N     N_R   0.948050 0.295860 0.997660 -0.046527
C9    C     C_R   0.006711 0.173638 0.993121 0.085909
C10   C     C_R   0.022592 0.581854 0.745575 -0.044967
C11   C     C_R   0.739506 0.197029 0.728044 0.098196
C12   C     C_R   0.283687 0.452438 0.959392 0.062868
C13   C     C_R   0.268184 0.694908 0.254995 0.317189
N9    N     N_R   0.185190 0.638170 0.176290 -0.087348
C14   C     C_R   0.703201 0.497080 0.916697 -0.065299
H8    H     H_    0.678958 0.515209 0.860303 0.162927
N10   N     N_R   0.798340 0.505430 0.954400 -0.052902
C15   C     C_R   0.887662 0.460516 0.186964 -0.130952
H9    H     H_    0.805330 0.431281 0.168343 0.099056
N11   N     N_R   0.931580 0.439470 0.128350 -0.047188
C16   C     C_R   0.079155 0.808697 0.041554 -0.135502
H10   H     H_    0.157392 0.869409 0.080560 0.132684
N12   N     N_R   0.051950 0.704140 0.002340 -0.060495
C17   C     C_R   0.907889 0.725762 0.966297 0.648641
N13   N     N_R   0.944360 0.651450 0.954400 -0.095538
C18   C     C_R   0.059951 0.544786 0.263930 -0.090396
H11   H     H_    0.136215 0.592441 0.316962 0.149570
N14   N     N_R   0.039170 0.492150 0.176290 -0.035875
C19   C     C_R   0.269543 0.790140 0.177016 -0.219650
H12   H     H_    0.295906 0.848188 0.152863 0.125443
N15   N     N_R   0.188710 0.696600 0.128350 -0.058591
C20   C     C_R   0.698608 0.405905 0.996995 -0.136383
H13   H     H_    0.671418 0.344679 0.017716 0.090363
N16   N     N_R   0.794820 0.447010 0.002340 -0.049882
Ni1   Ni    Ni4+2 0.119330 0.493420 0.109950 0.285451
Ni2   Ni    Ni4+2 0.880670 0.506580 0.890050 0.254295
Ni3   Ni    Ni4+2 0.872590 0.372590 0.000000 0.199321
Ni4   Ni    Ni4+2 0.127410 0.627410 0.000000 0.215307
C21   C     C_R   0.320411 0.791588 0.257142 -0.085162
C22   C     C_R   0.638564 0.435532 0.942475 0.032866
C23   C     C_R   0.966421 0.528098 0.272916 0.027150
C24   C     C_R   0.990740 0.826438 0.021348 -0.182264
C25   C     C_R   0.386103 0.446957 0.865075 0.177667
C26   C     C_R   0.344536 0.407876 0.918422 0.036300
C27   C     C_R   0.379080 0.339594 0.945436 -0.207443
H14   H     H_    0.347108 0.303621 0.983318 0.132337
C28   C     C_R   0.469144 0.333434 0.939352 -0.189881
H15   H     H_    0.500516 0.290821 0.971120 0.126882
C29   C     C_R   0.526269 0.398166 0.908650 0.024627
C30   C     C_R   0.476360 0.442449 0.860571 0.129431
C31   C     C_3   0.515724 0.549246 0.862056 -0.466517
C32   C     C_3   0.417226 0.554122 0.866387 -0.546934
H16   H     H_    0.584722 0.609115 0.925270 0.202356
H17   H     H_    0.522222 0.545451 0.797714 0.218150
H18   H     H_    0.431787 0.617998 0.931468 0.200513
H19   H     H_    0.366285 0.552307 0.804148 0.197182
C33   C     C_R   0.954318 0.568362 0.358692 0.126518
C34   C     C_R   0.026461 0.620726 0.676383 0.170645
C35   C     C_R   0.127012 0.690439 0.601044 -0.239950
C36   C     C_R   0.122303 0.676362 0.676851 -0.163084
C37   C     C_R   0.934864 0.588518 0.601934 -0.200238
C38   C     C_R   0.939362 0.596319 0.523766 0.147533
C39   C     C_R   0.036450 0.644367 0.522417 0.186709
C40   C     C_R   0.042617 0.634304 0.440285 -0.260359
C41   C     C_R   0.856675 0.530567 0.361448 -0.166061
C42   C     C_R   0.849166 0.546132 0.444009 -0.199514
H20   H     H_    0.118046 0.669018 0.440251 0.137187
H21   H     H_    0.786519 0.482929 0.300067 0.118863
H22   H     H_    0.202088 0.728165 0.601064 0.150336
H23   H     H_    0.773827 0.510537 0.444303 0.141436
H24   H     H_    0.194536 0.702241 0.732487 0.160982
H25   H     H_    0.859904 0.547529 0.600159 0.149078
C43   C     C_R   0.668194 0.107062 0.645233 -0.079918
C44   C     C_R   0.403133 0.883805 0.332044 0.149829
C45   C     C_R   0.448714 0.054145 0.447750 -0.166926
C46   C     C_R   0.386138 0.974579 0.361673 -0.204652
C47   C     C_R   0.489154 0.876578 0.381907 -0.140808
C48   C     C_R   0.550971 0.954528 0.469315 0.100086
C49   C     C_R   0.527795 0.042029 0.503566 0.004146
C50   C     C_R   0.582739 0.114767 0.593451 0.520229
C51   C     C_R   0.691629 0.021284 0.612778 -0.224053
C52   C     C_R   0.631807 0.943738 0.524444 -0.157057
H26   H     H_    0.758008 0.016767 0.654512 0.164937
H27   H     H_    0.431540 0.121759 0.471718 0.177100
H28   H     H_    0.649577 0.876866 0.498832 0.152972
H29   H     H_    0.319373 0.979802 0.321278 0.135263
H30   H     H_    0.502215 0.806449 0.355589 0.139358
C53   C     C_R   0.105112 0.060666 0.978278 0.145394
C54   C     C_R   0.010760 0.069015 0.959203 0.008985
C55   C     C_R   0.920350 0.975400 0.896074 -0.386660
H31   H     H_    0.845262 0.976341 0.881218 0.182645
C56   C     C_R   0.926427 0.881634 0.845607 0.316472
C57   C     C_R   0.023951 0.881227 0.858741 0.028908
C58   C     C_R   0.111136 0.968330 0.929732 0.128570
C59   C     C_3   0.211332 0.026577 0.928358 -0.415990
C60   C     C_3   0.204277 0.127722 0.979659 -0.559123
H32   H     H_    0.275651 0.015497 0.969334 0.189694
H33   H     H_    0.205431 0.013302 0.858759 0.193444
H34   H     H_    0.266169 0.176446 0.049479 0.195504
H35   H     H_    0.191213 0.171283 0.938597 0.201954
O1    O     O_3   0.805017 0.702977 0.921611 -0.620253
C61   C     C_3   0.779868 0.783301 0.968109 -0.219525
H36   H     H_    0.826953 0.861373 0.973678 0.153692
H37   H     H_    0.788297 0.788517 0.036478 0.118511
H38   H     H_    0.698048 0.763403 0.928897 0.182682
O2    O     O_3   0.558785 0.198854 0.628697 -0.631886
C62   C     C_3   0.497605 0.173952 0.675908 -0.241066
H39   H     H_    0.540680 0.164539 0.734885 0.143057
H40   H     H_    0.424176 0.101319 0.630069 0.138508
H41   H     H_    0.477002 0.240400 0.702730 0.174908
N17   N     N_R   0.834576 0.789394 0.777226 0.259336
O3    O     O_R   0.840706 0.702713 0.733322 -0.409359
O4    O     O_R   0.743923 0.790121 0.759786 -0.393535
O5    O     O_3   0.170610 0.722168 0.873738 -0.613147
C63   C     C_3   0.272379 0.739216 0.919968 -0.335155
H42   H     H_    0.323596 0.824087 0.945209 0.177715
H43   H     H_    0.299903 0.693415 0.873936 0.127948
H44   H     H_    0.280384 0.724573 0.980668 0.170636
N18   N     N_R   0.308227 0.650915 0.312006 0.210174
O6    O     O_R   0.286181 0.550377 0.277481 -0.427390
O7    O     O_R   0.352970 0.706546 0.399700 -0.422471

loop_
_geom_bond_atom_site_label_1
_geom_bond_atom_site_label_2
_geom_bond_distance
_ccdc_geom_bond_type
C4    C12   1.376801 A    
C7    O5    1.387789 S    
C31   H16   1.110349 S    
C43   C51   1.395180 A    
N17   O3    1.300948 A    
C34   C36   1.406868 A    
C18   H11   1.071913 S    
N1    N8    1.398844 A    
C7    N7    1.358436 A    
C2    C10   1.378080 A    
N8    Ni3   1.816833 S    
C3    H3    1.077048 S    
C18   C23   1.393569 A    
C38   C39   1.410150 A    
O1    C61   1.411297 S    
C55   C56   1.417774 A    
C48   C49   1.419824 A    
C3    C11   1.372446 A    
C13   N18   1.432134 S    
C27   C28   1.395419 A    
C16   H10   1.078015 S    
N12   N13   1.398845 A    
C33   C40   1.403682 A    
C61   H37   1.112518 S    
C14   H8    1.078966 S    
C31   H17   1.111685 S    
C17   C24   1.403827 A    
C57   C58   1.391002 A    
C53   C60   1.493171 S    
C1    H1    1.076359 S    
C59   C60   1.517600 S    
C28   C29   1.406021 A    
C36   H24   1.079524 S    
C6    H6    1.073921 S    
C23   C33   1.472024 S    
C51   H26   1.083808 S    
C56   C57   1.405851 A    
N5    Ni2   1.837259 S    
N2    Ni2   1.848654 S    
C44   C46   1.395983 A    
N11   N14   1.398841 A    
C32   H19   1.111793 S    
N4    Ni4   1.817708 S    
C47   H30   1.085293 S    
C50   O2    1.388128 S    
C15   C23   1.391056 A    
C31   C32   1.505079 S    
C43   C50   1.396715 A    
C26   C27   1.406041 A    
C8    H7    1.074568 S    
C51   C52   1.384161 A    
C18   N14   1.336642 A    
N3    Ni3   1.891763 S    
C46   H29   1.084251 S    
C41   H21   1.080679 S    
C54   C55   1.416208 A    
N1    Ni1   1.835410 S    
C19   N15   1.324252 A    
C45   C49   1.396956 A    
N9    Ni1   1.837258 S    
C35   C36   1.389848 A    
C37   C38   1.391357 A    
C21   C44   1.417794 S    
C2    N2    1.328884 A    
C16   C24   1.389996 A    
C58   C59   1.485853 S    
C61   H38   1.108101 S    
C17   N13   1.345936 A    
C13   C21   1.385355 A    
C39   C40   1.390428 A    
N7    Ni4   1.891295 S    
N18   O7    1.300583 A    
C25   C26   1.402074 A    
C27   H14   1.076140 S    
C1    N1    1.350946 A    
C63   H43   1.111631 S    
N10   Ni2   1.848270 S    
C28   H15   1.080703 S    
C25   C30   1.382056 A    
C20   H13   1.080077 S    
C59   H33   1.112220 S    
C38   C42   1.399297 A    
N16   Ni3   1.817706 S    
C22   C29   1.460946 S    
C15   H9    1.078483 S    
C44   C47   1.386085 A    
C37   H25   1.080114 S    
O2    C62   1.410355 S    
C4    N4    1.333717 A    
C6    N6    1.340929 A    
C17   O1    1.386290 S    
C5    N5    1.320145 A    
C34   C37   1.405352 A    
C5    C11   1.375946 A    
C63   H44   1.107165 S    
C62   H40   1.113381 S    
C48   C52   1.397897 A    
C45   H27   1.083444 S    
C53   C54   1.402468 A    
C52   H28   1.083926 S    
C19   H12   1.080981 S    
N6    Ni1   1.848268 S    
C20   C22   1.379454 A    
O5    C63   1.402385 S    
C14   C22   1.376765 A    
C3    N3    1.333593 A    
C13   N9    1.333393 A    
N17   O4    1.301494 A    
C56   N17   1.436899 S    
C35   H22   1.084011 S    
C41   C42   1.391613 A    
C40   H20   1.080968 S    
N14   Ni1   1.848656 S    
N18   O6    1.300934 A    
C20   N16   1.335779 A    
N13   Ni2   1.835409 S    
N2    N7    1.398841 A    
C55   H31   1.079734 S    
N9    N15   1.366101 A    
C53   C58   1.390540 A    
C32   H18   1.112216 S    
C29   C30   1.400402 A    
C62   H41   1.109439 S    
C8    N8    1.340763 A    
C63   H42   1.109286 S    
N3    N5    1.366102 A    
C33   C41   1.405967 A    
C12   C26   1.461867 S    
C61   H36   1.109422 S    
C14   N10   1.333029 A    
C45   C46   1.373349 A    
N12   Ni4   1.816833 S    
C6    C12   1.386354 A    
N15   Ni4   1.891760 S    
C16   N12   1.342051 A    
C47   C48   1.378998 A    
C15   N11   1.338413 A    
C60   H34   1.111555 S    
C10   C34   1.475900 S    
C49   C50   1.377898 A    
C7    C10   1.392030 A    
C59   H32   1.111643 S    
N10   N16   1.365982 A    
C4    H4    1.072417 S    
C19   C21   1.361299 A    
C25   C32   1.498202 S    
C2    H2    1.078441 S    
C1    C9    1.397531 A    
C11   C43   1.417153 S    
C30   C31   1.494977 S    
C35   C39   1.397552 A    
C8    C9    1.387675 A    
N4    N6    1.365983 A    
N11   Ni3   1.891292 S    
C60   H35   1.111240 S    
C9    C54   1.489736 S    
C62   H39   1.112433 S    
C5    H5    1.080199 S    
C42   H23   1.083882 S    
