data_mof_unit_54492.cif
_audit_creation_date              2012-10-26T17:13:04-0400
_audit_creation_method            fapswitch 2.2
_symmetry_space_group_name_H-M    P1
_symmetry_Int_Tables_number       1
_space_group_crystal_system       triclinic
_cell_length_a                    16.83785
_cell_length_b                    16.83785
_cell_length_c                    16.837852
_cell_angle_alpha                 67.547426
_cell_angle_beta                  67.547427
_cell_angle_gamma                 67.547433
_cell_volume                      3918.63594106

loop_
_atom_site_label
_atom_site_type_symbol
_atom_type_description
_atom_site_fract_x
_atom_site_fract_y
_atom_site_fract_z
_atom_type_partial_charge
C1    C     C_R   0.311627 0.001114 0.436419 0.030437
C2    C     C_R   0.320454 0.451423 0.961951 -0.027351
C3    C     C_R   0.536652 0.412399 0.001769 -0.042917
C4    C     C_R   0.007842 0.455454 0.589807 -0.063285
C5    C     C_R   0.001770 0.536652 0.412398 -0.042917
C6    C     C_R   0.998886 0.688373 0.563581 0.030437
C7    C     C_R   0.961951 0.320454 0.451423 -0.027351
C8    C     C_R   0.454222 0.993058 0.449460 -0.003280
C9    C     C_R   0.550539 0.006943 0.545778 -0.003280
C10   C     C_R   0.993057 0.449460 0.454222 -0.003280
C11   C     C_R   0.006943 0.545778 0.550539 -0.003280
C12   C     C_R   0.449460 0.454222 0.993057 -0.003280
C13   C     C_R   0.545778 0.550540 0.006943 -0.003280
C14   C     C_R   0.015605 0.830876 0.569062 0.557563
C15   C     C_R   0.679546 0.038049 0.548577 -0.027351
C16   C     C_R   0.973193 0.171388 0.434964 0.523290
C17   C     C_R   0.830876 0.569062 0.015605 0.557563
C18   C     C_R   0.171388 0.434964 0.973193 0.523290
C19   C     C_R   0.569062 0.015605 0.830876 0.557563
C20   C     C_R   0.434964 0.973193 0.171388 0.523290
C21   C     C_R   0.430938 0.169124 0.984395 0.557563
C22   C     C_R   0.565036 0.828612 0.026806 0.523291
C23   C     C_R   0.984395 0.430938 0.169124 0.557563
C24   C     C_R   0.026807 0.565036 0.828612 0.523291
C25   C     C_R   0.169124 0.984395 0.430938 0.557563
C26   C     C_R   0.001114 0.436419 0.311627 0.030437
C27   C     C_R   0.828612 0.026807 0.565036 0.523290
C28   C     C_R   0.405709 0.984718 0.402174 -0.047554
C29   C     C_R   0.597826 0.015283 0.594290 -0.047554
C30   C     C_R   0.984718 0.402174 0.405709 -0.047553
C31   C     C_R   0.015282 0.594291 0.597826 -0.047554
C32   C     C_R   0.402174 0.405709 0.984718 -0.047554
C33   C     C_R   0.594290 0.597826 0.015282 -0.047553
C34   C     C_R   0.264031 0.986008 0.391482 -0.008759
C35   C     C_R   0.730978 0.036617 0.600282 -0.040516
C36   C     C_R   0.986008 0.391482 0.264031 -0.008759
C37   C     C_R   0.038049 0.548577 0.679546 -0.027351
C38   C     C_R   0.036617 0.600282 0.730978 -0.040515
C39   C     C_R   0.391482 0.264031 0.986008 -0.008759
C40   C     C_R   0.600282 0.730978 0.036617 -0.040516
C41   C     C_R   0.608517 0.013992 0.735968 -0.008759
C42   C     C_R   0.399718 0.963383 0.269022 -0.040516
C43   C     C_R   0.735969 0.608518 0.013992 -0.008759
C44   C     C_R   0.269022 0.399718 0.963383 -0.040516
C45   C     C_R   0.013992 0.735969 0.608518 -0.008759
C46   C     C_R   0.963383 0.269022 0.399718 -0.040515
C47   C     C_R   0.486196 0.966880 0.730442 0.295354
C48   C     C_R   0.436419 0.311627 0.001114 0.030437
C49   C     C_R   0.547026 0.942413 0.292225 0.306454
C50   C     C_R   0.966879 0.730442 0.486197 0.295354
C51   C     C_R   0.942414 0.292225 0.547026 0.306454
C52   C     C_R   0.730442 0.486197 0.966878 0.295354
C53   C     C_R   0.292225 0.547026 0.942414 0.306455
C54   C     C_R   0.269558 0.033122 0.513803 0.295354
C55   C     C_R   0.707775 0.057587 0.452974 0.306454
C56   C     C_R   0.513803 0.269558 0.033121 0.295354
C57   C     C_R   0.452974 0.707775 0.057587 0.306454
C58   C     C_R   0.033121 0.513803 0.269558 0.295354
C59   C     C_R   0.548577 0.679546 0.038049 -0.027350
C60   C     C_R   0.057587 0.452974 0.707775 0.306454
C61   C     C_R   0.308604 0.969798 0.307820 -0.168937
C62   C     C_R   0.692179 0.030202 0.691395 -0.168937
C63   C     C_R   0.969798 0.307820 0.308604 -0.168937
C64   C     C_R   0.030202 0.691396 0.692179 -0.168937
C65   C     C_R   0.307820 0.308604 0.969798 -0.168937
C66   C     C_R   0.691396 0.692180 0.030202 -0.168937
C67   C     C_R   0.672669 0.026349 0.410172 0.064957
C68   C     C_R   0.320066 0.014440 0.572396 0.009464
C69   C     C_R   0.026350 0.410172 0.672669 0.064957
C70   C     C_R   0.563580 0.998887 0.688373 0.030437
C71   C     C_R   0.014438 0.572396 0.320066 0.009463
C72   C     C_R   0.410172 0.672669 0.026350 0.064957
C73   C     C_R   0.572396 0.320067 0.014438 0.009463
C74   C     C_R   0.589828 0.973651 0.327331 0.064957
C75   C     C_R   0.427603 0.985563 0.679933 0.009463
C76   C     C_R   0.327331 0.589827 0.973652 0.064957
C77   C     C_R   0.679934 0.427604 0.985561 0.009463
C78   C     C_R   0.973651 0.327331 0.589827 0.064957
C79   C     C_R   0.985562 0.679933 0.427603 0.009463
C80   C     C_R   0.715661 0.017385 0.322290 0.240308
C81   C     C_R   0.451423 0.961951 0.320454 -0.027351
C82   C     C_R   0.280794 0.007716 0.664624 0.216051
C83   C     C_R   0.017385 0.322290 0.715660 0.240308
C84   C     C_R   0.007714 0.664625 0.280795 0.216050
C85   C     C_R   0.322290 0.715660 0.017386 0.240308
C86   C     C_R   0.664625 0.280795 0.007714 0.216050
C87   C     C_R   0.677710 0.982615 0.284339 0.240308
C88   C     C_R   0.335374 0.992288 0.719204 0.216049
C89   C     C_R   0.284339 0.677709 0.982617 0.240310
C90   C     C_R   0.719205 0.335375 0.992285 0.216050
C91   C     C_R   0.982616 0.284339 0.677710 0.240309
C92   C     C_R   0.688373 0.563581 0.998886 0.030437
C93   C     C_R   0.992286 0.719205 0.335375 0.216050
C94   C     C_R   0.544546 0.992159 0.410193 -0.063285
C95   C     C_R   0.463348 0.998231 0.587601 -0.042917
C96   C     C_R   0.992159 0.410193 0.544546 -0.063285
C97   C     C_R   0.998230 0.587601 0.463348 -0.042917
C98   C     C_R   0.410193 0.544546 0.992159 -0.063285
C99   C     C_R   0.587601 0.463348 0.998230 -0.042917
C100  C     C_R   0.589807 0.007842 0.455454 -0.063285
C101  C     C_R   0.412398 0.001771 0.536651 -0.042917
C102  C     C_R   0.455454 0.589807 0.007842 -0.063284
Cu1   Cu    Cu3+1 0.995180 0.995180 0.424630 1.132119
Cu2   Cu    Cu3+1 0.004820 0.004820 0.575370 1.132119
Cu3   Cu    Cu3+1 0.995180 0.424630 0.995180 1.132119
Cu4   Cu    Cu3+1 0.004820 0.575370 0.004820 1.132119
Cu5   Cu    Cu3+1 0.424630 0.995180 0.995180 1.132118
Cu6   Cu    Cu3+1 0.575370 0.004820 0.004820 1.132118
H1    H     H_    0.270954 0.965136 0.270800 0.171043
H2    H     H_    0.942397 0.197655 0.788118 0.330919
H3    H     H_    0.817656 0.236455 0.028616 0.336629
H4    H     H_    0.197653 0.788118 0.942399 0.330919
H5    H     H_    0.182343 0.971389 0.763545 0.336632
H6    H     H_    0.802344 0.057605 0.211881 0.330918
H7    H     H_    0.763545 0.182345 0.971382 0.336629
H8    H     H_    0.211880 0.802342 0.057610 0.330917
H9    H     H_    0.971383 0.763545 0.182345 0.336629
H10   H     H_    0.057607 0.211881 0.802343 0.330917
H11   H     H_    0.438101 0.870039 0.821845 0.356389
H12   H     H_    0.729200 0.034864 0.729046 0.171043
H13   H     H_    0.564596 0.845389 0.246667 0.304051
H14   H     H_    0.870037 0.821846 0.438103 0.356388
H15   H     H_    0.845389 0.246667 0.564596 0.304051
H16   H     H_    0.821846 0.438103 0.870037 0.356388
H17   H     H_    0.246667 0.564597 0.845389 0.304052
H18   H     H_    0.178154 0.129964 0.561895 0.356388
H19   H     H_    0.753333 0.154611 0.435404 0.304051
H20   H     H_    0.561897 0.178154 0.129962 0.356388
H21   H     H_    0.435404 0.753333 0.154611 0.304052
H22   H     H_    0.129963 0.561897 0.178154 0.356388
H23   H     H_    0.965136 0.270800 0.270954 0.171043
H24   H     H_    0.154611 0.435404 0.753333 0.304051
H25   H     H_    0.034864 0.729046 0.729200 0.171043
H26   H     H_    0.270800 0.270954 0.965136 0.171043
H27   H     H_    0.729046 0.729200 0.034864 0.171043
H28   H     H_    0.236456 0.028622 0.817653 0.336628
H29   H     H_    0.788119 0.942395 0.197656 0.330919
H30   H     H_    0.028617 0.817655 0.236455 0.336629
O1    O     O_R   0.124540 0.978640 0.385460 -0.526791
O2    O     O_R   0.124540 0.385460 0.978640 -0.511751
O3    O     O_R   0.021360 0.875460 0.614540 -0.526791
O4    O     O_R   0.978640 0.124540 0.385460 -0.511751
O5    O     O_R   0.013780 0.867370 0.487190 -0.435959
O6    O     O_R   0.986220 0.132630 0.512810 -0.437696
O7    O     O_R   0.867370 0.487190 0.013780 -0.435959
O8    O     O_R   0.132630 0.512810 0.986220 -0.437696
O9    O     O_R   0.487190 0.013780 0.867370 -0.435959
O10   O     O_R   0.512810 0.986220 0.132630 -0.437696
O11   O     O_R   0.512810 0.132630 0.986220 -0.435959
O12   O     O_R   0.875460 0.021360 0.614540 -0.511751
O13   O     O_R   0.487190 0.867370 0.013780 -0.437696
O14   O     O_R   0.986220 0.512810 0.132630 -0.435959
O15   O     O_R   0.013780 0.487190 0.867370 -0.437696
O16   O     O_R   0.132630 0.986220 0.512810 -0.435959
O17   O     O_R   0.867370 0.013780 0.487190 -0.437696
O18   O     O_3   0.299503 0.991803 0.808143 -0.683383
O19   O     O_3   0.723095 0.961409 0.204110 -0.625539
O20   O     O_3   0.991800 0.808144 0.299504 -0.683380
O21   O     O_3   0.961410 0.204109 0.723094 -0.625539
O22   O     O_3   0.808144 0.299505 0.991799 -0.683380
O23   O     O_R   0.978640 0.385460 0.124540 -0.526791
O24   O     O_3   0.204109 0.723093 0.961412 -0.625537
O25   O     O_3   0.191855 0.008203 0.700495 -0.683381
O26   O     O_3   0.795890 0.038591 0.276905 -0.625539
O27   O     O_3   0.700496 0.191857 0.008199 -0.683381
O28   O     O_3   0.276905 0.795890 0.038592 -0.625539
O29   O     O_3   0.008200 0.700496 0.191856 -0.683381
O30   O     O_3   0.038592 0.276905 0.795890 -0.625539
O31   O     O_3   0.479329 0.903734 0.812947 -0.639428
O32   O     O_3   0.600242 0.883289 0.241398 -0.611885
O33   O     O_3   0.903733 0.812948 0.479329 -0.639427
O34   O     O_R   0.021360 0.614540 0.875460 -0.511752
O35   O     O_3   0.883289 0.241398 0.600242 -0.611885
O36   O     O_3   0.812948 0.479330 0.903733 -0.639427
O37   O     O_3   0.241398 0.600242 0.883289 -0.611885
O38   O     O_3   0.187052 0.096268 0.520670 -0.639428
O39   O     O_3   0.758602 0.116711 0.399758 -0.611885
O40   O     O_3   0.520671 0.187052 0.096267 -0.639428
O41   O     O_3   0.399758 0.758602 0.116711 -0.611886
O42   O     O_3   0.096267 0.520671 0.187052 -0.639428
O43   O     O_3   0.116711 0.399758 0.758602 -0.611886
O44   O     O_R   0.385460 0.124540 0.978640 -0.526791
O45   O     O_R   0.614540 0.875460 0.021360 -0.511751
O46   O     O_R   0.614540 0.021360 0.875460 -0.526791
O47   O     O_R   0.385460 0.978640 0.124540 -0.511751
O48   O     O_R   0.875460 0.614540 0.021360 -0.526791

loop_
_geom_bond_atom_site_label_1
_geom_bond_atom_site_label_2
_ccdc_geom_bond_type
Cu3   O15   S    
C23   O14   A    
C6    C45   A    
C55   O39   S    
C74   C94   A    
C17   O7    A    
H3    O22   S    
C61   H1    S    
C50   C79   A    
C72   C85   A    
C75   C95   A    
C56   O40   S    
C66   H27   S    
C42   C81   A    
C22   O45   A    
C85   O28   S    
C88   O18   S    
C16   O6    A    
C79   C93   A    
C80   C87   A    
C18   C44   S    
C49   O32   S    
H28   O18   S    
C58   C71   A    
C57   C59   A    
C54   C68   A    
C82   O25   S    
C76   C98   A    
C3    C99   A    
C63   H23   S    
C2    C32   A    
C54   O38   S    
C51   O35   S    
C10   C30   A    
C80   O26   S    
C3    C12   A    
C47   O31   S    
C20   O47   A    
C4    C96   A    
C78   C96   A    
C1    C28   A    
C24   C38   S    
Cu5   Cu6   S    
C20   O10   A    
C77   C99   A    
C50   O33   S    
C10   C96   A    
C74   C87   A    
H7    O27   S    
C36   C63   A    
C8    C101  A    
C9    C95   A    
C62   H12   S    
C65   H26   S    
C9    C29   A    
C25   C34   S    
Cu5   O13   S    
H13   O32   S    
C25   O16   A    
C14   O3    A    
C11   C31   A    
C33   C59   A    
C7    C30   A    
C40   C66   A    
C12   C32   A    
C39   C65   A    
H8    O28   S    
C44   C65   A    
C86   O27   S    
C41   C62   A    
C3    C73   A    
C15   C35   A    
C4    C69   A    
H15   O35   S    
C1    C34   A    
C15   C29   A    
C14   C45   S    
C38   C64   A    
C27   O17   A    
C21   O44   A    
C77   C90   A    
Cu4   O14   S    
Cu6   O46   S    
Cu5   O44   S    
H19   O39   S    
C7    C46   A    
C8    C94   A    
C68   C101  A    
Cu4   O48   S    
C86   C90   A    
C33   C92   A    
C2    C44   A    
C57   O41   S    
C85   C89   A    
C27   C35   S    
C98   C102  A    
C34   C61   A    
C19   O9    A    
C87   O19   S    
C15   C55   A    
C13   C99   A    
C16   O4    A    
C1    C54   A    
C17   C43   S    
C47   C70   A    
C13   C33   A    
C37   C38   A    
C69   C83   A    
Cu1   O1    S    
H24   O43   S    
H5    O25   S    
Cu5   O9    S    
H30   O20   S    
H6    O26   S    
C21   C39   S    
C94   C100  A    
C17   O48   A    
C22   C40   S    
C71   C84   A    
Cu2   O6    S    
C91   O21   S    
C6    C50   A    
C4    C11   A    
C18   O2    A    
C26   C58   A    
C42   C61   A    
H22   O42   S    
C67   C100  A    
H11   O31   S    
Cu1   O17   S    
C5    C97   A    
C26   C30   A    
C27   O12   A    
C21   O11   A    
C8    C28   A    
Cu3   O23   S    
C52   C92   A    
C53   C76   A    
H20   O40   S    
C22   O13   A    
C16   C46   S    
C52   C77   A    
H17   O37   S    
Cu1   O4    S    
C52   O36   S    
C89   O24   S    
Cu1   Cu2   S    
H18   O38   S    
C24   O15   A    
C53   O37   S    
C29   C70   A    
C83   O30   S    
C26   C36   A    
C60   O43   S    
C48   C56   A    
C64   H25   S    
C23   O23   A    
C56   C73   A    
Cu6   O45   S    
C25   O1    A    
C28   C81   A    
C49   C74   A    
Cu4   O34   S    
C79   C97   A    
C67   C80   A    
H21   O41   S    
C2    C53   A    
Cu1   O5    S    
C19   O46   A    
C20   C42   S    
Cu2   O12   S    
C78   C91   A    
C9    C100  A    
H4    O24   S    
Cu3   Cu4   S    
Cu5   O47   S    
C45   C64   A    
C95   C101  A    
C43   C92   A    
Cu4   O8    S    
H29   O19   S    
C46   C63   A    
C11   C97   A    
C68   C82   A    
C14   O5    A    
C51   C78   A    
C7    C51   A    
C55   C67   A    
C5    C71   A    
C84   O29   S    
Cu3   O2    S    
C32   C48   A    
C72   C102  A    
C60   C69   A    
H9    O29   S    
C43   C66   A    
C82   C88   A    
C83   C91   A    
H10   O30   S    
C6    C31   A    
C35   C62   A    
C49   C81   A    
C84   C93   A    
C57   C72   A    
C90   O22   S    
C93   O20   S    
C24   O34   A    
C73   C86   A    
C37   C60   A    
H14   O33   S    
C47   C75   A    
Cu6   O11   S    
C31   C37   A    
C75   C88   A    
C5    C10   A    
H16   O36   S    
C18   O8    A    
C23   C36   S    
C12   C98   A    
C40   C59   A    
Cu2   O3    S    
C41   C70   A    
C76   C89   A    
C58   O42   S    
Cu2   O16   S    
C13   C102  A    
Cu3   O7    S    
H2    O21   S    
C19   C41   S    
C39   C48   A    
Cu6   O10   S    
