data_mof_unit_31305.cif
_audit_creation_date              2012-12-11T18:09:16-0500
_audit_creation_method            fapswitch 2.2
_symmetry_space_group_name_H-M    P1
_symmetry_Int_Tables_number       1
_space_group_crystal_system       triclinic
_cell_length_a                    8.25123
_cell_length_b                    12.694777
_cell_length_c                    19.046244
_cell_angle_alpha                 99.379019
_cell_angle_beta                  91.583072
_cell_angle_gamma                 98.200627
_cell_volume                      1945.60432332

loop_
_atom_site_label
_atom_site_type_symbol
_atom_type_description
_atom_site_fract_x
_atom_site_fract_y
_atom_site_fract_z
_atom_type_partial_charge
Ba1   Ba    Ba6+2 0.853180 0.547790 0.465300 1.648904
Ba2   Ba    Ba6+2 0.336650 0.452300 0.534710 1.640441
Br1   Br    Br    0.622078 0.840551 0.126736 -0.615085
C1    C     C_3   0.704481 0.898407 0.223118 0.088562
C2    C     C_R   0.017243 0.544823 0.727128 0.054980
C3    C     C_R   0.852417 0.411654 0.811956 -0.162981
C4    C     C_3   0.131467 0.772065 0.268619 0.349403
C5    C     C_R   0.783422 0.419694 0.745495 0.008929
C6    C     C_R   0.339591 0.590323 0.189284 -0.188119
C7    C     C_R   0.405951 0.579976 0.255547 -0.002580
C8    C     C_R   0.128599 0.441798 0.198564 -0.142335
C9    C     C_R   0.168549 0.457354 0.272838 0.050237
C10   C     C_R   0.980257 0.491809 0.846029 -0.002263
C11   C     C_R   0.875570 0.476117 0.700479 -0.244231
C12   C     C_3   0.667638 0.815397 0.272362 0.341713
C13   C     C_R   0.206835 0.514558 0.154934 -0.004991
C14   C     C_R   0.312675 0.522627 0.299523 -0.238464
C15   C     C_R   0.756947 0.433186 0.962444 -0.055447
C16   C     C_3   0.113261 0.805253 0.195758 -0.317785
C17   C     C_R   0.655027 0.393605 0.012005 -0.052426
C18   C     C_R   0.705510 0.417054 0.083123 -0.059235
C19   C     C_R   0.861269 0.472874 0.102792 -0.071886
C20   C     C_R   0.981706 0.484086 0.052530 0.022712
C21   C     C_R   0.926510 0.470605 0.978801 0.057022
C22   C     C_R   0.150670 0.512584 0.075837 -0.006694
C23   C     C_3   0.463649 0.294565 0.318139 0.318659
C24   C     C_R   0.262711 0.537288 0.022253 0.036639
C25   C     C_R   0.207025 0.528440 0.948820 0.020763
C26   C     C_R   0.037884 0.496877 0.925269 0.000873
C27   C     C_R   0.433255 0.568891 0.038569 -0.048562
C28   C     C_3   0.240569 0.788983 0.619481 0.279392
C29   C     C_R   0.538113 0.609139 0.990306 -0.010960
C30   C     C_R   0.486278 0.594892 0.919724 -0.064200
C31   C     C_R   0.327424 0.546207 0.899153 -0.087781
C32   C     C_R   0.761926 0.179941 0.521505 -0.270399
C33   C     C_R   0.424467 0.806752 0.472086 -0.275564
C34   C     C_3   0.449989 0.268027 0.237172 -0.330662
C35   C     C_R   0.411139 0.974346 0.430230 -0.111799
C36   C     C_R   0.338708 0.871098 0.437016 -0.037658
C37   C     C_R   0.575163 0.848165 0.508452 0.056389
C38   C     C_R   0.640832 0.959047 0.511385 -0.049667
C39   C     C_R   0.556945 0.023987 0.472135 -0.069355
C40   C     C_3   0.224440 0.907936 0.627861 -0.324345
C41   C     C_R   0.619366 0.136087 0.479443 0.019556
C42   C     C_R   0.852823 0.115209 0.553114 -0.006261
C43   C     C_R   0.789169 0.006382 0.550976 -0.090371
C44   C     C_3   0.957078 0.211870 0.380741 0.303799
C45   C     C_3   0.082349 0.231130 0.728580 0.281821
C46   C     C_3   0.899681 0.091006 0.361478 -0.416764
C47   C     C_3   0.723246 0.703081 0.679158 0.305452
C48   C     C_3   0.743522 0.737036 0.759635 -0.384168
C49   C     C_2   0.996663 0.133545 0.829150 0.474195
C50   C     C_2   0.338846 0.018195 0.372093 0.555902
C51   C     C_3   0.129642 0.208738 0.802473 -0.229637
C52   C     C_3   0.554727 0.165353 0.687329 0.336520
C53   C     C_3   0.581899 0.069879 0.722812 -0.376030
C54   C     C_R   0.052060 0.565677 0.801835 -0.154021
H1    H     H_    0.723005 0.850342 0.326450 0.024711
H2    H     H_    0.837096 0.675632 0.659104 0.011000
H3    H     H_    0.619835 0.635670 0.667029 0.078667
H4    H     H_    0.643779 0.969477 0.241145 0.110265
H5    H     H_    0.852515 0.800082 0.773803 0.129384
H6    H     H_    0.759841 0.666552 0.785202 0.057778
H7    H     H_    0.632806 0.769558 0.780184 0.133236
H8    H     H_    0.533038 0.799971 0.275597 -0.031031
H9    H     H_    0.343831 0.311855 0.337817 -0.008503
H10   H     H_    0.558147 0.366721 0.333985 0.080328
H11   H     H_    0.351871 0.198424 0.219557 0.142898
H12   H     H_    0.272287 0.950095 0.681369 0.123724
H13   H     H_    0.420348 0.338396 0.214457 0.046080
H14   H     H_    0.568227 0.247390 0.216730 0.139691
H15   H     H_    0.837893 0.925877 0.223407 0.080507
H16   H     H_    0.183188 0.758506 0.156423 0.091335
H17   H     H_    0.164417 0.305238 0.720461 0.101397
H18   H     H_    0.952615 0.245236 0.726499 -0.059235
H19   H     H_    0.154516 0.286949 0.840484 0.083973
H20   H     H_    0.244152 0.171493 0.800454 0.122099
H21   H     H_    0.673923 0.195633 0.666358 -0.073011
H22   H     H_    0.463072 0.137584 0.641887 0.079510
H23   H     H_    0.292711 0.945707 0.586872 0.072092
H24   H     H_    0.696057 0.090745 0.757219 0.120403
H25   H     H_    0.593173 0.998915 0.681597 0.082511
H26   H     H_    0.066068 0.688523 0.266152 0.059168
H27   H     H_    0.478817 0.049020 0.756662 0.135529
H28   H     H_    0.141432 0.634958 0.823680 0.073813
H29   H     H_    0.802186 0.343947 0.836353 0.110509
H30   H     H_    0.396476 0.656381 0.165175 0.122240
H31   H     H_    0.032556 0.376695 0.176641 0.083252
H32   H     H_    0.832291 0.470919 0.645687 0.064296
H33   H     H_    0.358183 0.523348 0.353467 0.061239
H34   H     H_    0.093739 0.916827 0.622329 0.138366
H35   H     H_    0.693748 0.440433 0.914110 0.063884
H36   H     H_    0.528854 0.359007 0.996593 0.082656
H37   H     H_    0.619155 0.400141 0.122959 0.095304
H38   H     H_    0.263746 0.773990 0.281099 -0.025241
H39   H     H_    0.887519 0.507718 0.157613 0.127991
H40   H     H_    0.494053 0.556970 0.086185 0.079958
H41   H     H_    0.665747 0.638827 0.006012 0.111916
H42   H     H_    0.572682 0.613564 0.880195 0.083127
H43   H     H_    0.301774 0.520847 0.843681 0.130989
H44   H     H_    0.856999 0.960187 0.580353 0.100175
H45   H     H_    0.854958 0.251742 0.403302 0.012009
H46   H     H_    0.808051 0.265213 0.526703 0.058848
H47   H     H_    0.369992 0.724386 0.473362 0.065508
H48   H     H_    0.983338 0.788828 0.176046 0.157299
H49   H     H_    0.159965 0.892396 0.198916 0.169156
H50   H     H_    0.371404 0.780086 0.617398 0.006588
H51   H     H_    0.172996 0.748011 0.568920 0.064455
H52   H     H_    0.959875 0.051890 0.799925 0.018980
H53   H     H_    0.238077 0.063524 0.381637 0.010083
H54   H     H_    0.060913 0.226370 0.420786 0.070705
H55   H     H_    0.772281 0.077131 0.338447 0.113112
H56   H     H_    0.902311 0.051982 0.409346 0.099277
H57   H     H_    0.980174 0.053293 0.322243 0.151763
O1    O     O_2   0.875110 0.423180 0.326290 -0.452795
O2    O     O_2   0.188318 0.122017 0.545982 -0.483929
O3    O     O_3   0.103560 0.143106 0.676185 -0.616592
O4    O     O_3   0.123410 0.433040 0.414950 -0.499855
O5    O     O_3   0.577950 0.634370 0.536140 -0.496367
O6    O     O_2   0.341900 0.231310 0.465740 -0.485090
O7    O     O_3   0.507492 0.205395 0.344507 -0.619543
O8    O     O_2   0.457565 0.447789 0.758465 -0.515103
O9    O     O_3   0.494125 0.242927 0.737160 -0.594848
O10   O     O_3   0.661010 0.625070 0.369680 -0.469354
O11   O     O_2   0.704355 0.513053 0.247726 -0.503511
O12   O     O_3   0.692417 0.791859 0.648625 -0.643968
O13   O     O_3   0.005856 0.251227 0.319161 -0.627075
O14   O     O_3   0.734357 0.721417 0.246208 -0.577408
O15   O     O_2   0.847800 0.768730 0.534310 -0.463079
O16   O     O_3   0.082250 0.684470 0.405440 -0.484031
O17   O     O_2   0.006094 0.876503 0.454827 -0.483731
O18   O     O_2   0.930818 0.163289 0.884322 -0.564237
O19   O     O_2   0.383995 0.996594 0.311700 -0.608590
O20   O     O_3   0.064949 0.843945 0.319969 -0.599216
O21   O     O_2   0.314600 0.576860 0.673750 -0.475132
O22   O     O_3   0.066300 0.567050 0.585060 -0.494586
O23   O     O_3   0.528700 0.375020 0.630330 -0.462414
O24   O     O_3   0.177471 0.749111 0.678981 -0.631664
O25   O     O_3   0.611760 0.365720 0.463870 -0.485195
O26   O     O_3   0.107460 0.315620 0.594570 -0.486599
P1    P     P_3+3 0.042930 0.392230 0.337410 0.980753
P2    P     P_3+3 0.672230 0.754900 0.555730 0.961823
P3    P     P_3+3 0.123947 0.821013 0.404624 0.952083
P4    P     P_3+3 0.146790 0.607860 0.662600 0.975197
P5    P     P_3+3 0.060677 0.174811 0.592040 0.938997
P6    P     P_3+3 0.625557 0.612346 0.278581 0.951640
P7    P     P_3+3 0.520518 0.232354 0.437796 0.935482
P8    P     P_3+3 0.567277 0.371301 0.719409 0.941042

loop_
_geom_bond_atom_site_label_1
_geom_bond_atom_site_label_2
_ccdc_geom_bond_type
C50   H53   S    
C46   H56   S    
C52   C53   S    
O1    P1    D    
C38   C39   A    
C37   P2    S    
Ba2   P4    S    
C28   H51   S    
O23   P8    S    
C4    H26   S    
C17   H36   S    
O4    P1    S    
Ba2   O4    S    
C53   H24   S    
C44   C46   S    
C42   C43   A    
C45   C51   S    
C27   H40   S    
O25   P7    S    
C28   C40   S    
C42   P5    S    
C47   H2    S    
C10   C26   S    
C25   C26   A    
C6    C13   A    
C35   C39   A    
C32   H46   S    
O11   P6    D    
Ba1   O5    S    
C35   C36   A    
C10   C54   A    
C18   H37   S    
C7    C14   A    
C12   H8    S    
C34   H11   S    
C41   P7    S    
C9    P1    S    
O3    P5    S    
Ba1   Ba2   S    
O13   P1    S    
C21   C26   A    
Ba1   P2    S    
O20   P3    S    
Ba2   O25   S    
C54   H28   S    
C9    C14   A    
C31   H43   S    
C38   C43   A    
O7    P7    S    
C47   O12   S    
C23   O7    S    
O8    P8    D    
Ba1   O22   S    
C6    C7    A    
Ba1   O25   S    
C51   H20   S    
C46   H57   S    
C25   C31   A    
C40   H12   S    
C44   H45   S    
C34   H13   S    
C24   C27   A    
C45   H18   S    
C5    P8    S    
C48   H5    S    
C39   C41   A    
C49   C51   S    
C53   H27   S    
C43   H44   S    
C52   O9    S    
C48   H7    S    
C49   O18   D    
C45   H17   S    
C16   H16   S    
C48   H6    S    
C4    O20   S    
Ba1   O16   S    
C52   H21   S    
Ba2   O6    S    
C2    P4    S    
C3    C5    A    
O15   P2    D    
C47   C48   S    
C40   H23   S    
O10   P6    S    
C1    H4    S    
O12   P2    S    
C40   H34   S    
C30   H42   S    
C23   H9    S    
C11   H32   S    
O16   P3    S    
C52   H22   S    
C8    C13   A    
C33   C37   A    
C8    H31   S    
Ba2   O5    S    
C30   C31   A    
C50   O19   D    
C17   C18   A    
C28   O24   S    
C44   O13   S    
C32   C41   A    
C2    C11   A    
C7    P6    S    
C46   H55   S    
C51   H19   S    
C16   H48   S    
O21   P4    D    
C36   P3    S    
C4    C16   S    
C12   O14   S    
C34   H14   S    
C19   H39   S    
C12   H1    S    
C15   C21   A    
C23   H10   S    
Br1   C1    S    
C32   C42   A    
C1    H15   S    
O17   P3    D    
C13   C22   S    
C37   C38   A    
C5    C11   A    
Ba2   O23   S    
C28   H50   S    
C33   C36   A    
C14   H33   S    
O26   P5    S    
C8    C9    A    
C23   C34   S    
C53   H25   S    
C45   O3    S    
C22   C24   A    
C4    H38   S    
Ba1   O15   S    
Ba2   O21   S    
C3    H29   S    
C2    C54   A    
C33   H47   S    
C47   H3    S    
C29   C30   A    
C1    C12   S    
Ba1   O10   S    
C15   H35   S    
O22   P4    S    
O24   P4    S    
C6    H30   S    
C3    C10   A    
C27   C29   A    
O14   P6    S    
O2    P5    D    
C35   C50   S    
C49   H52   S    
C44   H54   S    
C29   H41   S    
C15   C17   A    
Ba1   O4    S    
C20   C22   A    
Ba2   O22   S    
Ba1   P1    S    
C20   C21   A    
C16   H49   S    
O9    P8    S    
O6    P7    D    
C24   C25   A    
O5    P2    S    
C19   C20   A    
Ba2   O26   S    
Ba1   O1    S    
C18   C19   A    
