data_mof_unit_28054.cif
_audit_creation_date              2012-12-11T17:15:52-0500
_audit_creation_method            fapswitch 2.2
_symmetry_space_group_name_H-M    P1
_symmetry_Int_Tables_number       1
_space_group_crystal_system       triclinic
_cell_length_a                    14.725406
_cell_length_b                    7.395962
_cell_length_c                    13.599991
_cell_angle_alpha                 91.301511
_cell_angle_beta                  100.549141
_cell_angle_gamma                 88.600187
_cell_volume                      1455.4357819

loop_
_atom_site_label
_atom_site_type_symbol
_atom_type_description
_atom_site_fract_x
_atom_site_fract_y
_atom_site_fract_z
_atom_type_partial_charge
O1    O     O_R   0.398210 0.494340 0.401550 -0.532546
O2    O     O_R   0.601790 0.994340 0.598450 -0.539695
O3    O     O_R   0.586310 0.821730 0.403360 -0.571674
O4    O     O_R   0.413690 0.321730 0.596640 -0.545725
C1    C     C_R   0.611801 0.653652 0.374775 0.616014
C2    C     C_R   0.383157 0.157002 0.616423 0.646600
O5    O     O_R   0.397970 0.823900 0.389580 -0.534653
O6    O     O_R   0.602030 0.323900 0.610420 -0.527584
O7    O     O_R   0.412100 0.996500 0.584560 -0.533984
O8    O     O_R   0.587900 0.496500 0.415440 -0.514566
C3    C     C_R   0.367119 0.655221 0.361597 0.719316
C4    C     C_R   0.633373 0.155270 0.638166 0.688126
O9    O     O_3   0.504860 0.661550 0.563990 -0.376796
O10   O     O_3   0.495140 0.161550 0.436010 -0.404884
V1    V     V_3+5 0.499100 0.935510 0.488130 1.348678
V2    V     V_3+5 0.500900 0.435510 0.511870 1.394753
C5    C     C_1   0.715072 0.144666 0.717871 -0.176725
C6    C     C_1   0.286909 0.644579 0.279765 -0.171992
C7    C     C_1   0.783596 0.134209 0.783960 -0.186032
C8    C     C_1   0.218275 0.633308 0.213768 -0.180767
C9    C     C_3   0.285941 0.164363 0.870009 -0.320552
C10   C     C_3   0.757282 0.829915 0.166433 -0.323371
H1    H     H_    0.287257 0.294664 0.912716 0.136770
H2    H     H_    0.804800 0.945140 0.187899 0.154387
H3    H     H_    0.306358 0.055748 0.925487 0.124594
H4    H     H_    0.722655 0.854243 0.087813 0.136768
C11   C     C_3   0.357727 0.169097 0.797957 -0.353541
C12   C     C_3   0.683739 0.823504 0.235387 -0.376923
H5    H     H_    0.410407 0.059114 0.817581 0.127235
H6    H     H_    0.613624 0.857054 0.193045 0.134298
H7    H     H_    0.395373 0.298715 0.809729 0.137819
H8    H     H_    0.710785 0.921399 0.288708 0.206140
H9    H     H_    0.156651 0.418634 0.775238 0.151643
H10   H     H_    0.902245 0.753613 0.309387 0.127276
H11   H     H_    0.272704 0.434735 0.687902 0.141515
H12   H     H_    0.796756 0.759778 0.409316 0.122831
C13   C     C_3   0.162197 0.287433 0.734878 -0.304638
C14   C     C_3   0.857592 0.634452 0.289126 -0.328870
C15   C     C_3   0.189285 0.952511 0.751227 -0.338000
C16   C     C_3   0.738078 0.512425 0.135803 -0.354982
C17   C     C_3   0.186355 0.131683 0.811503 0.098172
C18   C     C_3   0.812103 0.649564 0.176295 0.128747
H13   H     H_    0.118127 0.922601 0.711302 0.139386
H14   H     H_    0.768148 0.377827 0.118664 0.141921
H15   H     H_    0.209955 0.838844 0.803531 0.131256
H16   H     H_    0.699942 0.553038 0.060670 0.109460
C19   C     C_3   0.310022 0.147746 0.686030 0.076748
C20   C     C_3   0.684472 0.648170 0.297246 0.061413
C21   C     C_3   0.237176 0.304584 0.668037 -0.319628
C22   C     C_3   0.784926 0.638425 0.358982 -0.310636
C23   C     C_3   0.259087 0.959955 0.677731 -0.076220
C24   C     C_3   0.669637 0.503844 0.207700 -0.028340
H17   H     H_    0.314410 0.858356 0.705813 0.101447
H18   H     H_    0.599028 0.530184 0.163096 0.074367
H19   H     H_    0.093386 0.264801 0.687583 0.120022
H20   H     H_    0.906651 0.518337 0.303669 0.118091
H21   H     H_    0.205697 0.314046 0.587925 0.124220
H22   H     H_    0.796216 0.526865 0.412632 0.154997
O11   O     O_R   0.912140 0.786650 0.084610 -0.544862
O12   O     O_R   0.087860 0.286650 0.915390 -0.537821
O13   O     O_R   0.102040 0.454810 0.110430 -0.534884
O14   O     O_R   0.897960 0.954810 0.889570 -0.533505
C25   C     C_R   0.135283 0.623045 0.135515 0.706739
C26   C     C_R   0.865376 0.123572 0.863592 0.712927
O15   O     O_R   0.913690 0.457060 0.096650 -0.547887
O16   O     O_R   0.086310 0.957060 0.903350 -0.543441
O17   O     O_R   0.898200 0.284560 0.901540 -0.530845
O18   O     O_R   0.101800 0.784560 0.098460 -0.527885
C27   C     C_R   0.885331 0.629479 0.114173 0.648613
C28   C     C_R   0.115087 0.123894 0.882457 0.634702
O19   O     O_3   0.995160 0.617270 0.936040 -0.381081
O20   O     O_3   0.004840 0.117270 0.063960 -0.379754
V3    V     V_3+5 0.000900 0.343280 0.011870 1.387232
V4    V     V_3+5 0.999100 0.843280 0.988130 1.393019
C29   C     C_R   0.212186 0.893889 0.573781 0.106493
C30   C     C_R   0.238199 0.722963 0.539211 -0.120164
C31   C     C_R   0.183717 0.637392 0.457346 -0.138896
C32   C     C_R   0.106245 0.726124 0.403963 -0.082471
C33   C     C_R   0.081258 0.898497 0.434435 -0.125589
C34   C     C_R   0.132386 0.980246 0.519839 -0.142002
H23   H     H_    0.298882 0.652005 0.577967 0.107855
H24   H     H_    0.202500 0.502701 0.434267 0.110638
H25   H     H_    0.065720 0.660856 0.339115 0.088034
H26   H     H_    0.020262 0.966518 0.394018 0.099546
H27   H     H_    0.105257 0.104975 0.545690 0.105467
C35   C     C_R   0.679845 0.320686 0.241666 0.152477
C36   C     C_R   0.600140 0.230777 0.235785 -0.279428
C37   C     C_R   0.595177 0.129530 0.314553 0.007189
C38   C     C_R   0.667997 0.131291 0.401382 0.032047
C39   C     C_R   0.754838 0.184986 0.391890 -0.306893
C40   C     C_R   0.762226 0.258045 0.302049 -0.133787
H28   H     H_    0.539551 0.254788 0.178558 0.099097
H29   H     H_    0.534153 0.048098 0.301869 0.146563
H30   H     H_    0.666114 0.062284 0.467649 0.142901
H31   H     H_    0.814901 0.158823 0.449158 0.121741
H32   H     H_    0.829271 0.286960 0.287570 0.126228

loop_
_geom_bond_atom_site_label_1
_geom_bond_atom_site_label_2
_ccdc_geom_bond_type
C15   C23   S    
C36   C37   A    
C3    C6    S    
C11   H5    S    
O1    C3    A    
O2    C4    A    
C2    O7    A    
O15   V3    S    
C39   H31   S    
C15   C17   S    
C10   C18   S    
C31   C32   A    
C20   C22   S    
O5    C3    A    
C23   C29   S    
C14   C18   S    
C35   C40   A    
C33   H26   S    
O18   V4    S    
O16   V4    S    
O12   V3    S    
C21   H21   S    
C38   H30   S    
O13   C25   A    
O14   C26   A    
C40   H32   S    
C37   H29   S    
C32   H25   S    
C4    C5    S    
H11   C21   S    
O17   V3    S    
C29   C34   A    
C16   H14   S    
C15   H15   S    
C16   C18   S    
C9    C11   S    
O6    V2    S    
C10   C12   S    
C36   H28   S    
C1    O8    A    
C24   H18   S    
C1    C20   S    
C2    C19   S    
C11   H7    S    
C22   H22   S    
C26   O17   A    
C12   H8    S    
C30   C31   A    
O4    C2    A    
C32   C33   A    
C15   H13   S    
O13   V3    S    
C16   C24   S    
C18   C27   S    
H9    C13   S    
C23   H17   S    
H10   C14   S    
O4    V2    S    
C16   H16   S    
C29   C30   A    
C34   H27   S    
C13   C21   S    
O12   C28   A    
C7    C26   S    
O6    C4    A    
O1    V2    S    
O2    V1    S    
O11   V4    S    
O11   C27   A    
C9    C17   S    
C9    H1    S    
C10   H2    S    
H12   C22   S    
C11   C19   S    
C9    H3    S    
C25   O18   A    
C12   C20   S    
C35   C36   A    
O20   V3    S    
O3    C1    A    
C30   H23   S    
O19   V4    S    
C19   C23   S    
C14   C22   S    
C19   C21   S    
C8    C25   S    
C24   C35   S    
O7    V1    S    
C12   H6    S    
O8    V2    S    
C39   C40   A    
O16   C28   A    
C31   H24   S    
O15   C27   A    
O5    V1    S    
C5    C7    T    
C6    C8    T    
C13   C17   S    
C33   C34   A    
C13   H19   S    
C20   C24   S    
C14   H20   S    
C37   C38   A    
C10   H4    S    
O9    V2    S    
O10   V1    S    
O14   V4    S    
O3    V1    S    
C38   C39   A    
C17   C28   S    
