data_mof_unit_11871.cif
_audit_creation_date              2012-12-10T20:44:01-0500
_audit_creation_method            fapswitch 2.2
_symmetry_space_group_name_H-M    P1
_symmetry_Int_Tables_number       1
_space_group_crystal_system       triclinic
_cell_length_a                    17.401775
_cell_length_b                    10.701472
_cell_length_c                    9.88435
_cell_angle_alpha                 90.576866
_cell_angle_beta                  90.683337
_cell_angle_gamma                 90.216686
_cell_volume                      1840.47099044

loop_
_atom_site_label
_atom_site_type_symbol
_atom_type_description
_atom_site_fract_x
_atom_site_fract_y
_atom_site_fract_z
_atom_type_partial_charge
C1    C     C_R   0.499189 0.260320 0.499094 0.938835
C2    C     C_R   0.886703 0.594646 0.482195 0.053300
C3    C     C_1   0.967854 0.605981 0.479547 -0.067856
C4    C     C_1   0.036145 0.603064 0.483053 -0.075134
C5    C     C_R   0.145679 0.506624 0.591341 -0.156804
C6    C     C_R   0.223425 0.478276 0.593589 -0.221325
C7    C     C_R   0.271610 0.528746 0.495951 -0.013616
C8    C     C_R   0.241957 0.609833 0.397720 -0.205551
C9    C     C_R   0.164163 0.637903 0.395202 -0.171212
C10   C     C_R   0.116420 0.585775 0.491830 0.163152
C11   C     C_R   0.540604 0.064766 0.595538 -0.080122
C12   C     C_R   0.353403 0.503696 0.499121 0.843657
C13   C     C_R   0.500598 0.128294 0.495001 -0.174981
C14   C     C_R   0.465225 0.062457 0.386430 0.456901
C15   C     C_R   0.464923 0.932485 0.389543 -0.328468
C16   C     C_R   0.496189 0.871074 0.501567 -0.115028
C17   C     C_R   0.534864 0.938149 0.602517 -0.039221
C18   C     C_3   0.534660 0.937296 0.754967 -0.081857
C19   C     C_3   0.543242 0.079735 0.746629 0.286121
C20   C     C_R   0.441839 0.554704 0.070848 0.176832
C21   C     C_R   0.560324 0.451874 0.072764 -0.123261
C22   C     C_R   0.560040 0.451460 0.929149 -0.118406
C23   C     C_R   0.497786 0.739458 0.500852 0.904307
C24   C     C_R   0.439833 0.547061 0.928691 0.171440
C25   C     C_3   0.357877 0.501476 0.929654 -0.081805
C26   C     C_3   0.358436 0.525018 0.081667 -0.481195
C27   C     C_R   0.647434 0.505003 0.500867 0.875329
C28   C     C_R   0.854136 0.576228 0.607956 -0.220510
C29   C     C_R   0.776964 0.543910 0.619670 0.165840
C30   C     C_R   0.731141 0.530698 0.500032 -0.135742
C31   C     C_R   0.765181 0.552003 0.373234 -0.229944
C32   C     C_R   0.843021 0.584305 0.362463 0.190479
H1    H     H_    0.890171 0.584038 0.698140 0.142423
H2    H     H_    0.437233 0.879869 0.308132 0.156001
H3    H     H_    0.585796 0.888625 0.797452 0.174551
H4    H     H_    0.494484 0.134790 0.786901 0.154682
H5    H     H_    0.608096 0.410896 0.127170 0.154001
H6    H     H_    0.606469 0.407446 0.876466 0.179295
H7    H     H_    0.319191 0.566699 0.874762 0.140203
H8    H     H_    0.325215 0.609610 0.109588 0.150596
H9    H     H_    0.345944 0.443700 0.146074 0.243749
H10   H     H_    0.730459 0.543159 0.282379 0.183437
H11   H     H_    0.108132 0.464937 0.665233 0.131312
H12   H     H_    0.245394 0.415292 0.669129 0.127229
H13   H     H_    0.279162 0.653023 0.324709 0.138462
H14   H     H_    0.141243 0.698751 0.317716 0.131054
N1    N     N_R   0.499490 0.499140 0.142800 -0.095450
N2    N     N_R   0.499490 0.499180 0.857150 -0.108281
O1    O     O_R   0.500010 0.316790 0.614690 -0.628540
O2    O     O_R   0.500000 0.316760 0.385350 -0.548986
O3    O     O_R   0.389120 0.500020 0.614710 -0.641523
O4    O     O_R   0.389110 0.499990 0.385370 -0.617111
O5    O     O_R   0.500000 0.683240 0.614650 -0.638057
O6    O     O_R   0.499990 0.683210 0.385310 -0.618873
O7    O     O_R   0.610890 0.500010 0.614630 -0.606958
O8    O     O_R   0.610880 0.499980 0.385290 -0.631155
Zn1   Zn    Zn3+2 0.500010 0.500020 0.653130 0.932154
Zn2   Zn    Zn3+2 0.499990 0.499980 0.346870 0.965280
C33   C     C_3   0.457941 0.897938 0.819165 -0.407240
C34   C     C_3   0.461896 0.911696 0.972990 -0.898806
H15   H     H_    0.506822 0.849229 0.015247 0.268292
H16   H     H_    0.475413 0.009672 0.002831 0.282610
H17   H     H_    0.405705 0.885293 0.016692 0.236651
H18   H     H_    0.409622 0.954851 0.778823 0.198324
H19   H     H_    0.444748 0.798923 0.795628 0.245904
O9    O     O_3   0.614725 0.124357 0.795289 -0.768143
H20   H     H_    0.656290 0.077223 0.749618 0.334814
C35   C     C_3   0.343876 0.362563 0.887061 -0.351827
C36   C     C_3   0.384669 0.261760 0.970127 -0.812854
H21   H     H_    0.447087 0.279962 0.979279 0.281141
H22   H     H_    0.359407 0.252897 0.071877 0.273356
H23   H     H_    0.376482 0.170056 0.918397 0.220714
H24   H     H_    0.281128 0.343932 0.891760 0.188432
H25   H     H_    0.360975 0.348442 0.780778 0.235347
C37   C     C_3   0.748428 0.522234 0.761152 -0.383787
C38   C     C_3   0.710946 0.639869 0.819375 -0.834709
H26   H     H_    0.663433 0.673535 0.753688 0.275886
H27   H     H_    0.687746 0.619935 0.920972 0.241891
H28   H     H_    0.754402 0.715748 0.829889 0.249011
H29   H     H_    0.710531 0.439477 0.762811 0.218019
H30   H     H_    0.796946 0.496637 0.829390 0.189176
C39   C     C_3   0.881634 0.605983 0.227013 -0.390770
C40   C     C_3   0.828559 0.605447 0.102887 -0.921358
H31   H     H_    0.801961 0.511788 0.087605 0.259884
H32   H     H_    0.783314 0.677640 0.113925 0.268689
H33   H     H_    0.862618 0.627528 0.011830 0.257111
H34   H     H_    0.911083 0.698342 0.231253 0.210175
H35   H     H_    0.926241 0.533277 0.211866 0.209934
O10   O     O_3   0.427832 0.125939 0.283977 -0.770974
H36   H     H_    0.404207 0.064868 0.219708 0.321456

loop_
_geom_bond_atom_site_label_1
_geom_bond_atom_site_label_2
_ccdc_geom_bond_type
C8    C9    A    
C22   N2    A    
C31   H10   S    
C38   H28   S    
N2    Zn1   S    
C11   C19   S    
C33   H18   S    
C34   H17   S    
C34   H16   S    
C28   C29   A    
C38   H27   S    
C19   H4    S    
O6    Zn2   S    
C5    C6    A    
C27   O7    A    
C35   H25   S    
C15   C16   A    
C22   H6    S    
O1    Zn1   S    
C19   O9    S    
C2    C32   A    
C18   C19   S    
C36   H22   S    
C8    H13   S    
C35   C36   S    
C31   C32   A    
C16   C17   A    
O3    Zn1   S    
C37   H29   S    
C15   H2    S    
O9    H20   S    
C5    H11   S    
C9    H14   S    
C6    H12   S    
C13   C14   A    
C27   C30   S    
C25   C35   S    
C9    C10   A    
C12   O4    A    
C23   O5    A    
C7    C12   S    
O2    Zn2   S    
C20   C24   A    
C7    C8    A    
C38   H26   S    
O5    Zn1   S    
C27   O8    A    
C37   H30   S    
C25   C26   S    
C34   H15   S    
C24   N2    A    
C36   H23   S    
C37   C38   S    
C14   O10   S    
C29   C30   A    
C1    O2    A    
C40   H31   S    
C17   C18   S    
C24   C25   S    
O4    Zn2   S    
C40   H32   S    
C28   H1    S    
C16   C23   S    
O7    Zn1   S    
C1    C13   S    
C4    C10   S    
C3    C4    T    
C12   O3    A    
C23   O6    A    
C18   H3    S    
C11   C17   A    
C6    C7    A    
C29   C37   S    
C32   C39   S    
C2    C3    S    
C35   H24   S    
C5    C10   A    
C25   H7    S    
N1    Zn2   S    
C11   C13   A    
C26   H8    S    
C30   C31   A    
C20   C26   S    
C39   H35   S    
O8    Zn2   S    
C36   H21   S    
C20   N1    A    
C18   C33   S    
C33   C34   S    
C40   H33   S    
C21   H5    S    
C39   C40   S    
C14   C15   A    
C2    C28   A    
O10   H36   S    
C21   C22   A    
C1    O1    A    
C33   H19   S    
C39   H34   S    
C26   H9    S    
C21   N1    A    
