data_mof_unit_9575.cif
_audit_creation_date              2012-12-11T15:54:45-0500
_audit_creation_method            fapswitch 2.2
_symmetry_space_group_name_H-M    P1
_symmetry_Int_Tables_number       1
_space_group_crystal_system       triclinic
_cell_length_a                    6.916696
_cell_length_b                    14.688328
_cell_length_c                    16.037375
_cell_angle_alpha                 90.038451
_cell_angle_beta                  89.907961
_cell_angle_gamma                 90.387532
_cell_volume                      1629.27256846

loop_
_atom_site_label
_atom_site_type_symbol
_atom_type_description
_atom_site_fract_x
_atom_site_fract_y
_atom_site_fract_z
_atom_type_partial_charge
O1    O     O_R   0.638180 0.333920 0.163320 -0.542027
O2    O     O_R   0.361820 0.666080 0.836680 -0.542027
O3    O     O_R   0.308470 0.344960 0.336080 -0.529968
O4    O     O_R   0.691530 0.655040 0.663920 -0.529969
O5    O     O_R   0.138140 0.166110 0.336680 -0.533136
O6    O     O_R   0.861860 0.833890 0.663320 -0.533133
C1    C     C_R   0.478769 0.365725 0.366185 0.735787
C2    C     C_R   0.521230 0.634274 0.633815 0.735784
O7    O     O_R   0.308460 0.344950 0.163930 -0.545854
O8    O     O_R   0.691540 0.655050 0.836070 -0.545854
O9    O     O_R   0.138140 0.166100 0.163310 -0.547342
O10   O     O_R   0.861860 0.833900 0.836690 -0.547341
C3    C     C_R   0.477913 0.367243 0.134949 0.679217
C4    C     C_R   0.522087 0.632757 0.865051 0.679215
O11   O     O_R   0.638180 0.333930 0.336700 -0.524665
O12   O     O_R   0.361820 0.666070 0.663300 -0.524668
O13   O     O_3   0.471670 0.191340 0.250000 -0.376904
O14   O     O_3   0.528330 0.808660 0.750000 -0.376899
V1    V     V_3+5 0.196830 0.260900 0.250000 1.444255
V2    V     V_3+5 0.803170 0.739100 0.750000 1.444259
O15   O     O_R   0.808420 0.155070 0.163920 -0.546308
O16   O     O_R   0.191580 0.844930 0.836080 -0.546308
C5    C     C_R   0.977383 0.132656 0.134988 0.665984
C6    C     C_R   0.022616 0.867344 0.865012 0.665987
O17   O     O_R   0.808420 0.155080 0.336070 -0.545079
O18   O     O_R   0.191580 0.844920 0.663930 -0.545078
C7    C     C_R   0.975672 0.133618 0.365448 0.731229
C8    C     C_R   0.024328 0.866379 0.634550 0.731227
V3    V     V_3+5 0.696830 0.239130 0.250000 1.433023
V4    V     V_3+5 0.303170 0.760870 0.750000 1.433030
O19   O     O_3   0.971850 0.308690 0.250010 -0.355476
O20   O     O_3   0.028150 0.691310 0.749990 -0.355478
H1    H     H_    0.444803 0.899288 0.291377 0.114526
H2    H     H_    0.555344 0.100757 0.708642 0.114538
C9    C     C_R   0.714479 0.137715 0.511793 -0.111182
C10   C     C_R   0.285525 0.862280 0.488207 -0.111179
C11   C     C_R   0.603893 0.147073 0.583782 -0.109709
C12   C     C_R   0.396155 0.852939 0.416226 -0.109703
C13   C     C_R   0.637140 0.091366 0.651707 -0.118655
C14   C     C_R   0.362943 0.908657 0.348304 -0.118647
C15   C     C_R   0.776917 0.024061 0.647018 -0.126434
C16   C     C_R   0.223139 0.975952 0.352988 -0.126443
C17   C     C_R   0.884136 0.009013 0.572726 0.061716
C18   C     C_R   0.115880 0.990987 0.427274 0.061708
C19   C     C_R   0.859538 0.070122 0.504664 0.076966
C20   C     C_R   0.140465 0.929873 0.495333 0.076961
C21   C     C_R   0.018658 0.936605 0.567105 -0.199635
C22   C     C_R   0.981344 0.063390 0.432892 -0.199639
H3    H     H_    0.682480 0.185412 0.463211 0.149312
H4    H     H_    0.317496 0.814573 0.536786 0.149310
H5    H     H_    0.494742 0.199444 0.587447 0.131275
H6    H     H_    0.505325 0.800575 0.412565 0.131270
H7    H     H_    0.802030 0.985845 0.703413 0.114794
H8    H     H_    0.198051 0.014173 0.296594 0.114814
C23   C     C_R   0.180029 0.974015 0.968468 -0.155020
C24   C     C_R   0.819971 0.025985 0.031532 -0.155022
H9    H     H_    0.321248 0.955008 0.945335 0.114334
H10   H     H_    0.678752 0.044992 0.054665 0.114334
C25   C     C_R   0.168737 0.037369 0.033703 -0.153794
C26   C     C_R   0.831263 0.962631 0.966297 -0.153795
H11   H     H_    0.301889 0.065325 0.058600 0.116644
H12   H     H_    0.698111 0.934675 0.941399 0.116645
C27   C     C_R   0.988538 0.064311 0.066211 -0.042820
C28   C     C_R   0.011462 0.935689 0.933789 -0.042821
C29   C     C_R   0.340488 0.494287 0.447384 -0.160041
C30   C     C_R   0.659510 0.505711 0.552617 -0.160043
H13   H     H_    0.216679 0.491924 0.406189 0.175428
H14   H     H_    0.783319 0.508074 0.593812 0.175428
C31   C     C_R   0.343752 0.559208 0.511245 0.159112
C32   C     C_R   0.656247 0.440790 0.488756 0.159113
C33   C     C_R   0.506431 0.566231 0.564955 -0.124367
C34   C     C_R   0.493568 0.433768 0.435045 -0.124368
C35   C     C_R   0.320530 0.474520 0.033008 -0.151816
C36   C     C_R   0.679470 0.525480 0.966992 -0.151816
H15   H     H_    0.179594 0.455964 0.057341 0.117145
H16   H     H_    0.820406 0.544035 0.942659 0.117144
C37   C     C_R   0.331178 0.538010 0.967870 -0.148362
C38   C     C_R   0.668822 0.461990 0.032130 -0.148363
H17   H     H_    0.198096 0.566497 0.944263 0.118106
H18   H     H_    0.801904 0.433503 0.055737 0.118106
C39   C     C_R   0.510802 0.564432 0.933859 -0.045358
C40   C     C_R   0.489198 0.435568 0.066141 -0.045358
I1    I     I_    0.093199 0.641893 0.516571 -0.444915
I2    I     I_    0.906796 0.358102 0.483431 -0.444907

loop_
_geom_bond_atom_site_label_1
_geom_bond_atom_site_label_2
_ccdc_geom_bond_type
C7    C22   S    
C30   H14   S    
C8    C21   S    
C23   C25   A    
O13   V3    S    
O4    C2    A    
V1    O19   S    
C13   C15   A    
O9    V1    S    
C36   H16   S    
C9    C11   A    
O3    C1    A    
C11   H5    S    
C38   H18   S    
C12   H6    S    
O12   V4    S    
C26   H12   S    
C31   C33   A    
O7    C3    A    
O5    C7    A    
O7    V1    S    
O6    C8    A    
O8    V2    S    
C29   H13   S    
C9    H3    S    
O3    V1    S    
O14   V4    S    
V4    O20   S    
C32   I2    S    
C5    C27   S    
C2    O12   A    
C15   C17   A    
C16   C18   A    
C18   C20   A    
O11   V3    S    
C37   H17   S    
O15   C5    A    
O17   V3    S    
C25   H11   S    
H1    C14   S    
H2    C13   S    
O8    C4    A    
C1    C34   S    
C1    O11   A    
O15   V3    S    
C3    C40   S    
C24   C26   A    
C31   I1    S    
C38   C40   A    
C30   C33   A    
C37   C39   A    
C23   C28   A    
O10   V2    S    
O1    V3    S    
C24   C27   A    
C10   C20   A    
C17   C19   A    
C15   H7    S    
O18   V4    S    
C23   H9    S    
O16   C6    A    
O1    C3    A    
C35   H15   S    
C36   C39   A    
C9    C19   A    
C35   C40   A    
C10   H4    S    
V2    O20   S    
C19   C22   A    
C20   C21   A    
C2    C33   S    
O16   V4    S    
O18   C8    A    
C14   C16   A    
O5    V1    S    
O17   C7    A    
C29   C34   A    
O6    V2    S    
O10   C6    A    
C25   C27   A    
C26   C28   A    
O2    V4    S    
C10   C12   A    
C11   C13   A    
C16   H8    S    
C12   C14   A    
C30   C32   A    
C29   C31   A    
O9    C5    A    
O13   V1    S    
C24   H10   S    
C6    C28   S    
O14   V2    S    
O2    C4    A    
O4    V2    S    
V3    O19   S    
C36   C38   A    
C35   C37   A    
C32   C34   A    
C4    C39   S    
C17   C21   A    
C18   C22   A    
