data_mof_unit_22891.cif
_audit_creation_date              2013-03-05T15:40:11-0500
_audit_creation_method            fapswitch 2.2
_symmetry_space_group_name_H-M    P1
_symmetry_Int_Tables_number       1
_space_group_crystal_system       triclinic
_cell_length_a                    7.444127
_cell_length_b                    8.708734
_cell_length_c                    12.954758
_cell_angle_alpha                 88.131006
_cell_angle_beta                  78.652542
_cell_angle_gamma                 101.995644
_cell_volume                      803.075541008

loop_
_atom_site_label
_atom_site_type_symbol
_atom_site_description
_atom_site_fract_x
_atom_site_fract_y
_atom_site_fract_z
_atom_type_partial_charge
O1    O     O_R   0.621060 0.286250 0.492350 -0.612438
O2    O     O_R   0.378940 0.713750 0.507650 -0.579455
O3    O     O_R   0.306310 0.256580 0.512240 -0.582441
O4    O     O_R   0.693690 0.743420 0.487760 -0.566577
C1    C     C_R   0.456101 0.201208 0.496090 0.852302
C2    C     C_R   0.544712 0.798783 0.500237 0.856151
O5    O     O_R   0.631800 0.512400 0.642670 -0.586777
O6    O     O_R   0.368200 0.487600 0.357330 -0.601827
O7    O     O_R   0.317060 0.482730 0.662570 -0.530382
O8    O     O_R   0.682940 0.517270 0.337430 -0.534694
C3    C     C_R   0.464749 0.492299 0.701669 0.817438
C4    C     C_R   0.535270 0.507618 0.298297 0.804303
Cu1   Cu    Cu3+1 0.686350 0.517570 0.488220 1.006862
Cu2   Cu    Cu3+1 0.313650 0.482430 0.511780 1.003884
N1    N     N_2   0.033570 0.455950 0.529530 -0.211024
N2    N     N_2   0.966430 0.544050 0.470470 -0.197826
C5    C     C_R   0.557930 0.517532 0.183961 -0.180625
C6    C     C_R   0.442168 0.482159 0.815946 -0.192719
C7    C     C_R   0.261609 0.390483 0.992102 -0.179027
C8    C     C_R   0.738416 0.609097 0.007741 -0.178449
C9    C     C_R   0.272807 0.401459 0.883543 0.335877
C10   C     C_R   0.727559 0.597708 0.116261 0.338648
C11   C     C_R   0.595903 0.551220 0.858047 -0.211727
C12   C     C_R   0.403923 0.448968 0.141868 -0.216028
C13   C     C_R   0.584029 0.540400 0.966231 0.096917
C14   C     C_R   0.415843 0.459546 0.033666 0.103491
H1    H     H_    0.274251 0.386712 0.193452 0.183403
H2    H     H_    0.725312 0.614037 0.806455 0.196403
H3    H     H_    0.132219 0.328000 0.043775 0.183679
H4    H     H_    0.867898 0.671292 0.956012 0.186264
H5    H     H_    0.934086 0.380081 0.585032 0.242717
H6    H     H_    0.066062 0.621445 0.415874 0.258535
C15   C     C_2   0.443919 0.037976 0.476876 0.035293
C16   C     C_2   0.560369 0.961480 0.515302 0.000926
N3    N     N_R   0.887675 0.672307 0.155978 0.123186
O9    O     O_R   0.944169 0.824692 0.143143 -0.369878
O10   O     O_R   0.000021 0.588164 0.181391 -0.374810
N4    N     N_R   0.113475 0.325792 0.843588 0.124283
O11   O     O_R   0.062058 0.172984 0.853166 -0.363337
O12   O     O_R   0.997896 0.408167 0.820166 -0.374787
N5    N     N_2   0.331911 0.964530 0.405399 -0.445185
H7    H     H_    0.403268 0.910183 0.345984 0.251631
C17   C     C_3   0.190772 0.036243 0.373318 -0.561225
H8    H     H_    0.116845 0.958154 0.321608 0.249337
H9    H     H_    0.257087 0.151366 0.328216 0.210257
H10   H     H_    0.084237 0.050128 0.443348 0.245104
N6    N     N_2   0.683757 0.026942 0.582089 -0.449009
H11   H     H_    0.795205 0.117255 0.548843 0.270239
C18   C     C_3   0.596610 0.038919 0.690796 -0.579264
H12   H     H_    0.707152 0.074556 0.737065 0.259655
H13   H     H_    0.507838 0.923078 0.725821 0.227194
H14   H     H_    0.509257 0.128469 0.696138 0.215532

loop_
_geom_bond_atom_site_label_1
_geom_bond_atom_site_label_2
_geom_bond_distance
_ccdc_geom_bond_type
C4    C5    1.455031 S    
N4    O12   1.300795 A    
O7    Cu2   1.958682 S    
C3    C6    1.454334 S    
N1    H5    1.028624 S    
N2    H6    1.029225 S    
C6    C9    1.416809 A    
N5    C17   1.447166 S    
N5    H7    1.032466 S    
C5    C10   1.417387 A    
C12   H1    1.085029 S    
O6    C4    1.299585 A    
C18   H14   1.110154 S    
C15   N5    1.443095 S    
C18   H13   1.111458 S    
C11   C13   1.385663 A    
C15   C16   1.353258 D    
N6    C18   1.446774 S    
C8    H4    1.084736 S    
C11   H2    1.085227 S    
O5    C3    1.299234 A    
C10   N3    1.431343 S    
C17   H9    1.110317 S    
O2    C2    1.284248 A    
O3    Cu2   1.956023 S    
O8    C4    1.286915 A    
O1    C1    1.286459 A    
N1    N2    1.302087 D    
C7    C9    1.391304 A    
C8    C10   1.391268 A    
O7    C3    1.286870 A    
C17   H8    1.110548 S    
N4    O11   1.300633 A    
O2    Cu2   1.968009 S    
C17   H10   1.109284 S    
C5    C12   1.396759 A    
O1    Cu1   1.968009 S    
C8    C13   1.395109 A    
C6    C11   1.396353 A    
C7    H3    1.084710 S    
N6    H11   1.028810 S    
C2    C16   1.420414 S    
O5    Cu1   1.958870 S    
O4    C2    1.282693 A    
C18   H12   1.110329 S    
Cu1   N2    2.015216 S    
O4    Cu1   1.956023 S    
C7    C14   1.395438 A    
Cu2   N1    2.015217 S    
O6    Cu2   1.958869 S    
C16   N6    1.429863 S    
N3    O10   1.300822 A    
C13   C14   1.410503 A    
Cu1   Cu2   2.681791 S    
C9    N4    1.431051 S    
N3    O9    1.300669 A    
C12   C14   1.385800 A    
O3    C1    1.287620 A    
O8    Cu1   1.958679 S    
C1    C15   1.438523 S    
