data_mof_unit_21877.cif
_audit_creation_date              2012-12-10T17:27:55-0500
_audit_creation_method            fapswitch 2.2
_symmetry_space_group_name_H-M    P1
_symmetry_Int_Tables_number       1
_space_group_crystal_system       triclinic
_cell_length_a                    10.632968
_cell_length_b                    12.108318
_cell_length_c                    12.776073
_cell_angle_alpha                 95.97092
_cell_angle_beta                  92.841981
_cell_angle_gamma                 83.099881
_cell_volume                      1622.96678942

loop_
_atom_site_label
_atom_site_type_symbol
_atom_type_description
_atom_site_fract_x
_atom_site_fract_y
_atom_site_fract_z
_atom_type_partial_charge
C1    C     C_R   0.486933 0.524560 0.700478 0.995575
C2    C     C_R   0.475384 0.646007 0.872523 0.330271
C3    C     C_R   0.442162 0.450194 0.865151 0.067264
C4    C     C_R   0.740110 0.494947 0.495014 0.914055
C5    C     C_R   0.477107 0.448316 0.971853 0.051756
C6    C     C_R   0.512053 0.547815 0.029102 -0.101324
C7    C     C_R   0.556885 0.543728 0.133494 0.091372
C8    C     C_R   0.509980 0.351613 0.129792 0.350227
C9    C     C_R   0.484815 0.348278 0.021407 0.089841
C10   C     C_R   0.366296 0.954310 0.407094 0.280507
C11   C     C_R   0.384622 0.837653 0.415493 0.179400
C12   C     C_R   0.943294 0.430569 0.409112 -0.132136
C13   C     C_R   0.556648 0.858809 0.538605 0.184395
C14   C     C_R   0.550958 0.975084 0.525998 -0.079620
C15   C     C_R   0.449860 0.025949 0.463849 -0.094385
C16   C     C_R   0.514318 0.474749 0.299911 0.940916
C17   C     C_R   0.439100 0.145756 0.462195 0.199626
C18   C     C_R   0.621798 0.158640 0.575824 0.466712
C19   C     C_R   0.642250 0.042779 0.576023 -0.013789
C20   C     C_R   0.260068 0.502348 0.494325 0.977559
C21   C     C_R   0.899054 0.348722 0.331327 -0.023270
C22   C     C_R   0.958351 0.324933 0.234663 0.384081
C23   C     C_R   0.875025 0.483343 0.497333 -0.122820
C24   C     C_R   0.062427 0.378990 0.214937 -0.010615
C25   C     C_R   0.114823 0.448101 0.295869 0.349910
C26   C     C_R   0.062961 0.463592 0.397323 -0.085839
C27   C     C_R   0.934851 0.539462 0.583807 0.366313
C28   C     C_R   0.063034 0.548438 0.580953 -0.024800
C29   C     C_R   0.125688 0.510561 0.488132 -0.088505
C30   C     C_R   0.531927 0.453815 0.186912 -0.200604
C31   C     C_R   0.465658 0.542427 0.813425 -0.281129
C32   C     C_R   0.496817 0.649105 0.981336 0.377943
Cl1   Cl    Cl    0.851911 0.591201 0.699056 -0.605088
Cl2   Cl    Cl    0.448567 0.773380 0.814481 -0.531915
Cl3   Cl    Cl    0.726023 0.240629 0.651197 -0.530247
Cl4   Cl    Cl    0.237467 0.001323 0.323175 -0.593048
Cl5   Cl    Cl    0.899743 0.227605 0.137220 -0.506414
Cl6   Cl    Cl    0.224312 0.533433 0.259825 -0.610451
Cl7   Cl    Cl    0.521923 0.224634 0.188767 -0.570104
Cl8   Cl    Cl    0.491945 0.781313 0.056505 -0.443278
H1    H     H_    0.552592 0.188597 0.970484 0.266943
H2    H     H_    0.210528 0.789468 0.378538 0.231186
H3    H     H_    0.609605 0.855231 0.690856 0.232456
H4    H     H_    0.630557 0.731606 0.624987 0.301440
H5    H     H_    0.722845 0.303067 0.339862 0.249278
H6    H     H_    0.832993 0.250654 0.432734 0.252412
H7    H     H_    0.047811 0.385776 0.057032 0.238047
H8    H     H_    0.149038 0.277624 0.097059 0.246854
H9    H     H_    0.089851 0.678284 0.690278 0.257857
H10   H     H_    0.121695 0.550157 0.734627 0.228242
H11   H     H_    0.704442 0.634007 0.130281 0.220618
H12   H     H_    0.394049 0.209354 0.990976 0.249170
H13   H     H_    0.686517 0.595423 0.247349 0.170562
H14   H     H_    0.304133 0.397865 0.760021 0.192784
H15   H     H_    0.435687 0.302897 0.771304 0.249820
H16   H     H_    0.347125 0.179828 0.323402 0.283257
H17   H     H_    0.252718 0.196259 0.431833 0.223615
H18   H     H_    0.803236 0.930758 0.568161 0.234525
H19   H     H_    0.752973 0.974420 0.694468 0.240259
H20   H     H_    0.311148 0.772130 0.276872 0.274979
N1    N     N_R   0.523130 0.207800 0.519340 -0.158487
N2    N     N_3   0.117814 0.362600 0.113564 -0.369863
N3    N     N_3   0.130968 0.596252 0.671214 -0.440452
N4    N     N_3   0.634410 0.626092 0.182823 -0.341551
N5    N     N_R   0.476870 0.792180 0.480660 -0.129954
N6    N     N_3   0.469602 0.243157 0.961691 -0.404232
N7    N     N_3   0.373329 0.363667 0.812242 -0.402151
N8    N     N_3   0.340834 0.205903 0.403462 -0.352517
N9    N     N_3   0.762592 0.997302 0.618998 -0.380043
N10   N     N_3   0.304163 0.764943 0.357173 -0.314782
N11   N     N_3   0.640140 0.814077 0.619136 -0.423865
N12   N     N_3   0.816077 0.271053 0.355413 -0.345857
O1    O     O_R   0.506170 0.421690 0.658830 -0.595513
O2    O     O_R   0.491330 0.609320 0.646410 -0.591413
O3    O     O_R   0.690660 0.406170 0.506210 -0.596943
O4    O     O_R   0.675810 0.593790 0.493790 -0.629788
O5    O     O_R   0.508670 0.390680 0.353590 -0.586143
O6    O     O_R   0.493830 0.578310 0.341170 -0.564929
O7    O     O_R   0.324190 0.406210 0.506210 -0.625825
O8    O     O_R   0.309340 0.593830 0.493790 -0.575755
Zn1   Zn    Zn3+2 0.509910 0.374720 0.508290 1.015026
Zn2   Zn    Zn3+2 0.490090 0.625280 0.491710 1.022391

loop_
_geom_bond_atom_site_label_1
_geom_bond_atom_site_label_2
_ccdc_geom_bond_type
C6    C32   A    
H9    N3    S    
C1    C31   S    
H7    N2    S    
C11   N10   S    
C13   N5    A    
C27   Cl1   S    
C12   C23   A    
C1    O2    A    
C28   C29   A    
C18   C19   A    
C10   C15   A    
C5    C6    A    
H13   N4    S    
C16   C30   S    
H2    N10   S    
H4    N11   S    
C2    C32   A    
C16   O5    A    
C9    N6    S    
C4    O3    A    
C17   N1    A    
C8    C9    A    
H3    N11   S    
C8    Cl7   S    
C23   C27   A    
C18   Cl3   S    
H6    N12   S    
C2    Cl2   S    
C7    C30   A    
C13   C14   A    
H5    N12   S    
H10   N3    S    
O2    Zn2   S    
O1    Zn1   S    
C20   C29   S    
C20   O8    A    
C21   N12   S    
C24   C25   A    
O8    Zn2   S    
O4    Zn2   S    
O7    Zn1   S    
C4    C23   S    
O3    Zn1   S    
H14   N7    S    
C13   N11   S    
C25   C26   A    
H16   N8    S    
C22   Cl5   S    
C12   C21   A    
C12   C26   A    
C2    C31   A    
C5    C9    A    
C25   Cl6   S    
O6    Zn2   S    
H8    N2    S    
H20   N10   S    
C18   N1    A    
C3    C31   A    
H1    N6    S    
H19   N9    S    
C22   C24   A    
C19   N9    S    
H17   N8    S    
H12   N6    S    
C15   C17   A    
C17   N8    S    
C24   N2    S    
C20   O7    A    
C14   C19   A    
C3    N7    S    
H11   N4    S    
C3    C5    A    
H15   N7    S    
H18   N9    S    
C6    C7    A    
C1    O1    A    
C8    C30   A    
N1    Zn1   S    
N5    Zn2   S    
C16   O6    A    
C32   Cl8   S    
C7    N4    S    
C4    O4    A    
C10   C11   A    
C28   N3    S    
C26   C29   A    
O5    Zn1   S    
C27   C28   A    
C14   C15   A    
C10   Cl4   S    
C21   C22   A    
C11   N5    A    
