data_mof_unit_27807.cif
_audit_creation_date              2012-12-10T17:02:12-0500
_audit_creation_method            fapswitch 2.2
_symmetry_space_group_name_H-M    P1
_symmetry_Int_Tables_number       1
_space_group_crystal_system       triclinic
_cell_length_a                    10.636255
_cell_length_b                    10.666235
_cell_length_c                    10.041028
_cell_angle_alpha                 91.01968
_cell_angle_beta                  89.990393
_cell_angle_gamma                 89.930172
_cell_volume                      1138.96127162

loop_
_atom_site_label
_atom_site_type_symbol
_atom_type_description
_atom_site_fract_x
_atom_site_fract_y
_atom_site_fract_z
_atom_type_partial_charge
C1    C     C_R   0.503133 0.262451 0.498502 0.915071
C2    C     C_2   0.506839 0.129462 0.493194 -0.414377
C3    C     C_2   0.573802 0.570361 0.926257 -0.122649
C4    C     C_R   0.260600 0.503693 0.500077 0.867475
C5    C     C_2   0.568871 0.575193 0.076304 -0.120907
C6    C     C_R   0.506815 0.737450 0.501392 0.925235
C7    C     C_R   0.739441 0.503288 0.500010 0.846899
C8    C     C_R   0.130600 0.714908 0.624616 -0.179194
C9    C     C_R   0.064678 0.813717 0.685003 -0.135123
C10   C     C_R   0.933840 0.813525 0.685097 -0.140490
C11   C     C_R   0.868440 0.714534 0.624807 -0.189437
C12   C     C_R   0.065695 0.613085 0.564195 0.094044
C13   C     C_R   0.933839 0.612924 0.564233 0.097997
C14   C     C_3   0.759279 0.051871 0.248483 -0.805070
C15   C     C_R   0.128318 0.512314 0.499814 -0.096734
C16   C     C_R   0.064514 0.417147 0.432001 -0.206342
C17   C     C_R   0.936096 0.417154 0.431785 -0.208375
C18   C     C_R   0.871721 0.512090 0.499720 -0.089712
C19   C     C_2   0.561114 0.930422 0.396473 -0.165932
C20   C     C_2   0.535263 0.867789 0.506798 -0.416776
C21   C     C_2   0.579423 0.065694 0.404948 0.270043
H1    H     H_    0.114491 0.341380 0.381517 0.151684
H2    H     H_    0.766968 0.719604 0.624495 0.146111
H3    H     H_    0.886750 0.341546 0.380862 0.145305
H4    H     H_    0.565248 0.883368 0.299789 0.177042
H5    H     H_    0.540981 0.912000 0.605005 0.158912
H6    H     H_    0.705199 0.209289 0.358810 0.225957
H7    H     H_    0.823279 0.113645 0.191957 0.237483
H8    H     H_    0.712125 0.988276 0.175535 0.240708
H9    H     H_    0.816217 0.996828 0.319584 0.245412
H10   H     H_    0.440738 0.083626 0.558763 0.134380
H11   H     H_    0.641485 0.630425 0.877840 0.158056
H12   H     H_    0.432879 0.449082 0.896846 0.166756
H13   H     H_    0.627494 0.644122 0.127056 0.156294
H14   H     H_    0.450616 0.431837 0.100893 0.166809
H15   H     H_    0.232091 0.720284 0.624008 0.149078
H16   H     H_    0.115280 0.891237 0.730731 0.136590
H17   H     H_    0.882822 0.890876 0.730893 0.137573
N1    N     N_2   0.501340 0.501330 0.852150 -0.189248
N2    N     N_2   0.501380 0.501360 0.147810 -0.188409
N3    N     N_2   0.667407 0.127715 0.319682 -0.274376
O1    O     O_R   0.499980 0.319060 0.613040 -0.604220
O2    O     O_R   0.500020 0.319100 0.386900 -0.600294
O3    O     O_R   0.316750 0.499980 0.613090 -0.616942
O4    O     O_R   0.316790 0.500020 0.386950 -0.607435
O5    O     O_R   0.499980 0.680900 0.613100 -0.630093
O6    O     O_R   0.500020 0.680940 0.386960 -0.607416
O7    O     O_R   0.683210 0.499980 0.613050 -0.614385
O8    O     O_R   0.683250 0.500020 0.386910 -0.615005
Zn1   Zn    Zn3+2 0.499970 0.499970 0.650990 0.939568
Zn2   Zn    Zn3+2 0.500030 0.500030 0.349010 0.948457

loop_
_geom_bond_atom_site_label_1
_geom_bond_atom_site_label_2
_ccdc_geom_bond_type
C16   H1    S    
N2    Zn2   S    
C6    C20   S    
C9    C10   A    
H6    N3    S    
C19   C20   D    
C12   C15   A    
C8    C12   A    
C6    O5    A    
C10   H17   S    
C7    C18   S    
C5    H13   S    
C2    C21   D    
O7    Zn1   S    
H14   N2    S    
C3    N1    D    
C7    O7    A    
C11   C13   A    
O2    Zn2   S    
H12   N1    S    
C20   H5    S    
C13   C18   A    
O1    Zn1   S    
C14   N3    S    
C21   N3    S    
C9    H16   S    
C19   C21   S    
C14   H9    S    
C17   C18   A    
C4    O4    A    
C2    H10   S    
C4    C15   S    
C8    H15   S    
C3    H11   S    
C19   H4    S    
C17   H3    S    
C10   C11   A    
O4    Zn2   S    
C14   H8    S    
C15   C16   A    
C1    O1    A    
N1    Zn1   S    
C12   C13   A    
C7    O8    A    
C1    C2    S    
C6    O6    A    
C5    N2    D    
O3    Zn1   S    
C11   H2    S    
O5    Zn1   S    
C16   C17   A    
O6    Zn2   S    
C4    O3    A    
C14   H7    S    
C1    O2    A    
O8    Zn2   S    
C8    C9    A    
C3    C5    S    
