data_mof_unit_48393.cif
_audit_creation_date              2012-12-10T19:04:46-0500
_audit_creation_method            fapswitch 2.2
_symmetry_space_group_name_H-M    P1
_symmetry_Int_Tables_number       1
_space_group_crystal_system       triclinic
_cell_length_a                    15.878085
_cell_length_b                    10.829663
_cell_length_c                    9.609495
_cell_angle_alpha                 89.561666
_cell_angle_beta                  89.802003
_cell_angle_gamma                 91.456752
_cell_volume                      1651.80067141

loop_
_atom_site_label
_atom_site_type_symbol
_atom_type_description
_atom_site_fract_x
_atom_site_fract_y
_atom_site_fract_z
_atom_type_partial_charge
C1    C     C_R   0.500565 0.262519 0.500469 0.776003
C2    C     C_3   0.083664 0.503060 0.502039 0.128140
C3    C     C_3   0.974136 0.619797 0.503316 -0.096267
C4    C     C_3   0.916582 0.503343 0.502108 0.138798
C5    C     C_3   0.029208 0.562915 0.389291 -0.034648
C6    C     C_3   0.970993 0.446113 0.386886 -0.227574
C7    C     C_1   0.175217 0.501177 0.501444 0.111408
C8    C     C_1   0.824943 0.502041 0.500324 0.088701
C9    C     C_R   0.492330 0.061935 0.624043 0.125075
C10   C     C_R   0.507097 0.129453 0.501706 -0.073276
C11   C     C_R   0.532855 0.066838 0.381785 -0.207645
C12   C     C_R   0.340097 0.499792 0.500219 0.817831
C13   C     C_R   0.533684 0.938000 0.381506 -0.184227
C14   C     C_R   0.508105 0.870851 0.500590 -0.107676
C15   C     C_R   0.492142 0.934770 0.623108 0.039552
C16   C     C_3   0.419882 0.924094 0.723592 -0.185027
C17   C     C_3   0.419805 0.064538 0.723677 -0.560487
C18   C     C_R   0.564851 0.554142 0.072203 0.240353
C19   C     C_R   0.440254 0.434468 0.075858 0.035893
C20   C     C_R   0.438728 0.437208 0.926837 0.018764
C21   C     C_R   0.565481 0.552767 0.925663 0.254908
C22   C     C_3   0.595751 0.683973 0.917462 -0.466520
C23   C     C_R   0.501574 0.737424 0.499670 0.802075
C24   C     C_3   0.593401 0.686096 0.075384 -0.490588
C25   C     C_R   0.659931 0.500348 0.499832 0.821420
C26   C     C_3   0.971045 0.443589 0.614908 -0.014945
C27   C     C_3   0.026350 0.385630 0.500947 -0.219704
C28   C     C_1   0.250613 0.500267 0.500857 -0.038778
C29   C     C_1   0.749490 0.501135 0.499612 -0.122993
C30   C     C_3   0.029026 0.559867 0.616284 -0.117586
Cu1   Cu    Cu3+1 0.500000 0.499980 0.640670 0.980798
Cu2   Cu    Cu3+1 0.500000 0.500020 0.359330 0.969021
N1    N     N_R   0.500530 0.500930 0.147930 -0.229785
N2    N     N_R   0.500530 0.500890 0.852020 -0.227920
O1    O     O_R   0.500000 0.319640 0.618810 -0.604566
O2    O     O_R   0.500010 0.319680 0.381230 -0.616203
O3    O     O_R   0.379070 0.499970 0.618770 -0.560786
O4    O     O_R   0.379080 0.500010 0.381190 -0.546993
O5    O     O_R   0.499990 0.680320 0.618770 -0.572571
O6    O     O_R   0.500000 0.680360 0.381190 -0.580635
O7    O     O_R   0.620920 0.499990 0.618810 -0.563572
O8    O     O_R   0.620930 0.500030 0.381230 -0.582112
H1    H     H_    0.048314 0.289120 0.500548 0.156764
H2    H     H_    0.438217 0.883967 0.825570 0.178976
H3    H     H_    0.362891 0.105539 0.676558 0.183732
H4    H     H_    0.438717 0.103979 0.825707 0.189128
C31   C     C_2   0.379861 0.352643 0.151843 0.483029
H5    H     H_    0.400488 0.266157 0.195712 0.027578
O9    O     O_2   0.306002 0.379877 0.162829 -0.472481
C32   C     C_2   0.369787 0.370692 0.853748 0.431763
H6    H     H_    0.383143 0.307908 0.771013 0.070958
O10   O     O_2   0.296237 0.389090 0.882418 -0.470548
H7    H     H_    0.660588 0.692813 0.873913 0.208389
H8    H     H_    0.549343 0.745679 0.868911 0.214185
H9    H     H_    0.656640 0.698468 0.123270 0.204845
H10   H     H_    0.543932 0.746791 0.116134 0.211667
C33   C     C_2   0.941167 0.375316 0.742726 0.347676
H11   H     H_    0.986831 0.336966 0.813573 0.091253
O11   O     O_2   0.866082 0.362639 0.767962 -0.534616
H12   H     H_    0.946653 0.399695 0.292021 0.159514
C34   C     C_2   0.059081 0.629670 0.260446 0.385146
H13   H     H_    0.013416 0.667066 0.188929 0.068252
O12   O     O_2   0.134169 0.642291 0.235190 -0.485324
C35   C     C_2   0.947822 0.751740 0.504436 0.330996
H14   H     H_    0.995482 0.825260 0.504820 0.088315
O13   O     O_2   0.873414 0.777151 0.504974 -0.535574
C36   C     C_2   0.058584 0.623245 0.746089 0.376424
H15   H     H_    0.012776 0.660010 0.817665 0.072280
O14   O     O_2   0.133556 0.633568 0.772103 -0.446943
H16   H     H_    0.549677 0.116791 0.287212 0.159634
H17   H     H_    0.551548 0.891648 0.287275 0.155530
C37   C     C_2   0.341364 0.866165 0.662271 0.439878
H18   H     H_    0.317366 0.898722 0.563240 0.063414
O15   O     O_2   0.304453 0.781572 0.723282 -0.469499

loop_
_geom_bond_atom_site_label_1
_geom_bond_atom_site_label_2
_ccdc_geom_bond_type
C18   C21   A    
C2    C7    S    
C16   C37   S    
C4    C8    S    
C11   H16   S    
C22   H8    S    
C3    C35   S    
C24   H9    S    
C26   C27   S    
C12   C28   S    
C18   C24   S    
C8    C29   T    
Cu2   O2    S    
C17   H3    S    
C5    C6    S    
C19   C31   S    
C33   O11   D    
C23   O6    A    
C12   O3    A    
C34   O12   D    
C20   C32   S    
C31   H5    S    
C16   C17   S    
C32   O10   D    
C2    C27   S    
Cu2   O4    S    
C9    C10   A    
C16   H2    S    
C30   C36   S    
C20   N2    A    
C13   C14   A    
C31   O9    D    
C18   N1    A    
C22   H7    S    
C25   C29   S    
C36   H15   S    
C6    H12   S    
C17   H4    S    
C37   O15   D    
C19   N1    A    
C25   O7    A    
C21   N2    A    
C13   H17   S    
C7    C28   T    
Cu1   O3    S    
C36   O14   D    
C35   O13   D    
C14   C23   S    
C3    C30   S    
C6    C27   S    
C32   H6    S    
Cu1   N2    S    
C5    C34   S    
C9    C17   S    
C26   C30   S    
C22   C24   S    
C4    C6    S    
C3    C4    S    
C1    O1    A    
Cu1   O7    S    
Cu1   Cu2   S    
C1    C10   S    
C37   H18   S    
C3    C5    S    
C25   O8    A    
C4    C26   S    
C24   H10   S    
C2    C30   S    
Cu2   N1    S    
C19   C20   A    
C9    C15   A    
C35   H14   S    
C11   C13   A    
C33   H11   S    
C23   O5    A    
Cu1   O5    S    
Cu1   O1    S    
Cu2   O6    S    
C12   O4    A    
C34   H13   S    
C26   C33   S    
C10   C11   A    
C2    C5    S    
C27   H1    S    
Cu2   O8    S    
C14   C15   A    
C21   C22   S    
C15   C16   S    
C1    O2    A    
