data_mof_unit_32535.cif
_audit_creation_date              2012-12-11T16:37:15-0500
_audit_creation_method            fapswitch 2.2
_symmetry_space_group_name_H-M    P1
_symmetry_Int_Tables_number       1
_space_group_crystal_system       triclinic
_cell_length_a                    19.480144
_cell_length_b                    6.931552
_cell_length_c                    17.756633
_cell_angle_alpha                 90.056517
_cell_angle_beta                  109.110994
_cell_angle_gamma                 89.984118
_cell_volume                      2265.49192829

loop_
_atom_site_label
_atom_site_type_symbol
_atom_type_description
_atom_site_fract_x
_atom_site_fract_y
_atom_site_fract_z
_atom_type_partial_charge
O1    O     O_R   0.561710 0.369960 0.440200 -0.546658
O2    O     O_R   0.061710 0.630040 0.940200 -0.542113
O3    O     O_R   0.412630 0.033330 0.406330 -0.544313
O4    O     O_R   0.912630 0.966670 0.906330 -0.548461
O5    O     O_R   0.438290 0.869790 0.559800 -0.503015
O6    O     O_R   0.938290 0.130210 0.059800 -0.524780
C1    C     C_R   0.385491 0.202917 0.382364 0.711111
C2    C     C_R   0.885029 0.797041 0.883023 0.699595
O7    O     O_R   0.559570 0.039810 0.430640 -0.550025
O8    O     O_R   0.059570 0.960190 0.930640 -0.545400
O9    O     O_R   0.586280 0.876320 0.584290 -0.516128
O10   O     O_R   0.086280 0.123680 0.084290 -0.510265
C3    C     C_R   0.581010 0.209171 0.415490 0.670971
C4    C     C_R   0.081356 0.790863 0.916344 0.678628
O11   O     O_R   0.413720 0.363440 0.415710 -0.544059
O12   O     O_R   0.913720 0.636560 0.915710 -0.543557
O13   O     O_3   0.508590 0.205630 0.550380 -0.330134
O14   O     O_3   0.008590 0.794370 0.050380 -0.338216
V1    V     V_3+5 0.498410 0.928130 0.490650 1.472039
V2    V     V_3+5 0.998410 0.071870 0.990650 1.458570
O15   O     O_R   0.587370 0.546990 0.593670 -0.536353
O16   O     O_R   0.087370 0.453010 0.093670 -0.537377
C5    C     C_R   0.614180 0.717086 0.618278 0.761970
C6    C     C_R   0.114395 0.283099 0.118032 0.770374
O17   O     O_R   0.440430 0.540520 0.569360 -0.545248
O18   O     O_R   0.940430 0.459480 0.069360 -0.548572
C7    C     C_R   0.418328 0.709796 0.584021 0.733338
C8    C     C_R   0.919852 0.289964 0.085690 0.730492
V3    V     V_3+5 0.501590 0.428960 0.509350 1.475977
V4    V     V_3+5 0.001590 0.571040 0.009350 1.453217
O19   O     O_3   0.491410 0.701330 0.449620 -0.389471
O20   O     O_3   0.991410 0.298670 0.949620 -0.382566
C9    C     C_R   0.285159 0.902093 0.684165 -0.200991
C10   C     C_R   0.820961 0.101586 0.225347 -0.188380
H1    H     H_    0.257668 0.036524 0.686342 0.104461
H2    H     H_    0.818696 0.973325 0.258968 0.111829
C11   C     C_R   0.328553 0.892505 0.634808 0.300770
C12   C     C_R   0.869217 0.108507 0.180969 0.281903
C13   C     C_R   0.368911 0.722926 0.633096 -0.076550
C14   C     C_R   0.871925 0.276889 0.136317 -0.098082
C15   C     C_R   0.362085 0.565303 0.679916 -0.218384
C16   C     C_R   0.827089 0.433857 0.139138 -0.216053
H3    H     H_    0.393257 0.435260 0.681571 0.153261
H4    H     H_    0.827180 0.562891 0.104942 0.130171
C17   C     C_R   0.315354 0.572850 0.725455 -0.144691
C18   C     C_R   0.779763 0.424882 0.183737 -0.142196
H5    H     H_    0.309838 0.444558 0.757605 0.115320
H6    H     H_    0.745060 0.547598 0.182628 0.115300
C19   C     C_R   0.276116 0.741942 0.728510 0.058289
C20   C     C_R   0.775677 0.258150 0.227071 0.045694
C21   C     C_R   0.236451 0.637275 0.845010 -0.135089
C22   C     C_R   0.710168 0.409185 0.313830 -0.144726
H7    H     H_    0.282262 0.540124 0.865249 0.110449
H8    H     H_    0.736271 0.545862 0.311468 0.099987
C23   C     C_R   0.189020 0.648225 0.889552 -0.161552
C24   C     C_R   0.663354 0.397067 0.358992 -0.163071
H9    H     H_    0.198852 0.557392 0.941655 0.110120
H10   H     H_    0.654286 0.525558 0.389194 0.118847
C25   C     C_R   0.130739 0.778891 0.868570 -0.043649
C26   C     C_R   0.629782 0.221299 0.366212 -0.050500
C27   C     C_R   0.119712 0.895573 0.801315 -0.165885
C28   C     C_R   0.643741 0.058400 0.326285 -0.167818
H11   H     H_    0.074461 0.995413 0.783297 0.113717
H12   H     H_    0.618528 0.921070 0.329962 0.120272
C29   C     C_R   0.165502 0.880089 0.755103 -0.137744
C30   C     C_R   0.690036 0.070951 0.280452 -0.139646
H13   H     H_    0.152753 0.967009 0.701771 0.107620
H14   H     H_    0.698256 0.943042 0.249433 0.101461
C31   C     C_R   0.225478 0.752647 0.776687 0.100130
C32   C     C_R   0.724425 0.246243 0.274008 0.108910
C33   C     C_R   0.807598 0.640954 0.755308 0.099133
C34   C     C_R   0.307897 0.361062 0.255034 0.104392
C35   C     C_R   0.817611 0.784884 0.813440 -0.152779
C36   C     C_R   0.318529 0.214534 0.312079 -0.161137
C37   C     C_R   0.760207 0.916122 0.803786 -0.225606
C38   C     C_R   0.261947 0.079949 0.300632 -0.237154
H15   H     H_    0.765934 0.030765 0.846930 0.152470
H16   H     H_    0.268403 0.960949 0.341644 0.147802
C39   C     C_R   0.692718 0.890624 0.742716 0.365299
C40   C     C_R   0.194031 0.107281 0.240740 0.371060
C41   C     C_R   0.682180 0.736025 0.687235 -0.161908
C42   C     C_R   0.182740 0.264266 0.186520 -0.165072
C43   C     C_R   0.742404 0.619441 0.693168 0.020711
C44   C     C_R   0.242665 0.382511 0.192897 0.019472
C45   C     C_3   0.749376 0.405014 0.694518 -0.386905
C46   C     C_3   0.249172 0.597018 0.195519 -0.387147
C47   C     C_3   0.820601 0.428653 0.762634 -0.372624
C48   C     C_3   0.320417 0.573264 0.263609 -0.375375
H17   H     H_    0.756624 0.347818 0.639103 0.162877
H18   H     H_    0.256281 0.656653 0.140453 0.163514
H19   H     H_    0.706381 0.333349 0.712624 0.233401
H20   H     H_    0.205927 0.666044 0.213950 0.234850
H21   H     H_    0.868870 0.385294 0.746375 0.161399
H22   H     H_    0.368618 0.618727 0.247682 0.163736
H23   H     H_    0.818629 0.369655 0.820104 0.182370
H24   H     H_    0.318221 0.629764 0.321402 0.177560
Cl1   Cl    Cl    0.620252 0.041411 0.744149 -0.668464
Cl2   Cl    Cl    0.121875 0.956574 0.242864 -0.698606
N1    N     N_2   0.328707 0.052771 0.584956 -0.504755
H25   H     H_    0.324513 0.183688 0.610523 0.246610
C49   C     C_3   0.276058 0.036580 0.506041 -0.506981
H26   H     H_    0.281364 0.162344 0.469717 0.188595
H27   H     H_    0.220042 0.035102 0.509340 0.192633
H28   H     H_    0.285381 0.902234 0.476669 0.183147
N2    N     N_2   0.913298 0.945361 0.178763 -0.487480
H29   H     H_    0.892444 0.861767 0.128395 0.252995
C50   C     C_3   0.944405 0.834634 0.251050 -0.440927
H30   H     H_    0.987317 0.738258 0.243778 0.237178
H31   H     H_    0.902446 0.742464 0.262824 0.156054
H32   H     H_    0.969365 0.932152 0.302451 0.212593

loop_
_geom_bond_atom_site_label_1
_geom_bond_atom_site_label_2
_ccdc_geom_bond_type
C30   H14   S    
C48   H24   S    
C49   H26   S    
C23   C25   A    
C35   C37   A    
O4    C2    A    
V1    O19   S    
C45   H19   S    
C13   C15   A    
C3    C26   S    
C30   C32   A    
C4    C25   S    
N2    C50   S    
O9    V1    S    
C36   C38   A    
C44   C46   S    
O3    C1    A    
C46   C48   S    
C8    C14   S    
C9    C19   A    
O13   V3    S    
C26   C28   A    
C16   C18   A    
C27   H11   S    
C6    C42   S    
O7    C3    A    
C41   C43   A    
O5    C7    A    
O7    V1    S    
O6    C8    A    
O8    V2    S    
C29   H13   S    
C47   H23   S    
C28   H12   S    
C50   H30   S    
O3    V1    S    
O14   V4    S    
V4    O20   S    
C5    C41   S    
C10   H2    S    
C17   H5    S    
C49   H27   S    
C19   C31   S    
C15   H3    S    
C16   H4    S    
C34   C48   S    
C22   H8    S    
O11   V3    S    
C1    C36   S    
C33   C43   A    
C45   C47   S    
O17   V3    S    
C11   C13   A    
C48   H22   S    
C10   C20   A    
C25   C27   A    
C28   C30   A    
C34   C36   A    
C46   H18   S    
C7    C13   S    
C33   C35   A    
C45   H17   S    
O13   V1    S    
C1    O11   A    
C21   C23   A    
O15   V3    S    
C9    C11   A    
C24   C26   A    
C21   H7    S    
N1    H25   S    
C17   C19   A    
O10   V2    S    
O1    V3    S    
C37   H15   S    
C34   C44   A    
C33   C47   S    
C40   C42   A    
C43   C45   S    
O18   V4    S    
C49   H28   S    
C42   C44   A    
O15   C5    A    
O8    C4    A    
C50   H32   S    
O16   C6    A    
O1    C3    A    
C11   N1    S    
C39   C41   A    
V2    O20   S    
C18   C20   A    
O16   V4    S    
C40   Cl2   S    
C10   C12   A    
C39   Cl1   S    
C38   C40   A    
C38   H16   S    
C14   C16   A    
O5    V1    S    
O17   C7    A    
O6    V2    S    
N2    H29   S    
O10   C6    A    
O18   C8    A    
O2    V4    S    
C12   N2    S    
C23   H9    S    
C20   C32   S    
V3    O19   S    
C46   H20   S    
C12   C14   A    
C50   H31   S    
C37   C39   A    
C29   C31   A    
C47   H21   S    
O9    C5    A    
C2    C35   S    
C9    H1    S    
C24   H10   S    
O14   V2    S    
O2    C4    A    
C22   C32   A    
O4    V2    S    
C18   H6    S    
C27   C29   A    
C2    O12   A    
C15   C17   A    
C21   C31   A    
O12   V4    S    
N1    C49   S    
C22   C24   A    
