data_mof_unit_21065.cif
_audit_creation_date              2012-12-11T17:25:55-0500
_audit_creation_method            fapswitch 2.2
_symmetry_space_group_name_H-M    P1
_symmetry_Int_Tables_number       1
_space_group_crystal_system       triclinic
_cell_length_a                    22.773699
_cell_length_b                    22.755202
_cell_length_c                    23.588169
_cell_angle_alpha                 90.15737
_cell_angle_beta                  89.777007
_cell_angle_gamma                 90.562184
_cell_volume                      12223.1379626

loop_
_atom_site_label
_atom_site_type_symbol
_atom_type_description
_atom_site_fract_x
_atom_site_fract_y
_atom_site_fract_z
_atom_type_partial_charge
C1    C     C_R   0.851295 0.079896 0.422845 0.450797
C2    C     C_R   0.851079 0.919874 0.422509 0.540200
C3    C     C_R   0.172699 0.738935 0.232895 0.372606
C4    C     C_R   0.686799 0.741080 0.644419 0.377354
C5    C     C_R   0.212751 0.157372 0.188272 0.378021
C6    C     C_R   0.234765 0.698414 0.675653 0.378632
C7    C     C_R   0.771884 0.308306 0.329798 0.346485
C8    C     C_R   0.694390 0.233155 0.329615 0.357358
C9    C     C_R   0.298291 0.784931 0.688109 0.366588
C10   C     C_R   0.153006 0.243578 0.209159 0.418089
C11   C     C_R   0.777266 0.690848 0.671930 0.380855
C12   C     C_R   0.213023 0.832324 0.198545 0.363954
C13   C     C_R   0.080077 0.851063 0.576467 0.451519
C14   C     C_R   0.746267 0.164200 0.777659 0.379470
C15   C     C_R   0.760495 0.687458 0.339976 0.374804
C16   C     C_R   0.155475 0.220969 0.807896 0.379075
C17   C     C_R   0.181848 0.175007 0.777558 -0.353187
C18   C     C_R   0.740812 0.742677 0.358412 -0.321224
C19   C     C_R   0.804334 0.180220 0.764541 -0.334611
C20   C     C_R   0.182411 0.799433 0.239657 -0.333986
C21   C     C_R   0.748589 0.734540 0.640574 -0.337554
C22   C     C_R   0.170610 0.185832 0.221831 -0.350919
C23   C     C_R   0.253573 0.754670 0.658748 -0.335373
C24   C     C_R   0.918881 0.149737 0.426418 0.570427
C25   C     C_R   0.748347 0.254970 0.349656 -0.302518
C26   C     C_R   0.678047 0.682119 0.275882 -0.330097
C27   C     C_R   0.246821 0.236243 0.857810 -0.390820
C28   C     C_R   0.234789 0.741391 0.149756 -0.325497
C29   C     C_R   0.746698 0.237686 0.851781 -0.334771
C30   C     C_R   0.232662 0.249542 0.140907 -0.387667
C31   C     C_R   0.686724 0.671587 0.722527 -0.325989
C32   C     C_R   0.692527 0.312634 0.261988 -0.317661
C33   C     C_R   0.299163 0.706307 0.756462 -0.331902
C34   C     C_3   0.857974 0.676184 0.320688 0.221381
C35   C     C_R   0.851403 0.919100 0.578033 0.512831
C36   C     C_3   0.914032 0.646376 0.340688 -0.285283
C37   C     C_3   0.965641 0.659739 0.301106 -0.950951
C38   C     C_3   0.098824 0.286436 0.760412 0.214181
C39   C     C_3   0.035887 0.299533 0.742502 -0.274089
C40   C     C_3   0.033230 0.353932 0.704985 -0.977977
C41   C     C_3   0.171102 0.922936 0.188843 0.202811
C42   C     C_3   0.177707 0.944137 0.127610 -0.244351
C43   C     C_3   0.127793 0.984931 0.111299 -1.028322
C44   C     C_3   0.684752 0.145569 0.703545 0.244102
C45   C     C_3   0.658861 0.096321 0.666904 -0.268950
C46   C     C_R   0.137977 0.070263 0.402137 0.503828
C47   C     C_3   0.624061 0.120696 0.617244 -0.972662
C48   C     C_3   0.054712 0.249492 0.232335 0.212810
C49   C     C_3   0.028056 0.274942 0.178217 -0.323902
C50   C     C_3   0.962835 0.259702 0.173587 -1.001753
C51   C     C_3   0.849739 0.650478 0.616914 0.216252
C52   C     C_3   0.847505 0.584323 0.628823 -0.280913
C53   C     C_3   0.866503 0.548929 0.576964 -1.015434
C54   C     C_3   0.683452 0.134269 0.316261 0.215941
C55   C     C_3   0.652285 0.079254 0.338816 -0.264986
C56   C     C_3   0.668904 0.024697 0.304778 -0.983089
C57   C     C_R   0.925627 0.142315 0.591541 0.467029
C58   C     C_3   0.352203 0.837127 0.622764 0.279848
C59   C     C_3   0.414315 0.816281 0.637122 -0.334476
C60   C     C_3   0.454395 0.817620 0.585182 -1.010516
C61   C     C_3   0.137382 0.674192 0.671854 0.220274
C62   C     C_3   0.090934 0.641289 0.637151 -0.278788
C63   C     C_3   0.029500 0.649451 0.661902 -0.977893
C64   C     C_3   0.816730 0.375934 0.386381 0.211923
C65   C     C_3   0.874784 0.392318 0.414811 -0.236833
C66   C     C_3   0.867762 0.445013 0.454387 -1.034499
C67   C     C_3   0.669307 0.834727 0.609277 0.198318
C68   C     C_R   0.072674 0.857529 0.408303 0.476295
C69   C     C_3   0.615281 0.871633 0.596310 -0.309611
C70   C     C_3   0.630573 0.937078 0.594253 -0.978228
C71   C     C_3   0.275256 0.093683 0.230927 0.209394
C72   C     C_3   0.283750 0.029124 0.246207 -0.267429
C73   C     C_3   0.338350 0.020650 0.282408 -0.981619
C74   C     C_3   0.930686 0.185690 0.804566 0.202830
C75   C     C_3   0.950140 0.193676 0.866173 -0.243822
C76   C     C_3   0.992511 0.145520 0.883698 -1.028232
C77   C     C_3   0.175519 0.683996 0.313383 0.246028
C78   C     C_3   0.137345 0.654588 0.358739 -0.271780
C79   C     C_R   0.355883 0.575027 0.911879 0.443882
C80   C     C_3   0.174457 0.630505 0.406956 -0.985847
C81   C     C_3   0.232213 0.053325 0.777188 0.221574
C82   C     C_3   0.242267 0.031838 0.837925 -0.353719
C83   C     C_3   0.211812 0.972777 0.848219 -0.997229
C84   C     C_3   0.638517 0.813892 0.410959 0.209672
C85   C     C_3   0.574268 0.794870 0.402545 -0.268830
C86   C     C_3   0.539254 0.798762 0.457629 -1.026723
C87   C     C_3   0.339644 0.151880 0.894746 0.181653
C88   C     C_3   0.400624 0.124710 0.897496 -0.237078
C89   C     C_3   0.414590 0.103633 0.957267 -0.996172
C90   C     C_R   0.643676 0.424734 0.088954 0.522160
C91   C     C_3   0.625798 0.803068 0.231428 0.229550
C92   C     C_3   0.572577 0.838733 0.213441 -0.270646
C93   C     C_3   0.589600 0.885341 0.169802 -1.002317
C94   C     C_3   0.836109 0.346656 0.839869 0.214999
C95   C     C_3   0.867515 0.394510 0.874084 -0.256136
C96   C     C_3   0.868132 0.453001 0.842604 -1.011111
C97   C     C_3   0.149963 0.634412 0.139975 0.267211
C98   C     C_3   0.087847 0.631601 0.165276 -0.309626
C99   C     C_3   0.043739 0.606541 0.122903 -1.017520
C100  C     C_3   0.578940 0.756239 0.725762 0.205900
C101  C     C_R   0.420780 0.352224 0.918990 0.509499
C102  C     C_3   0.518811 0.740972 0.750676 -0.278994
C103  C     C_3   0.497858 0.788529 0.791432 -0.907217
C104  C     C_3   0.266831 0.154601 0.057042 0.203202
C105  C     C_3   0.220024 0.105854 0.051279 -0.269134
C106  C     C_3   0.209498 0.089618 0.989385 -1.067107
C107  C     C_3   0.279704 0.575182 0.718295 0.222254
C108  C     C_3   0.262022 0.514903 0.741531 -0.267768
C109  C     C_3   0.302761 0.466907 0.719864 -0.997355
C110  C     C_3   0.814359 0.370237 0.221790 0.224077
C111  C     C_3   0.837845 0.425599 0.192666 -0.247466
C112  C     C_R   0.149747 0.918903 0.573197 0.570234
C113  C     C_R   0.567373 0.636931 0.099070 0.517627
C114  C     C_3   0.887969 0.411467 0.151864 -0.997188
C115  C     C_3   0.564778 0.275370 0.285314 0.209347
C116  C     C_3   0.540941 0.251183 0.341513 -0.268251
C117  C     C_3   0.485368 0.283075 0.359862 -1.008899
C118  C     C_3   0.327443 0.830751 0.809418 0.228524
C119  C     C_3   0.368294 0.848162 0.858095 -0.275425
C120  C     C_3   0.338686 0.889806 0.899861 -1.013535
C121  C     C_3   0.154589 0.350107 0.111115 0.178735
C122  C     C_3   0.132538 0.413308 0.111161 -0.247615
C123  C     C_3   0.113094 0.431754 0.052023 -0.984309
C124  C     C_R   0.649244 0.418778 0.924671 0.519222
C125  C     C_3   0.804016 0.654359 0.794048 0.220394
C126  C     C_3   0.838849 0.611442 0.830133 -0.272695
C127  C     C_3   0.870388 0.642861 0.878621 -0.993900
C128  C     C_3   0.332106 0.843740 0.138735 0.218290
C129  C     C_3   0.371247 0.871058 0.092936 -0.276821
C130  C     C_3   0.433534 0.881550 0.114484 -1.002314
C131  C     C_3   0.651728 0.148300 0.884388 0.267781
C132  C     C_3   0.654502 0.081935 0.873791 -0.315453
C133  C     C_3   0.640173 0.047422 0.927541 -1.006719
C134  C     C_3   0.710801 0.555430 0.301482 0.226002
C135  C     C_R   0.350391 0.579790 0.075477 0.508825
C136  C     C_3   0.732294 0.533854 0.359169 -0.259591
C137  C     C_3   0.695149 0.482157 0.380356 -1.057658
C138  C     C_3   0.154904 0.281927 0.937941 0.210223
C139  C     C_3   0.104623 0.237486 0.947248 -0.277499
C140  C     C_3   0.090452 0.229879 0.010055 -1.065766
C141  C     C_R   0.568654 0.635997 0.900281 0.471346
C142  C     C_R   0.418777 0.350536 0.075606 0.563836
C143  C     C_R   0.637030 0.569646 0.098531 0.478353
C144  C     C_R   0.351040 0.419267 0.922963 0.548374
C145  C     C_R   0.571319 0.359570 0.094216 0.440736
C146  C     C_R   0.422276 0.646222 0.916134 0.524569
C147  C     C_R   0.352053 0.420416 0.080374 0.508019
C148  C     C_R   0.918974 0.850942 0.423131 0.523185
C149  C     C_R   0.635670 0.566124 0.899643 0.523633
C150  C     C_R   0.418563 0.649176 0.075514 0.511608
C151  C     C_R   0.580032 0.350450 0.924349 0.507505
C152  C     C_1   0.157109 0.156283 0.724806 0.166853
C153  C     C_1   0.781971 0.782959 0.382460 0.174555
C154  C     C_1   0.828889 0.161821 0.711991 0.159638
C155  C     C_1   0.164744 0.826390 0.291207 0.169927
C156  C     C_1   0.785545 0.779142 0.616882 0.104414
C157  C     C_1   0.152411 0.159660 0.274210 0.171474
C158  C     C_1   0.215742 0.788524 0.624753 0.154660
C159  C     C_R   0.070695 0.139101 0.596496 0.509258
C160  C     C_1   0.786162 0.216121 0.378728 0.190992
C161  C     C_1   0.655282 0.658796 0.224291 0.173454
C162  C     C_1   0.285890 0.280843 0.878384 0.166355
C163  C     C_1   0.277969 0.708532 0.120314 0.171755
C164  C     C_1   0.711239 0.280118 0.879547 0.162851
C165  C     C_1   0.278906 0.286306 0.119554 0.170658
C166  C     C_1   0.658808 0.650382 0.772885 0.179317
C167  C     C_1   0.670223 0.334421 0.209972 0.163639
C168  C     C_1   0.320838 0.682727 0.807677 0.180813
C169  C     C_1   0.817915 0.818763 0.396098 -0.043498
C170  C     C_R   0.143078 0.925145 0.409698 0.477270
C171  C     C_1   0.139037 0.140189 0.679725 -0.068590
C172  C     C_1   0.148777 0.847532 0.334750 -0.001894
C173  C     C_1   0.848841 0.146375 0.667675 -0.002768
C174  C     C_1   0.137538 0.140009 0.319128 -0.067041
C175  C     C_1   0.819694 0.817133 0.604093 -0.032469
C176  C     C_1   0.820309 0.181117 0.395905 0.037064
C177  C     C_1   0.180960 0.820867 0.604601 0.037845
C178  C     C_1   0.320350 0.318453 0.891461 -0.040210
C179  C     C_1   0.637812 0.640499 0.179929 -0.066074
C180  C     C_1   0.678540 0.317200 0.895789 0.042199
C181  C     C_R   0.857742 0.072198 0.592134 0.479314
C182  C     C_1   0.316225 0.677546 0.103627 0.042889
C183  C     C_1   0.638492 0.634601 0.817196 -0.075872
C184  C     C_1   0.317475 0.319726 0.106362 -0.039556
C185  C     C_1   0.341221 0.660821 0.848704 -0.002517
C186  C     C_1   0.650968 0.351936 0.166308 0.003288
C187  C     C_R   0.862355 0.138104 0.410095 -0.261220
C188  C     C_R   0.138250 0.862142 0.588615 -0.255709
C189  C     C_R   0.861617 0.862139 0.408026 -0.328826
C190  C     C_R   0.118098 0.118376 0.626719 -0.271357
C191  C     C_R   0.125093 0.873390 0.384179 -0.222755
C192  C     C_R   0.066871 0.136032 0.400221 0.479472
C193  C     C_R   0.873945 0.124004 0.617187 -0.215060
C194  C     C_R   0.116842 0.117949 0.372228 -0.270510
C195  C     C_R   0.862691 0.861616 0.593074 -0.314428
C196  C     C_R   0.369206 0.630815 0.893079 -0.209900
C197  C     C_R   0.625309 0.374821 0.116547 -0.207569
C198  C     C_R   0.362926 0.362693 0.904872 -0.309717
C199  C     C_R   0.616493 0.618224 0.127496 -0.284508
C200  C     C_R   0.637122 0.361389 0.909159 -0.254420
C201  C     C_R   0.361041 0.636847 0.090497 -0.252459
C202  C     C_R   0.616350 0.614513 0.870385 -0.283803
C203  C     C_R   0.920277 0.851196 0.578094 0.543372
C204  C     C_R   0.362109 0.362180 0.093450 -0.315059
C205  C     C_R   0.726678 0.655149 0.301127 0.358344
C206  C     C_R   0.187093 0.249518 0.851023 0.382219
C207  C     C_R   0.241850 0.802546 0.154621 0.374598
C208  C     C_R   0.718023 0.191177 0.823385 0.360424
C209  C     C_R   0.185153 0.276131 0.169205 0.403944
C210  C     C_R   0.746931 0.661980 0.715388 0.364492
C211  C     C_R   0.664645 0.264100 0.287572 0.367303
C212  C     C_R   0.318215 0.762166 0.739272 0.379525
C213  C     C_R   0.260303 0.672718 0.723302 0.337430
C214  C     C_R   0.135910 0.067492 0.599803 0.476626
C215  C     C_R   0.745069 0.336018 0.283672 0.340148
C216  C     C_R   0.656005 0.708071 0.685169 0.408349
C217  C     C_R   0.241846 0.188741 0.145270 0.383529
C218  C     C_R   0.806091 0.250869 0.841099 0.378786
C219  C     C_R   0.196641 0.710160 0.186025 0.355380
C220  C     C_R   0.270680 0.185477 0.832832 0.404863
C221  C     C_R   0.657220 0.736159 0.295925 0.369968
C222  C     C_R   0.237121 0.153403 0.793725 0.421204
C223  C     C_R   0.686654 0.764682 0.340304 0.357113
C224  C     C_R   0.836207 0.219215 0.799315 0.363075
H1    H     H_    0.767053 0.082133 0.414758 0.313638
H2    H     H_    0.766667 0.917432 0.414150 0.324375
H3    H     H_    0.853299 0.484094 0.430240 0.270247
H4    H     H_    0.910500 0.455503 0.474723 0.287465
H5    H     H_    0.835006 0.434965 0.488097 0.274744
H6    H     H_    0.702237 0.844131 0.575670 0.129956
H7    H     H_    0.686689 0.848300 0.651604 0.065567
H8    H     H_    0.596932 0.858071 0.554752 0.216991
H9    H     H_    0.581164 0.864366 0.629272 0.199980
H10   H     H_    0.649314 0.951850 0.635365 0.267724
H11   H     H_    0.590239 0.962597 0.585839 0.269841
H12   H     H_    0.662770 0.946075 0.559784 0.293986
H13   H     H_    0.082748 0.766651 0.583469 0.311719
H14   H     H_    0.270716 0.119435 0.270980 0.084675
H15   H     H_    0.314774 0.109536 0.207390 0.148389
H16   H     H_    0.244726 0.012954 0.270151 0.215606
H17   H     H_    0.288068 0.002719 0.206718 0.222714
H18   H     H_    0.378189 0.035648 0.259059 0.262529
H19   H     H_    0.343071 0.973324 0.292619 0.278086
H20   H     H_    0.334485 0.045756 0.322686 0.276531
H21   H     H_    0.970263 0.186177 0.776948 0.139954
H22   H     H_    0.909815 0.141511 0.798757 0.082388
H23   H     H_    0.971955 0.237268 0.871171 0.214993
H24   H     H_    0.970186 0.199337 0.470254 0.373013
H25   H     H_    0.911088 0.192115 0.894532 0.203814
H26   H     H_    0.971696 0.101528 0.878244 0.265825
H27   H     H_    0.004239 0.151192 0.929005 0.276607
H28   H     H_    0.033277 0.147916 0.857756 0.291251
H29   H     H_    0.202833 0.718858 0.333999 0.085050
H30   H     H_    0.204922 0.650377 0.294368 0.130491
H31   H     H_    0.105931 0.687091 0.376273 0.249091
H32   H     H_    0.111844 0.617919 0.339249 0.197551
H33   H     H_    0.205770 0.597372 0.390524 0.268344
H34   H     H_    0.145401 0.609175 0.438899 0.278193
H35   H     H_    0.768463 0.918694 0.592732 0.309455
H36   H     H_    0.199294 0.666691 0.427961 0.272161
H37   H     H_    0.249069 0.019519 0.747379 0.147696
H38   H     H_    0.184365 0.056567 0.768874 0.087003
H39   H     H_    0.290124 0.027593 0.845649 0.215182
H40   H     H_    0.224018 0.064191 0.868356 0.189318
H41   H     H_    0.163799 0.976528 0.841159 0.270512
H42   H     H_    0.219070 0.958887 0.892712 0.278769
H43   H     H_    0.229799 0.938763 0.819305 0.264458
H44   H     H_    0.639398 0.857852 0.431589 0.135816
H45   H     H_    0.661151 0.783415 0.440553 0.098330
H46   H     H_    0.214242 0.068811 0.366470 0.314960
H47   H     H_    0.553567 0.823484 0.370307 0.225499
H48   H     H_    0.572512 0.748755 0.387011 0.206813
H49   H     H_    0.560073 0.771940 0.491168 0.290785
H50   H     H_    0.493961 0.781885 0.450526 0.279162
H51   H     H_    0.536550 0.845201 0.471892 0.270297
H52   H     H_    0.306898 0.117811 0.907383 0.076087
H53   H     H_    0.337723 0.188999 0.925425 0.099924
H54   H     H_    0.402736 0.086796 0.867752 0.205112
H55   H     H_    0.434180 0.157793 0.884318 0.222208
H56   H     H_    0.414134 0.141163 0.987491 0.282772
H57   H     H_    0.920214 0.223487 0.614451 0.322094
H58   H     H_    0.458922 0.083755 0.957722 0.275739
H59   H     H_    0.381923 0.069981 0.971107 0.260619
H60   H     H_    0.644225 0.780402 0.193533 0.086852
H61   H     H_    0.659514 0.834172 0.248574 0.128765
H62   H     H_    0.538760 0.808855 0.195001 0.206998
H63   H     H_    0.553377 0.860698 0.251272 0.207240
H64   H     H_    0.623551 0.915601 0.187385 0.267526
H65   H     H_    0.550479 0.911517 0.158656 0.281537
H66   H     H_    0.606818 0.864209 0.130705 0.275958
H67   H     H_    0.790702 0.361521 0.830447 0.079640
H68   H     H_    0.041993 0.793607 0.450790 0.383616
H69   H     H_    0.860375 0.340385 0.799239 0.137548
H70   H     H_    0.844913 0.400279 0.915546 0.215351
H71   H     H_    0.913473 0.380949 0.882267 0.205218
H72   H     H_    0.891751 0.448658 0.801533 0.267052
H73   H     H_    0.890911 0.486858 0.868676 0.278507
H74   H     H_    0.822519 0.467638 0.834618 0.279319
H75   H     H_    0.161508 0.590072 0.123799 0.156951
H76   H     H_    0.151358 0.664437 0.102615 0.079412
H77   H     H_    0.087841 0.603506 0.203767 0.230211
H78   H     H_    0.073823 0.676451 0.177752 0.217954
H79   H     H_    0.276636 0.571083 0.883712 0.321316
H80   H     H_    0.042973 0.633935 0.084012 0.272453
H81   H     H_    0.999183 0.606192 0.142204 0.277907
H82   H     H_    0.055395 0.560764 0.111373 0.271600
H83   H     H_    0.576030 0.798160 0.702169 0.114028
H84   H     H_    0.610349 0.762539 0.761602 0.052590
H85   H     H_    0.486366 0.735491 0.716024 0.211179
H86   H     H_    0.521464 0.698463 0.773529 0.213861
H87   H     H_    0.532668 0.800719 0.822237 0.252432
H88   H     H_    0.459483 0.771532 0.815543 0.319218
H89   H     H_    0.485051 0.828330 0.767507 0.256758
H90   H     H_    0.704497 0.461258 0.044980 0.383010
H91   H     H_    0.305952 0.142088 0.031655 0.134177
H92   H     H_    0.250688 0.196520 0.038691 0.070566
H93   H     H_    0.234485 0.066143 0.074467 0.234239
H94   H     H_    0.177992 0.120877 0.070219 0.189755
H95   H     H_    0.201264 0.129561 0.963739 0.260252
H96   H     H_    0.170747 0.059874 0.986058 0.285494
H97   H     H_    0.248272 0.066219 0.972289 0.268858
H98   H     H_    0.326177 0.584443 0.730458 0.087506
H99   H     H_    0.276172 0.574242 0.671182 0.123156
H100  H     H_    0.263698 0.515912 0.788606 0.224270
H101  H     H_    0.421315 0.269511 0.900479 0.328932
H102  H     H_    0.216241 0.504331 0.728538 0.206275
H103  H     H_    0.301252 0.464447 0.672853 0.269332
H104  H     H_    0.288538 0.423810 0.737434 0.277147
H105  H     H_    0.348594 0.475944 0.733563 0.268494
H106  H     H_    0.797130 0.339598 0.188679 0.101340
H107  H     H_    0.851179 0.348908 0.244540 0.133648
H108  H     H_    0.801730 0.446673 0.168789 0.246844
H109  H     H_    0.853962 0.457184 0.225261 0.202544
H110  H     H_    0.925363 0.392202 0.175247 0.268665
H111  H     H_    0.903375 0.452439 0.130848 0.279917
H112  H     H_    0.199243 0.971477 0.530576 0.373212
H113  H     H_    0.555092 0.708004 0.142095 0.317159
H114  H     H_    0.872854 0.380015 0.118774 0.277174
H115  H     H_    0.529665 0.271869 0.252872 0.134481
H116  H     H_    0.575457 0.323171 0.289578 0.077266
H117  H     H_    0.530902 0.203519 0.336748 0.220103
H118  H     H_    0.574662 0.256703 0.375069 0.214107
H119  H     H_    0.494661 0.330732 0.365612 0.269209
H120  H     H_    0.469391 0.264784 0.400762 0.280319
H121  H     H_    0.450379 0.277145 0.327606 0.271739
H122  H     H_    0.287821 0.808738 0.828091 0.079813
H123  H     H_    0.313600 0.871009 0.786604 0.138877
H124  H     H_    0.733892 0.412977 0.922883 0.315285
H125  H     H_    0.381705 0.807934 0.881113 0.244992
H126  H     H_    0.408295 0.870062 0.840755 0.211909
H127  H     H_    0.329071 0.932114 0.878786 0.275773
H128  H     H_    0.368549 0.898687 0.936061 0.278936
H129  H     H_    0.297307 0.870015 0.916464 0.275388
H130  H     H_    0.117490 0.320817 0.098866 0.075953
H131  H     H_    0.190033 0.346112 0.078853 0.103143
H132  H     H_    0.094837 0.417102 0.140978 0.199377
H133  H     H_    0.167999 0.443535 0.125808 0.224213
H134  H     H_    0.150560 0.429493 0.021803 0.286265
H135  H     H_    0.301015 0.535072 0.025820 0.386116
H136  H     H_    0.097092 0.477648 0.053317 0.271538
H137  H     H_    0.076976 0.402626 0.036840 0.259920
H138  H     H_    0.770894 0.676391 0.821503 0.083294
H139  H     H_    0.835024 0.688101 0.776835 0.134839
H140  H     H_    0.808564 0.577732 0.848096 0.220307
H141  H     H_    0.871790 0.588896 0.803047 0.212641
H142  H     H_    0.901846 0.676113 0.861691 0.264691
H143  H     H_    0.895107 0.610375 0.903934 0.276686
H144  H     H_    0.838131 0.664868 0.906809 0.272816
H145  H     H_    0.352574 0.802123 0.153289 0.073099
H146  H     H_    0.567030 0.711327 0.863906 0.322371
H147  H     H_    0.329365 0.874902 0.175096 0.140784
H148  H     H_    0.372834 0.841265 0.055530 0.219353
H149  H     H_    0.352382 0.913618 0.079342 0.205359
H150  H     H_    0.433096 0.911616 0.151667 0.264577
H151  H     H_    0.460642 0.901883 0.080434 0.281518
H152  H     H_    0.453770 0.839254 0.126774 0.283044
H153  H     H_    0.607526 0.159027 0.901384 0.158502
H154  H     H_    0.683869 0.161612 0.917771 0.080407
H155  H     H_    0.622606 0.069466 0.840178 0.224909
H156  H     H_    0.699265 0.070127 0.859025 0.213639
H157  H     H_    0.412038 0.265731 0.076039 0.323808
H158  H     H_    0.672017 0.058690 0.961526 0.270549
H159  H     H_    0.642857 0.999598 0.918551 0.276777
H160  H     H_    0.595005 0.057423 0.942421 0.272681
H161  H     H_    0.713840 0.518616 0.270581 0.150721
H162  H     H_    0.663412 0.567239 0.304010 0.080641
H163  H     H_    0.778850 0.520210 0.355328 0.208529
H164  H     H_    0.729823 0.570103 0.390715 0.209442
H165  H     H_    0.648918 0.495885 0.386736 0.276584
H166  H     H_    0.712694 0.466561 0.421455 0.272612
H167  H     H_    0.696294 0.445303 0.349407 0.279756
H168  H     H_    0.710431 0.563543 0.138662 0.333819
H169  H     H_    0.144121 0.323220 0.960795 0.134240
H170  H     H_    0.196260 0.265505 0.957073 0.072868
H171  H     H_    0.064760 0.252888 0.924999 0.232206
H172  H     H_    0.117073 0.194141 0.929320 0.188781
H173  H     H_    0.130842 0.220124 0.034428 0.259962
H174  H     H_    0.058775 0.192954 0.015697 0.283505
H175  H     H_    0.070012 0.270470 0.026780 0.267506
H176  H     H_    0.266349 0.413316 0.919613 0.323188
H177  H     H_    0.561406 0.285921 0.133339 0.322652
H178  H     H_    0.465804 0.703322 0.958736 0.386333
H179  H     H_    0.269702 0.421364 0.099561 0.327771
H180  H     H_    0.914264 0.766290 0.416826 0.324255
H181  H     H_    0.704188 0.550915 0.853739 0.319763
H182  H     H_    0.412520 0.733832 0.078135 0.313710
H183  H     H_    0.535483 0.300718 0.973926 0.381342
H184  H     H_    0.866421 0.724334 0.317321 0.081873
H185  H     H_    0.846782 0.658540 0.277913 0.132637
H186  H     H_    0.925098 0.661887 0.384102 0.219257
H187  H     H_    0.906587 0.598043 0.342265 0.206172
H188  H     H_    0.955776 0.644336 0.257403 0.258157
H189  H     H_    0.005266 0.636688 0.316329 0.270481
H190  H     H_    0.975133 0.707717 0.300418 0.285684
H191  H     H_    0.071560 0.217232 0.628378 0.315374
H192  H     H_    0.125539 0.278273 0.721499 0.083626
H193  H     H_    0.116963 0.325487 0.783129 0.147571
H194  H     H_    0.017752 0.261324 0.718658 0.214714
H195  H     H_    0.008279 0.306653 0.780847 0.222843
H196  H     H_    0.050241 0.393056 0.728174 0.262369
H197  H     H_    0.986972 0.362063 0.692797 0.278182
H198  H     H_    0.059624 0.347300 0.665822 0.275000
H199  H     H_    0.166942 0.961819 0.217070 0.133894
H200  H     H_    0.129399 0.897162 0.193792 0.076929
H201  H     H_    0.220244 0.967950 0.122614 0.212911
H202  H     H_    0.224908 0.918541 0.389563 0.321289
H203  H     H_    0.177613 0.905634 0.098544 0.211204
H204  H     H_    0.084723 0.962291 0.116800 0.266067
H205  H     H_    0.132651 0.997839 0.066190 0.276876
H206  H     H_    0.128916 0.025281 0.137924 0.288333
H207  H     H_    0.712668 0.174405 0.676152 0.089493
H208  H     H_    0.648146 0.171867 0.721595 0.133754
H209  H     H_    0.694934 0.068593 0.650151 0.254170
H210  H     H_    0.629462 0.068180 0.693285 0.199137
H211  H     H_    0.587188 0.147952 0.632966 0.266209
H212  H     H_    0.605774 0.083771 0.591762 0.277379
H213  H     H_    0.793956 0.042059 0.549135 0.384178
H214  H     H_    0.653030 0.147818 0.589536 0.275363
H215  H     H_    0.026878 0.262587 0.268929 0.149044
H216  H     H_    0.053196 0.200597 0.230615 0.077954
H217  H     H_    0.033598 0.323523 0.178169 0.222979
H218  H     H_    0.051058 0.256399 0.140749 0.181691
H219  H     H_    0.956291 0.211265 0.173063 0.270124
H220  H     H_    0.945118 0.278082 0.133662 0.275668
H221  H     H_    0.938183 0.278741 0.209861 0.267642
H222  H     H_    0.895006 0.662404 0.603246 0.131944
H223  H     H_    0.820409 0.661518 0.580739 0.098252
H224  H     H_    0.052273 0.204931 0.355130 0.327607
H225  H     H_    0.877038 0.574161 0.664840 0.221000
H226  H     H_    0.802035 0.571004 0.640680 0.213760
H227  H     H_    0.837019 0.557803 0.540627 0.279124
H228  H     H_    0.864230 0.501279 0.586847 0.279144
H229  H     H_    0.912388 0.560456 0.564922 0.272943
H230  H     H_    0.731657 0.126540 0.315656 0.076059
H231  H     H_    0.668271 0.142011 0.272079 0.135875
H232  H     H_    0.664218 0.072462 0.383943 0.217619
H233  H     H_    0.603989 0.085429 0.336522 0.204233
H234  H     H_    0.656699 0.030122 0.259556 0.261204
H235  H     H_    0.918921 0.767023 0.588158 0.317921
H236  H     H_    0.645156 0.985746 0.321974 0.281691
H237  H     H_    0.716862 0.016841 0.307818 0.277170
H238  H     H_    0.355495 0.881957 0.604425 0.149119
H239  H     H_    0.332299 0.808584 0.589352 0.087039
H240  H     H_    0.433400 0.844850 0.670750 0.227427
H241  H     H_    0.412040 0.770478 0.653130 0.197417
H242  H     H_    0.435447 0.790228 0.550630 0.276919
H243  H     H_    0.497944 0.799652 0.596484 0.290725
H244  H     H_    0.460449 0.863432 0.569944 0.272531
H245  H     H_    0.124973 0.721345 0.674813 0.074800
H246  H     H_    0.203376 0.052418 0.646610 0.331881
H247  H     H_    0.138044 0.655133 0.715279 0.137860
H248  H     H_    0.091615 0.657614 0.592784 0.215690
H249  H     H_    0.101370 0.593669 0.636441 0.208289
H250  H     H_    0.027637 0.633216 0.706247 0.263639
H251  H     H_    0.997170 0.624142 0.636257 0.270834
H252  H     H_    0.017301 0.696597 0.661111 0.285125
H253  H     H_    0.783940 0.364731 0.420052 0.093900
H254  H     H_    0.801437 0.414548 0.362011 0.145835
H255  H     H_    0.890733 0.354196 0.439570 0.237181
H256  H     H_    0.908072 0.403208 0.381776 0.208113
N1    N     N_R   0.900580 0.056480 0.443850 -0.110987
N2    N     N_R   0.900580 0.943520 0.443850 -0.115583
N3    N     N_R   0.056480 0.900580 0.556150 -0.111211
N4    N     N_R   0.943520 0.099420 0.443850 -0.153097
N5    N     N_R   0.900580 0.943520 0.556150 -0.121904
N6    N     N_R   0.099420 0.056480 0.443850 -0.114113
N7    N     N_R   0.943520 0.099420 0.556150 -0.122645
N8    N     N_R   0.056480 0.900580 0.443850 -0.142334
N9    N     N_R   0.400580 0.556480 0.943850 -0.119343
N10   N     N_R   0.599420 0.443520 0.056150 -0.150985
N11   N     N_R   0.443520 0.400580 0.943850 -0.124067
N12   N     N_R   0.099420 0.943520 0.556150 -0.152760
N13   N     N_R   0.556480 0.599420 0.056150 -0.110231
N14   N     N_R   0.599420 0.443520 0.943850 -0.113858
N15   N     N_R   0.400580 0.556480 0.056150 -0.151664
N16   N     N_R   0.556480 0.599420 0.943850 -0.117098
N17   N     N_R   0.443520 0.400580 0.056150 -0.118088
N18   N     N_R   0.599420 0.556480 0.056150 -0.118454
N19   N     N_R   0.400580 0.443520 0.943850 -0.117447
N20   N     N_R   0.556480 0.400580 0.056150 -0.118596
N21   N     N_R   0.443520 0.599420 0.943850 -0.150058
N22   N     N_R   0.400580 0.443520 0.056150 -0.124487
N23   N     N_R   0.943520 0.900580 0.443850 -0.123065
N24   N     N_R   0.599420 0.556480 0.943850 -0.108700
N25   N     N_R   0.443520 0.599420 0.056150 -0.115150
N26   N     N_R   0.556480 0.400580 0.943850 -0.151174
N27   N     N_R   0.056480 0.099420 0.556150 -0.114514
N28   N     N_R   0.099420 0.943520 0.443850 -0.123412
N29   N     N_R   0.900580 0.056480 0.556150 -0.142134
N30   N     N_R   0.056480 0.099420 0.443850 -0.119816
N31   N     N_R   0.943520 0.900580 0.556150 -0.116169
N32   N     N_R   0.099420 0.056480 0.556150 -0.120351
Ni1   Ni    Ni4+2 0.901480 0.000000 0.500000 0.260010
Ni2   Ni    Ni4+2 0.098520 0.000000 0.500000 0.242222
Ni3   Ni    Ni4+2 0.000000 0.901480 0.500000 0.260224
Ni4   Ni    Ni4+2 1.000000 0.098520 0.500000 0.243138
Ni5   Ni    Ni4+2 0.401480 0.500000 0.000000 0.249208
Ni6   Ni    Ni4+2 0.598520 0.500000 0.000000 0.248820
Ni7   Ni    Ni4+2 0.500000 0.401480 0.000000 0.249159
Ni8   Ni    Ni4+2 0.500000 0.598520 0.000000 0.245935
O1    O     O_3   0.796625 0.055049 0.430345 -0.691706
O2    O     O_3   0.796572 0.943559 0.431698 -0.662759
O3    O     O_3   0.055280 0.796376 0.568803 -0.693604
O4    O     O_3   0.936796 0.204750 0.443987 -0.681512
O5    O     O_3   0.796447 0.941008 0.568693 -0.710731
O6    O     O_3   0.193850 0.048708 0.398262 -0.688662
O7    O     O_3   0.943980 0.199819 0.587673 -0.679361
O8    O     O_3   0.053356 0.800431 0.410739 -0.708823
O9    O     O_3   0.303138 0.546008 0.906193 -0.701134
O10   O     O_3   0.702044 0.437442 0.080016 -0.696125
O11   O     O_3   0.446764 0.298060 0.920788 -0.713484
O12   O     O_3   0.204703 0.937491 0.556168 -0.682205
O13   O     O_3   0.536809 0.687487 0.109439 -0.703995
O14   O     O_3   0.704136 0.439908 0.938818 -0.703283
O15   O     O_3   0.295484 0.560966 0.059214 -0.692817
O16   O     O_3   0.543454 0.689739 0.892526 -0.739739
O17   O     O_3   0.438979 0.295941 0.060111 -0.679997
O18   O     O_3   0.690670 0.544114 0.106183 -0.731304
O19   O     O_3   0.296175 0.439615 0.937047 -0.680016
O20   O     O_3   0.539543 0.309325 0.105192 -0.703074
O21   O     O_3   0.437904 0.703647 0.926652 -0.707257
O22   O     O_3   0.298122 0.446749 0.079037 -0.716363
O23   O     O_3   0.940632 0.796053 0.434225 -0.704213
O24   O     O_3   0.685474 0.534727 0.888368 -0.708214
O25   O     O_3   0.439850 0.704316 0.062394 -0.701463
O26   O     O_3   0.561398 0.295380 0.940491 -0.694151
O27   O     O_3   0.812555 0.664832 0.360321 -0.634811
O28   O     O_3   0.098242 0.236786 0.796226 -0.645058
O29   O     O_3   0.221936 0.892184 0.205432 -0.658677
O30   O     O_3   0.718055 0.120160 0.747315 -0.633571
O31   O     O_3   0.111828 0.272568 0.242192 -0.608432
O32   O     O_3   0.837331 0.682788 0.666841 -0.645098
O33   O     O_3   0.670086 0.182232 0.352093 -0.638943
O34   O     O_3   0.050906 0.195826 0.597584 -0.686030
O35   O     O_3   0.316682 0.840740 0.672055 -0.631130
O36   O     O_3   0.192495 0.668214 0.644792 -0.633002
O37   O     O_3   0.825804 0.327870 0.349578 -0.632916
O38   O     O_3   0.654326 0.774345 0.606516 -0.621431
O39   O     O_3   0.224579 0.098519 0.196973 -0.645152
O40   O     O_3   0.894498 0.232804 0.787822 -0.653984
O41   O     O_3   0.138631 0.708056 0.271612 -0.632507
O42   O     O_3   0.263147 0.106483 0.765853 -0.608904
O43   O     O_3   0.667697 0.819378 0.358138 -0.647229
O44   O     O_3   0.329489 0.171744 0.838955 -0.602001
O45   O     O_3   0.200631 0.942717 0.415467 -0.678239
O46   O     O_3   0.607880 0.761181 0.272282 -0.641653
O47   O     O_3   0.834707 0.294287 0.871920 -0.635282
O48   O     O_3   0.191378 0.649580 0.182229 -0.635777
O49   O     O_3   0.595451 0.710865 0.688107 -0.609453
O50   O     O_3   0.285267 0.161218 0.113992 -0.640495
O51   O     O_3   0.241712 0.617771 0.741244 -0.644922
O52   O     O_3   0.769525 0.386322 0.260161 -0.650378
O53   O     O_3   0.612631 0.241362 0.266085 -0.645253
O54   O     O_3   0.358169 0.793639 0.771617 -0.640485
O55   O     O_3   0.175609 0.336137 0.165711 -0.603520
O56   O     O_3   0.800485 0.053594 0.589180 -0.714700
O57   O     O_3   0.775967 0.622806 0.749978 -0.636241
O58   O     O_3   0.275893 0.833024 0.115627 -0.639170
O59   O     O_3   0.659026 0.179203 0.832836 -0.636274
O60   O     O_3   0.747235 0.601703 0.281396 -0.647818
O61   O     O_3   0.161524 0.295996 0.879755 -0.641199
O62   O     O_3   0.033710 0.184244 0.387526 -0.741864
O63   O     O_3   0.944098 0.796721 0.569094 -0.663151
O64   O     O_3   0.183251 0.033742 0.613959 -0.740570

loop_
_geom_bond_atom_site_label_1
_geom_bond_atom_site_label_2
_ccdc_geom_bond_type
C126  C127  S    
C184  C204  S    
C42   H201  S    
C14   C208  A    
C108  H100  S    
C124  N14   A    
C121  H131  S    
C87   C88   S    
C76   H26   S    
C144  O19   S    
C134  O60   S    
C3    O41   S    
C64   H254  S    
C90   O10   S    
C4    O38   S    
C39   H194  S    
C40   H197  S    
C47   H212  S    
C48   O31   S    
C181  N29   A    
H113  O13   S    
C133  H160  S    
C141  N16   A    
C10   O31   S    
C27   C162  S    
C53   H227  S    
C149  O24   S    
C195  C203  A    
C112  N12   A    
C23   C158  S    
C108  C109  S    
C222  O42   S    
C1    N1    A    
C208  O59   S    
C110  C111  S    
C28   C207  A    
C143  O18   S    
C224  O40   S    
C32   C215  A    
C119  H126  S    
C5    C217  A    
C131  H153  S    
N8    Ni3   S    
C66   H3    S    
C160  C176  T    
C8    C211  A    
C125  O57   S    
C151  O26   S    
C38   H192  S    
C59   C60   S    
H202  O45   S    
C146  O21   S    
N13   Ni8   S    
C183  C202  S    
C115  H115  S    
C120  H129  S    
N2    Ni1   S    
C15   O27   S    
C104  C105  S    
C120  H127  S    
C45   C47   S    
H101  O11   S    
H213  O56   S    
C9    O35   S    
C49   H218  S    
C170  N28   A    
N17   N22   A    
C83   H41   S    
C49   H217  S    
C114  H111  S    
C132  H156  S    
C97   O48   S    
C42   H203  S    
C69   H8    S    
C150  O25   S    
C33   C213  A    
C110  H107  S    
C125  H138  S    
C145  O20   S    
C89   H56   S    
C131  O59   S    
C118  H122  S    
C75   C76   S    
C86   H49   S    
N27   Ni4   S    
C5    O39   S    
C72   H16   S    
C54   O33   S    
N30   Ni4   S    
C12   C20   A    
C113  C199  A    
N20   Ni7   S    
C212  O54   S    
C18   C223  A    
C29   C208  A    
N22   Ni5   S    
C135  O15   S    
C159  O34   S    
C174  C194  S    
C56   H237  S    
C108  H102  S    
C104  H92   S    
C43   H206  S    
C91   H61   S    
C33   C168  S    
C76   H28   S    
C41   H200  S    
C91   C92   S    
C130  H152  S    
C209  O55   S    
C14   C19   A    
C38   H193  S    
C19   C224  A    
C72   C73   S    
N6    N30   A    
C101  N11   A    
C93   H64   S    
N23   Ni3   S    
C139  C140  S    
H46   O6    S    
C74   O40   S    
C22   C157  S    
C26   C161  S    
H35   O5    S    
C45   H209  S    
C122  H132  S    
C86   H51   S    
C107  H99   S    
C79   O9    S    
C16   O28   S    
C46   N6    A    
C6    C213  A    
C103  H87   S    
C50   H219  S    
H1    O1    S    
C99   H81   S    
C96   H73   S    
C34   H184  S    
C11   O32   S    
C98   H78   S    
C181  O56   S    
C94   O47   S    
C68   N8    A    
N10   Ni6   S    
C52   H226  S    
C88   C89   S    
C79   N9    A    
C98   C99   S    
N16   N24   A    
C122  H133  S    
N15   Ni5   S    
C80   H33   S    
C150  C201  A    
C123  H137  S    
C145  N20   A    
C142  C204  A    
C35   N5    A    
N5    Ni1   S    
C63   H252  S    
C136  H164  S    
C15   C18   A    
H90   O10   S    
C156  C175  T    
C81   H37   S    
C4    C216  A    
C138  H169  S    
C182  C201  S    
C55   H232  S    
C169  C189  S    
C110  O52   S    
C137  H166  S    
C109  H105  S    
C97   C98   S    
N2    N23   A    
C135  C201  A    
C85   C86   S    
C84   H44   S    
C89   H58   S    
C177  C188  S    
C61   H245  S    
C84   H45   S    
C24   C187  A    
C78   H31   S    
C94   H69   S    
C216  O49   S    
C205  O60   S    
C38   C39   S    
C78   C80   S    
C39   H195  S    
C115  C116  S    
C115  O53   S    
C113  O13   S    
C65   H255  S    
C116  H118  S    
C12   O29   S    
C69   H9    S    
C109  H104  S    
C64   O37   S    
H179  O22   S    
C73   H18   S    
C70   H12   S    
C48   H215  S    
C43   H204  S    
C186  C197  S    
C215  O52   S    
C203  O63   S    
C161  C179  T    
C26   C205  A    
N3    Ni3   S    
C157  C174  T    
C70   H11   S    
C130  H150  S    
C6    O36   S    
C159  C190  A    
C69   C70   S    
C97   H76   S    
C58   H239  S    
C92   H63   S    
N7    N29   A    
N5    N31   A    
C46   C194  A    
C1    C187  A    
C95   H70   S    
C107  O51   S    
C77   H29   S    
C141  C202  A    
C39   C40   S    
C32   C211  A    
C9    C23   A    
C68   C191  A    
C24   N4    A    
C60   H242  S    
C170  C191  A    
C11   C21   A    
C171  C190  S    
H246  O64   S    
C111  H108  S    
C192  C194  A    
C59   H240  S    
C121  O55   S    
C180  C200  S    
C217  O50   S    
C44   H207  S    
H176  O19   S    
C100  O49   S    
C218  O47   S    
C18   C153  S    
N11   N19   A    
C56   H236  S    
C63   H250  S    
C223  O43   S    
C29   C218  A    
C68   O8    S    
C142  O17   S    
C82   H40   S    
C57   N7    A    
C56   H234  S    
C57   O7    S    
C138  O61   S    
H168  O18   S    
C52   C53   S    
C90   N10   A    
C127  H142  S    
N9    Ni5   S    
C129  C130  S    
C19   C154  S    
C54   C55   S    
C47   H211  S    
C220  O44   S    
C12   C207  A    
C147  O22   S    
C94   H67   S    
C121  H130  S    
C30   C165  S    
C136  C137  S    
C164  C180  T    
C88   H55   S    
C117  H120  S    
N4    Ni4   S    
C106  H96   S    
C40   H198  S    
C103  H89   S    
H183  O26   S    
C133  H159  S    
C113  N13   A    
C71   C72   S    
C46   O6    S    
H178  O21   S    
C129  H149  S    
C24   O4    S    
N27   N32   A    
C73   H20   S    
C115  H116  S    
C47   H214  S    
C13   O3    S    
C81   O42   S    
H146  O16   S    
C34   C36   S    
C170  O45   S    
C61   C62   S    
N26   Ni7   S    
C162  C178  T    
C67   H7    S    
N29   Ni1   S    
C27   C220  A    
C140  H173  S    
C49   C50   S    
C66   H4    S    
H182  O25   S    
C87   O44   S    
H177  O20   S    
C88   H54   S    
C149  C202  A    
N14   N26   A    
C99   H80   S    
C28   C163  S    
C214  O64   S    
C207  O58   S    
C37   H190  S    
C213  O51   S    
C55   C56   S    
C144  N19   A    
C20   C155  S    
C192  O62   S    
N15   N25   A    
C221  O46   S    
H135  O15   S    
C30   C209  A    
N28   Ni2   S    
C120  H128  S    
C90   C197  A    
C77   C78   S    
C10   C22   A    
C60   H244  S    
C66   H5    S    
C51   H222  S    
H2    O2    S    
C134  H161  S    
C7    O37   S    
C192  N30   A    
C11   C210  A    
C74   H22   S    
C33   C212  A    
C9    C212  A    
H112  O12   S    
N1    N4    A    
C2    N2    A    
C150  N25   A    
C34   H185  S    
C175  C195  S    
C118  H123  S    
C100  H83   S    
C62   H248  S    
C155  C172  T    
N6    Ni2   S    
C141  O16   S    
C16   C17   A    
H180  O23   S    
N32   Ni2   S    
C84   O43   S    
N11   Ni7   S    
C139  H172  S    
N8    N28   A    
H191  O34   S    
C142  N17   A    
C181  C193  A    
C54   H230  S    
C35   C195  A    
C53   H229  S    
C219  O48   S    
C128  C129  S    
C8    C25   A    
C43   H205  S    
C29   C164  S    
C71   H14   S    
N16   Ni8   S    
C41   H199  S    
C38   O28   S    
C60   H243  S    
C135  N15   A    
C64   H253  S    
N31   Ni3   S    
C127  H144  S    
C8    O33   S    
C92   H62   S    
C53   H228  S    
C58   C59   S    
C167  C186  T    
C51   C52   S    
C36   H187  S    
C71   H15   S    
C117  H121  S    
C62   C63   S    
N3    N12   A    
C104  O50   S    
C140  H175  S    
C50   H220  S    
C25   C160  S    
C58   O35   S    
C51   O32   S    
C3    C20   A    
C96   H74   S    
C84   C85   S    
C118  O54   S    
C121  C122  S    
H57   O7    S    
C106  H95   S    
C93   H66   S    
C48   C49   S    
H157  O17   S    
C28   C219  A    
C173  C193  S    
C125  C126  S    
C17   C152  S    
C80   H34   S    
C42   C43   S    
C185  C196  S    
C131  C132  S    
C2    O2    S    
C75   H23   S    
C44   C45   S    
C85   H48   S    
C176  C187  S    
C63   H251  S    
C74   H21   S    
C50   H221  S    
C36   C37   S    
C138  H170  S    
N13   N18   A    
C165  C184  T    
C211  O53   S    
C83   H42   S    
C166  C183  T    
C114  H110  S    
C132  H155  S    
C148  O23   S    
C137  H165  S    
C119  C120  S    
C127  H143  S    
C125  H139  S    
H235  O63   S    
C105  C106  S    
C124  C200  A    
N12   Ni2   S    
C7    C25   A    
C93   H65   S    
C27   C206  A    
C78   H32   S    
C64   C65   S    
C85   H47   S    
N1    Ni1   S    
N9    N21   A    
C31   C210  A    
C179  C199  S    
C92   C93   S    
C111  C114  S    
C203  N31   A    
C94   C95   S    
C109  H103  S    
C138  C139  S    
C67   O38   S    
C214  N32   A    
C3    C219  A    
C82   C83   S    
C32   C167  S    
C153  C169  T    
C61   O36   S    
C104  H91   S    
C124  O14   S    
C75   H25   S    
C76   H27   S    
C148  N23   A    
C7    C215  A    
C123  H136  S    
N10   N20   A    
C102  H86   S    
C130  H151  S    
C111  H109  S    
C95   C96   S    
C97   H75   S    
C2    C189  A    
C110  H106  S    
C114  H114  S    
C220  C222  A    
C81   C82   S    
C143  N18   A    
C128  H145  S    
C45   H210  S    
C86   H50   S    
C147  C204  A    
C158  C177  T    
C149  N24   A    
C16   C206  A    
C87   H53   S    
H68   O8    S    
C95   H71   S    
C103  H88   S    
C51   H223  S    
C116  C117  S    
C99   H82   S    
C34   O27   S    
C70   H10   S    
C91   O46   S    
C98   H77   S    
C118  C119  S    
C210  O57   S    
C17   C222  A    
C52   H225  S    
C112  O12   S    
C67   H6    S    
C132  C133  S    
C13   N3    A    
C131  H154  S    
H24   O4    S    
C151  C200  A    
H13   O3    S    
C136  H163  S    
C41   C42   S    
C178  C198  S    
C159  N27   A    
C81   H38   S    
C13   C188  A    
C163  C182  T    
C126  H141  S    
C102  C103  S    
C137  H167  S    
C128  O58   S    
N24   Ni6   S    
C172  C191  S    
N18   Ni6   S    
C89   H59   S    
C74   C75   S    
C5    C22   A    
C44   H208  S    
C1    O1    S    
C117  H119  S    
C152  C171  T    
C101  C198  A    
C101  O11   S    
C134  C136  S    
C31   C216  A    
C61   H247  S    
C102  H85   S    
C65   H256  S    
C79   C196  A    
C59   H241  S    
C57   C193  A    
C116  H117  S    
C67   C69   S    
C133  H158  S    
C96   H72   S    
C145  C197  A    
C41   O29   S    
C129  H148  S    
H224  O62   S    
C14   O30   S    
C126  H140  S    
C10   C209  A    
C73   H19   S    
C31   C166  S    
C119  H125  S    
C107  C108  S    
C26   C221  A    
C100  C102  S    
C36   H186  S    
C91   H60   S    
C15   C205  A    
C190  C214  A    
C146  N21   A    
C123  H134  S    
C30   C217  A    
C80   H36   S    
C206  O61   S    
C140  H174  S    
C40   H196  S    
H181  O24   S    
C87   H52   S    
C58   H238  S    
C146  C196  A    
C55   H233  S    
C105  H93   S    
C37   H189  S    
C148  C189  A    
C128  H147  S    
C168  C185  T    
C154  C173  T    
C72   H17   S    
C107  H98   S    
C77   O41   S    
C77   H30   S    
C147  N22   A    
C71   O39   S    
C112  C188  A    
H79   O9    S    
C48   H216  S    
C106  H97   S    
C143  C199  A    
N7    Ni4   S    
C134  H162  S    
C83   H43   S    
C221  C223  A    
C44   O30   S    
C4    C21   A    
N21   Ni8   S    
C37   H188  S    
C35   O5    S    
C6    C23   A    
C105  H94   S    
C21   C156  S    
C151  N26   A    
C218  C224  A    
N25   Ni8   S    
H124  O14   S    
N14   Ni6   S    
C100  H84   S    
C62   H249  S    
C144  C198  A    
C65   C66   S    
N17   Ni7   S    
C82   H39   S    
C139  H171  S    
N19   Ni5   S    
C122  C123  S    
C54   H231  S    
