data_mof_unit_55678.cif
_audit_creation_date              2013-03-05T15:40:40-0500
_audit_creation_method            fapswitch 2.2
_symmetry_space_group_name_H-M    P1
_symmetry_Int_Tables_number       1
_space_group_crystal_system       triclinic
_cell_length_a                    19.052069
_cell_length_b                    10.983985
_cell_length_c                    18.853097
_cell_angle_alpha                 90.28567
_cell_angle_beta                  89.711849
_cell_angle_gamma                 90.111939
_cell_volume                      3945.23684827

loop_
_atom_site_label
_atom_site_type_symbol
_atom_site_description
_atom_site_fract_x
_atom_site_fract_y
_atom_site_fract_z
_atom_type_partial_charge
O1    O     O_R   0.043230 0.549300 0.667990 -0.510239
O2    O     O_R   0.956770 0.549300 0.332010 -0.490016
O3    O     O_R   0.543230 0.049300 0.667990 -0.510283
O4    O     O_R   0.456770 0.049300 0.332010 -0.490060
O5    O     O_R   0.178620 0.457600 0.674100 -0.442062
O6    O     O_R   0.821380 0.457600 0.325900 -0.437053
O7    O     O_R   0.678620 0.957600 0.674100 -0.442122
O8    O     O_R   0.321380 0.957600 0.325900 -0.437130
C1    C     C_R   0.240228 0.466321 0.647174 0.568500
C2    C     C_R   0.760213 0.467154 0.353261 0.565897
C3    C     C_R   0.740228 0.966321 0.647174 0.568414
C4    C     C_R   0.260213 0.967154 0.353261 0.565809
O9    O     O_R   0.284680 0.542100 0.669460 -0.543739
O10   O     O_R   0.715320 0.542100 0.330540 -0.540936
O11   O     O_R   0.784680 0.042100 0.669460 -0.543771
O12   O     O_R   0.215320 0.042100 0.330540 -0.540980
O13   O     O_R   0.262860 0.790390 0.676650 -0.509261
O14   O     O_R   0.737140 0.790390 0.323350 -0.509412
O15   O     O_R   0.762860 0.290390 0.676650 -0.509248
O16   O     O_R   0.237140 0.290390 0.323350 -0.509424
C5    C     C_R   0.227132 0.873290 0.647311 0.571022
C6    C     C_R   0.773062 0.872948 0.352999 0.564796
C7    C     C_R   0.727132 0.373290 0.647311 0.571005
C8    C     C_R   0.273062 0.372948 0.352999 0.564778
O17   O     O_R   0.167460 0.907030 0.670940 -0.468665
O18   O     O_R   0.832540 0.907030 0.329060 -0.478645
O19   O     O_R   0.667460 0.407030 0.670940 -0.468701
O20   O     O_R   0.332540 0.407030 0.329060 -0.478677
O21   O     O_R   0.053950 0.750220 0.675100 -0.501879
O22   O     O_R   0.946050 0.750220 0.324900 -0.512199
O23   O     O_R   0.553950 0.250220 0.675100 -0.501865
O24   O     O_R   0.446050 0.250220 0.324900 -0.512206
C9    C     C_R   0.027543 0.654016 0.645854 0.525402
C10   C     C_R   0.973126 0.656435 0.353487 0.528735
C11   C     C_R   0.527543 0.154016 0.645854 0.525405
C12   C     C_R   0.473126 0.156434 0.353488 0.528733
O25   O     O_R   0.043300 0.547370 0.827390 -0.452221
O26   O     O_R   0.956700 0.547370 0.172610 -0.453069
O27   O     O_R   0.543300 0.047370 0.827390 -0.452297
O28   O     O_R   0.456700 0.047370 0.172610 -0.453039
O29   O     O_R   0.178690 0.455820 0.821860 -0.462801
O30   O     O_R   0.821310 0.455820 0.178140 -0.463815
O31   O     O_R   0.678690 0.955820 0.821860 -0.462896
O32   O     O_R   0.321310 0.955820 0.178140 -0.463807
C13   C     C_R   0.239197 0.463333 0.849445 0.571558
C14   C     C_R   0.760742 0.463056 0.150544 0.570241
C15   C     C_R   0.739196 0.963322 0.849440 0.571703
C16   C     C_R   0.260726 0.962968 0.150587 0.570630
O33   O     O_R   0.284750 0.540170 0.828860 -0.511831
O34   O     O_R   0.715250 0.540170 0.171140 -0.511469
O35   O     O_R   0.784750 0.040170 0.828860 -0.511626
O36   O     O_R   0.215250 0.040170 0.171140 -0.511095
O37   O     O_R   0.262920 0.788600 0.824420 -0.480015
O38   O     O_R   0.737080 0.788600 0.175580 -0.479194
O39   O     O_R   0.762920 0.288600 0.824420 -0.479253
O40   O     O_R   0.237080 0.288600 0.175580 -0.478811
C17   C     C_R   0.227034 0.874280 0.852647 0.586446
C18   C     C_R   0.772949 0.873980 0.147367 0.586436
C19   C     C_R   0.727002 0.374192 0.852680 0.586695
C20   C     C_R   0.272955 0.373965 0.147362 0.586608
O41   O     O_R   0.167530 0.905110 0.830340 -0.510044
O42   O     O_R   0.832470 0.905110 0.169660 -0.512252
O43   O     O_R   0.667530 0.405110 0.830340 -0.510933
O44   O     O_R   0.332470 0.405110 0.169660 -0.512575
O45   O     O_R   0.054010 0.748440 0.822860 -0.514095
O46   O     O_R   0.945990 0.748440 0.177140 -0.514687
O47   O     O_R   0.554010 0.248440 0.822860 -0.514268
O48   O     O_R   0.445990 0.248440 0.177140 -0.514809
C21   C     C_R   0.031821 0.650985 0.851981 0.568541
C22   C     C_R   0.968298 0.650774 0.148141 0.568326
C23   C     C_R   0.531784 0.151014 0.851949 0.568609
C24   C     C_R   0.468308 0.150802 0.148153 0.568504
Cr1   Cr    Cr6+3 0.113970 0.508630 0.747920 1.114213
Cr2   Cr    Cr6+3 0.886030 0.508630 0.252080 1.120431
Cr3   Cr    Cr6+3 0.613970 0.008630 0.747920 1.113989
Cr4   Cr    Cr6+3 0.386030 0.008630 0.252080 1.120251
Cr5   Cr    Cr6+3 0.269200 0.666740 0.749850 1.050006
Cr6   Cr    Cr6+3 0.730800 0.666740 0.250150 1.049282
Cr7   Cr    Cr6+3 0.769200 0.166740 0.749850 1.050439
Cr8   Cr    Cr6+3 0.230800 0.166740 0.250150 1.049661
Cr9   Cr    Cr6+3 0.112300 0.820070 0.749800 1.061990
Cr10  Cr    Cr6+3 0.887700 0.820070 0.250200 1.051732
Cr11  Cr    Cr6+3 0.612300 0.320070 0.749800 1.061672
Cr12  Cr    Cr6+3 0.387700 0.320070 0.250200 1.051556
O49   O     O_3   0.165160 0.665150 0.749190 -0.279723
O50   O     O_3   0.834840 0.665150 0.250810 -0.277814
O51   O     O_3   0.665160 0.165150 0.749190 -0.279638
O52   O     O_3   0.334840 0.165150 0.250810 -0.277748
C25   C     C_2   0.248510 0.909130 0.576218 -0.126411
C26   C     C_2   0.752454 0.906100 0.424907 -0.131991
C27   C     C_2   0.748510 0.409130 0.576218 -0.126411
C28   C     C_2   0.252454 0.406100 0.424907 -0.131986
C29   C     C_2   0.244604 0.910493 0.421189 -0.077959
C30   C     C_2   0.757210 0.911151 0.579151 -0.073108
C31   C     C_2   0.744604 0.410493 0.421189 -0.077977
C32   C     C_2   0.257210 0.411152 0.579151 -0.073111
C33   C     C_2   0.290947 0.844080 0.457771 0.129214
C34   C     C_2   0.715140 0.834709 0.544144 0.125237
C35   C     C_2   0.790947 0.344080 0.457771 0.129197
C36   C     C_2   0.215140 0.334709 0.544144 0.125221
C37   C     C_2   0.281341 0.826870 0.534283 -0.148664
C38   C     C_2   0.724038 0.819360 0.467147 -0.145960
C39   C     C_2   0.781341 0.326871 0.534283 -0.148659
C40   C     C_2   0.224038 0.319360 0.467147 -0.145968
H1    H     H_    0.300685 0.741965 0.556094 0.171003
H2    H     H_    0.708368 0.731864 0.445147 0.170682
H3    H     H_    0.800686 0.241965 0.556094 0.170999
H4    H     H_    0.208369 0.231863 0.445147 0.170678
H5    H     H_    0.196198 0.940068 0.446647 0.085662
H6    H     H_    0.802898 0.949334 0.552585 0.087141
H7    H     H_    0.696198 0.440068 0.446647 0.085661
H8    H     H_    0.302898 0.449335 0.552585 0.087138
H9    H     H_    0.229402 0.994681 0.555448 0.145253
H10   H     H_    0.768398 0.994450 0.445232 0.128462
H11   H     H_    0.729402 0.494681 0.555448 0.145252
H12   H     H_    0.268398 0.494450 0.445232 0.128460
C41   C     C_R   0.007481 0.669287 0.423920 -0.040215
C42   C     C_R   0.996626 0.658142 0.573478 -0.036353
C43   C     C_R   0.507480 0.169287 0.423920 -0.040204
C44   C     C_R   0.496626 0.158142 0.573478 -0.036341
C45   C     C_R   0.997946 0.893975 0.432479 -0.071644
C46   C     C_R   0.968762 0.875914 0.577182 -0.075917
C47   C     C_R   0.497945 0.393974 0.432479 -0.071641
C48   C     C_R   0.468761 0.375914 0.577182 -0.075914
C49   C     C_R   0.980327 0.997401 0.471724 -0.099269
C50   C     C_R   0.963308 0.987624 0.543341 -0.104799
C51   C     C_R   0.480325 0.497401 0.471724 -0.099265
C52   C     C_R   0.463306 0.487623 0.543341 -0.104797
C53   C     C_R   0.988737 0.770803 0.538995 0.008032
C54   C     C_R   0.998010 0.777894 0.464319 0.007017
C55   C     C_R   0.488736 0.270803 0.538996 0.008038
C56   C     C_R   0.498009 0.277894 0.464319 0.007023
H13   H     H_    0.979264 0.084998 0.446096 0.156008
H14   H     H_    0.946224 0.066469 0.573225 0.123600
H15   H     H_    0.479262 0.584998 0.446096 0.156001
H16   H     H_    0.446222 0.566469 0.573226 0.123588
H17   H     H_    0.012827 0.906277 0.377554 0.138743
H18   H     H_    0.954785 0.871451 0.632833 0.131743
H19   H     H_    0.512826 0.406277 0.377555 0.138723
H20   H     H_    0.454784 0.371451 0.632834 0.131741
C57   C     C_R   0.001198 0.550737 0.531457 0.019715
C58   C     C_R   0.020966 0.560054 0.459929 0.014418
C59   C     C_R   0.501197 0.050738 0.531458 0.019728
C60   C     C_R   0.520965 0.060054 0.459930 0.014430
C61   C     C_R   0.988460 0.433231 0.558926 -0.039511
C62   C     C_R   0.047282 0.455989 0.424421 -0.055917
C63   C     C_R   0.488458 0.933231 0.558927 -0.039506
C64   C     C_R   0.547281 0.955989 0.424422 -0.055919
C65   C     C_R   0.008569 0.330011 0.520893 -0.045710
C66   C     C_R   0.041445 0.341599 0.455229 -0.056919
C67   C     C_R   0.508568 0.830011 0.520894 -0.045696
C68   C     C_R   0.541444 0.841599 0.455230 -0.056915
H21   H     H_    0.069903 0.462766 0.371740 0.130175
H22   H     H_    0.963126 0.420535 0.609889 0.140561
H23   H     H_    0.569902 0.962765 0.371741 0.130144
H24   H     H_    0.463124 0.920535 0.609889 0.140520
H25   H     H_    0.000959 0.241337 0.543724 0.139337
H26   H     H_    0.059951 0.261744 0.427026 0.124113
H27   H     H_    0.500958 0.741337 0.543725 0.139332
H28   H     H_    0.559949 0.761743 0.427026 0.124099
C69   C     C_2   0.240713 0.909970 0.924876 0.191144
C70   C     C_2   0.758915 0.909567 0.075364 0.190222
C71   C     C_2   0.740703 0.409806 0.924903 0.190346
C72   C     C_2   0.258920 0.409550 0.075360 0.190202
C73   C     C_2   0.247531 0.889740 0.087832 -0.041521
C74   C     C_2   0.752129 0.891262 0.912274 -0.040835
C75   C     C_2   0.747548 0.390275 0.087630 -0.041279
C76   C     C_2   0.252138 0.391347 0.912305 -0.040073
C77   C     C_2   0.193775 0.914430 0.045766 -0.120871
C78   C     C_2   0.805924 0.916588 0.954395 -0.121206
C79   C     C_2   0.693612 0.415268 0.045784 -0.121093
C80   C     C_2   0.305954 0.416724 0.954396 -0.121015
C81   C     C_2   0.194707 0.868539 0.973638 -0.101842
C82   C     C_2   0.805461 0.870541 0.026267 -0.100678
C83   C     C_2   0.694149 0.369804 0.973573 -0.101789
C84   C     C_2   0.305543 0.370732 0.026279 -0.100091
H29   H     H_    0.152526 0.977463 0.061246 0.171394
H30   H     H_    0.847427 0.979079 0.938844 0.170908
H31   H     H_    0.652217 0.477857 0.061657 0.170781
H32   H     H_    0.347486 0.479141 0.938787 0.170523
H33   H     H_    0.153159 0.805397 0.958731 0.132046
H34   H     H_    0.847891 0.809447 0.040776 0.132970
H35   H     H_    0.651766 0.308424 0.958496 0.131667
H36   H     H_    0.348068 0.309849 0.040809 0.133225
H37   H     H_    0.287266 0.824943 0.070676 0.185856
H38   H     H_    0.712249 0.826696 0.929353 0.186742
H39   H     H_    0.787355 0.325768 0.070186 0.186321
H40   H     H_    0.212264 0.326794 0.929422 0.187678
C85   C     C_2   0.003082 0.652351 0.922280 -0.090142
C86   C     C_2   0.997164 0.651881 0.077963 -0.088446
C87   C     C_2   0.502954 0.152524 0.922192 -0.090234
C88   C     C_2   0.497153 0.152023 0.077976 -0.088161
C89   C     C_2   0.985193 0.556283 0.034439 0.206677
C90   C     C_2   0.014591 0.556428 0.965207 0.206107
C91   C     C_2   0.484861 0.056777 0.034317 0.205761
C92   C     C_2   0.514436 0.056747 0.965197 0.205717
H41   H     H_    0.025681 0.732008 0.060064 0.066310
H42   H     H_    0.974795 0.732519 0.940651 0.066482
H43   H     H_    0.525981 0.231907 0.060209 0.066448
H44   H     H_    0.474633 0.232716 0.940478 0.066474
Br1   Br    Br    0.366016 0.755404 0.413077 -0.557606
Br2   Br    Br    0.652507 0.726589 0.593486 -0.554177
Br3   Br    Br    0.866017 0.255405 0.413077 -0.557505
Br4   Br    Br    0.152508 0.226589 0.593487 -0.554022
Br5   Br    Br    0.305671 0.040644 0.941738 -0.523913
Br6   Br    Br    0.692179 0.037143 0.059510 -0.525154
Br7   Br    Br    0.807389 0.537864 0.941862 -0.523464
Br8   Br    Br    0.191999 0.536815 0.059501 -0.526096
Br9   Br    Br    0.932820 0.408049 0.055121 -0.371204
Br10  Br    Br    0.066765 0.408209 0.943912 -0.370330
Br11  Br    Br    0.431798 0.909272 0.054636 -0.373109
Br12  Br    Br    0.566669 0.908522 0.944149 -0.371198

loop_
_geom_bond_atom_site_label_1
_geom_bond_atom_site_label_2
_geom_bond_distance
_ccdc_geom_bond_type
C85   H42   1.087534 S    
C18   O42   1.257516 A    
Cr11  O51   1.978970 S    
O4    C12   1.280985 A    
O47   Cr11  1.934321 S    
C76   H40   1.087071 S    
O39   C19   1.276652 A    
C47   C56   1.411979 A    
O20   Cr12  2.049696 S    
C44   C55   1.409359 A    
C58   C62   1.413263 A    
C35   C39   1.466262 S    
C36   C40   1.469567 S    
C45   C54   1.411979 A    
C60   C64   1.413263 A    
C42   C57   1.420330 A    
C71   C83   1.347593 D    
C82   H34   1.088483 S    
C73   C77   1.327712 D    
C68   H28   1.082156 S    
O1    C9    1.262473 A    
C5    C25   1.454815 S    
O7    C3    1.280098 A    
C89   C90   1.417755 S    
C32   H8    1.086598 S    
O39   Cr7   1.939737 S    
C78   H30   1.086225 S    
O24   C12   1.276001 A    
C51   H15   1.079086 S    
O25   C21   1.246100 A    
C52   H16   1.080645 S    
O26   Cr2   2.054868 S    
C31   C35   1.342027 D    
C65   C66   1.390888 A    
O46   Cr10  1.930492 S    
C30   C34   1.334238 D    
C59   C60   1.402474 A    
C47   H19   1.081288 S    
O8    Cr4   1.938055 S    
O23   Cr11  1.951799 S    
O30   C14   1.270983 A    
C88   H43   1.087633 S    
C45   H17   1.081287 S    
O32   Cr4   1.951038 S    
C12   C43   1.489320 S    
C1    O9    1.258532 A    
C87   C92   1.350241 D    
C26   C38   1.355071 D    
C5    O17   1.274045 A    
C86   C89   1.349179 D    
C45   C49   1.393317 A    
C62   C66   1.390856 A    
C3    O11   1.258532 A    
C85   C90   1.350688 D    
O11   Cr7   2.057837 S    
C16   C73   1.450055 S    
C4    O12   1.265957 A    
O21   C9    1.291768 A    
C27   H11   1.084126 S    
C71   Br7   1.920289 S    
C67   C68   1.390889 A    
C72   C84   1.347706 D    
C64   H23   1.083535 S    
C7    O19   1.274045 A    
O3    Cr3   2.077571 S    
Cr4   O52   1.978542 S    
C46   C53   1.409520 A    
O47   C23   1.275541 A    
O2    Cr2   2.073200 S    
C57   C61   1.413211 A    
C48   C52   1.390104 A    
C35   Br3   1.920786 S    
O2    C10   1.280984 A    
C10   C41   1.489321 S    
C26   H10   1.084972 S    
O42   Cr10  2.078317 S    
Cr5   O49   1.982321 S    
C9    C42   1.489866 S    
O18   Cr10  2.049696 S    
O28   C24   1.247182 A    
C81   H33   1.088457 S    
C70   Br6   1.919510 S    
O17   Cr9   2.054683 S    
C43   C60   1.406257 A    
C69   Br5   1.919706 S    
C11   C44   1.489864 S    
C44   C59   1.420329 A    
C89   Br9   1.948020 S    
C8    C28   1.454276 S    
Cr7   O51   1.982321 S    
C34   Br2   1.921972 S    
O6    Cr2   1.938055 S    
O35   Cr7   2.065455 S    
O31   Cr3   1.956595 S    
O24   Cr12  1.959012 S    
O9    Cr5   2.057837 S    
C64   C68   1.390855 A    
O30   Cr2   1.951038 S    
C37   H1    1.086903 S    
C14   C75   1.449793 S    
O22   C10   1.276000 A    
O26   C22   1.246949 A    
C80   C84   1.448639 S    
O48   Cr12  1.930492 S    
C88   C91   1.348789 D    
Cr12  O52   1.975683 S    
O32   C16   1.270853 A    
C87   H44   1.087577 S    
C46   H18   1.082497 S    
C2    O10   1.265957 A    
C21   C85   1.431469 S    
C15   C74   1.450366 S    
O16   Cr8   1.935483 S    
O15   C7    1.268729 A    
C15   O35   1.270153 A    
O27   C23   1.246288 A    
Cr10  O50   1.975683 S    
C79   C83   1.447740 S    
C30   H6    1.086599 S    
C73   H37   1.087017 S    
O40   C20   1.276010 A    
C48   C55   1.409519 A    
O43   Cr11  2.069647 S    
O48   C24   1.274053 A    
O12   Cr8   2.067107 S    
C67   H27   1.076079 S    
C46   C50   1.390104 A    
O37   Cr5   1.939737 S    
O5    C1    1.280098 A    
C63   H24   1.082572 S    
C34   C38   1.469567 S    
C90   Br10  1.948216 S    
C69   C81   1.347232 D    
C91   Br11  1.946718 S    
C33   C37   1.466263 S    
O45   Cr9   1.934321 S    
C25   H9    1.084126 S    
O3    C11   1.262473 A    
O8    C4    1.276352 A    
C75   H39   1.087482 S    
O13   Cr5   1.945443 S    
C13   O33   1.270086 A    
C6    C26   1.454278 S    
O29   C13   1.269418 A    
Cr2   O50   1.978542 S    
O15   Cr7   1.945443 S    
C41   C54   1.423438 A    
C28   H12   1.084972 S    
C1    C32   1.451012 S    
Cr1   O49   1.975021 S    
C61   H22   1.082572 S    
C3    C30   1.451011 S    
Cr3   O51   1.975021 S    
O14   Cr6   1.935483 S    
O21   Cr9   1.951799 S    
C59   C63   1.413212 A    
O27   Cr3   2.052862 S    
C77   H29   1.086254 S    
C72   Br8   1.919382 S    
C49   C50   1.391623 A    
C7    C27   1.454815 S    
C4    C29   1.455758 S    
C55   C56   1.420542 A    
C18   C70   1.440971 S    
C29   C33   1.342026 D    
C47   C51   1.393317 A    
C40   H4    1.086707 S    
C22   C86   1.430364 S    
C83   H35   1.088880 S    
C53   C54   1.420542 A    
O38   C18   1.276024 A    
C76   C80   1.327993 D    
C49   H13   1.079085 S    
C84   H36   1.088501 S    
O25   Cr1   2.052862 S    
O37   C17   1.276788 A    
O22   Cr10  1.959012 S    
C66   H26   1.082156 S    
C25   C37   1.350095 D    
C74   H38   1.087034 S    
C48   H20   1.082498 S    
C8    O20   1.273897 A    
C27   C39   1.350095 D    
C43   C56   1.423437 A    
O6    C2    1.276352 A    
O7    Cr3   1.935436 S    
C17   O41   1.258771 A    
C70   C82   1.347689 D    
C78   C82   1.448656 S    
C33   Br1   1.920784 S    
C14   O34   1.271078 A    
C19   O43   1.258691 A    
O40   Cr8   1.949062 S    
C75   C79   1.328595 D    
C20   O44   1.257493 A    
C39   H3    1.086902 S    
O1    Cr1   2.077571 S    
C79   H31   1.087128 S    
O14   C6    1.264722 A    
C41   C58   1.406256 A    
Cr8   O52   1.982389 S    
C42   C53   1.409360 A    
C31   H7    1.086997 S    
C57   C58   1.402475 A    
C24   C88   1.430214 S    
C36   Br4   1.921971 S    
C80   H32   1.086413 S    
O46   C22   1.274338 A    
C62   H21   1.083533 S    
O31   C15   1.269360 A    
C2    C31   1.455758 S    
O45   C21   1.275832 A    
C63   C67   1.391828 A    
C32   C36   1.334238 D    
O34   Cr6   2.054648 S    
O19   Cr11  2.054683 S    
C20   C72   1.440937 S    
C74   C78   1.327896 D    
O33   Cr5   2.065455 S    
C38   H2    1.086707 S    
O23   C11   1.291769 A    
O10   Cr6   2.067107 S    
O5    Cr1   1.935436 S    
C13   C76   1.450346 S    
Cr9   O49   1.978970 S    
O4    Cr4   2.073200 S    
C19   C71   1.439821 S    
C28   C40   1.355071 D    
O29   Cr1   1.956595 S    
C91   C92   1.417124 S    
C92   Br12  1.947925 S    
O28   Cr4   2.054868 S    
C16   O36   1.271271 A    
C17   C69   1.440054 S    
C50   H14   1.080643 S    
O44   Cr12  2.078317 S    
Cr6   O50   1.982389 S    
C6    O18   1.273895 A    
C77   C81   1.447926 S    
O41   Cr9   2.069647 S    
C23   C87   1.431152 S    
O36   Cr8   2.054648 S    
C65   H25   1.076079 S    
O16   C8    1.264722 A    
C61   C65   1.391828 A    
C51   C52   1.391622 A    
C86   H41   1.087621 S    
C29   H5    1.086995 S    
O38   Cr6   1.949062 S    
O13   C5    1.268729 A    
