data_mof_unit_8066.cif
_audit_creation_date              2012-12-10T16:44:13-0500
_audit_creation_method            fapswitch 2.2
_symmetry_space_group_name_H-M    P1
_symmetry_Int_Tables_number       1
_space_group_crystal_system       triclinic
_cell_length_a                    7.49843
_cell_length_b                    8.689929
_cell_length_c                    13.591419
_cell_angle_alpha                 95.190155
_cell_angle_beta                  79.068412
_cell_angle_gamma                 102.968379
_cell_volume                      846.316131238

loop_
_atom_site_label
_atom_site_type_symbol
_atom_type_description
_atom_site_fract_x
_atom_site_fract_y
_atom_site_fract_z
_atom_type_partial_charge
C1    C     C_R   0.544763 0.799986 0.503780 0.863952
C2    C     C_R   0.427528 0.444497 0.969826 0.074249
C3    C     C_R   0.488114 0.457818 0.864640 0.110750
C4    C     C_R   0.561828 0.490748 0.035004 0.070198
C5    C     C_R   0.750605 0.552819 0.994358 0.182174
C6    C     C_R   0.808022 0.550982 0.892041 -0.288740
C7    C     C_R   0.682453 0.490250 0.829286 -0.237559
C8    C     C_R   0.516536 0.477168 0.139041 -0.259530
C9    C     C_R   0.836230 0.589344 0.158369 -0.200704
C10   C     C_R   0.352801 0.435678 0.799492 -0.099115
C11   C     C_2   0.568798 0.968008 0.507015 -0.374158
C12   C     C_R   0.402343 0.476960 0.692388 0.761173
C13   C     C_2   0.430113 0.031977 0.494283 -0.366412
C14   C     C_R   0.454926 0.200007 0.496685 0.853872
C15   C     C_R   0.598249 0.510854 0.307607 0.780077
C16   C     C_R   0.884508 0.605201 0.055947 -0.205826
C17   C     C_R   0.652797 0.524134 0.199923 -0.037983
C18   C     C_R   0.167057 0.370591 0.837681 -0.229983
C19   C     C_R   0.111074 0.340524 0.938737 -0.140166
C20   C     C_R   0.236789 0.382439 0.004883 -0.198289
Cu1   Cu    Cu3+1 0.321300 0.483160 0.488710 1.008061
Cu2   Cu    Cu3+1 0.678700 0.516840 0.511290 1.025054
H1    H     H_    0.296843 0.960665 0.481464 0.204596
H2    H     H_    0.953818 0.587318 0.860691 0.150695
H3    H     H_    0.028086 0.654017 0.024389 0.151918
H4    H     H_    0.376851 0.428346 0.174626 0.152226
H5    H     H_    0.063881 0.343024 0.789120 0.155372
H6    H     H_    0.179648 0.363010 0.082705 0.136229
H7    H     H_    0.966692 0.289767 0.966935 0.159668
H8    H     H_    0.746835 0.459939 0.755008 0.186822
H9    H     H_    0.701568 0.039442 0.520304 0.172309
N1    N     N_2   0.947230 0.542220 0.528320 0.144889
N2    N     N_2   0.052770 0.457780 0.471680 0.155034
O1    O     O_R   0.383920 0.714220 0.492660 -0.524600
O2    O     O_R   0.685730 0.742660 0.511730 -0.582363
O3    O     O_R   0.275440 0.478800 0.636790 -0.593063
O4    O     O_R   0.577250 0.507240 0.655860 -0.627502
O5    O     O_R   0.314270 0.257340 0.488270 -0.632948
O6    O     O_R   0.616080 0.285780 0.507340 -0.551936
O7    O     O_R   0.422750 0.492760 0.344140 -0.603115
O8    O     O_R   0.724560 0.521200 0.363210 -0.531934
H10   H     H_    0.941889 0.628427 0.204915 0.171120
O9    O     O_3   0.039881 0.690102 0.547161 -0.468311
C21   C     C_3   0.984457 0.731024 0.648569 -0.181288
H11   H     H_    0.835431 0.735874 0.666085 0.178463
H12   H     H_    0.064810 0.850978 0.665603 0.133388
H13   H     H_    0.018330 0.649006 0.696491 0.134125
O10   O     O_3   0.968376 0.371312 0.399231 -0.472131
C22   C     C_3   0.034467 0.231846 0.375622 -0.154110
H14   H     H_    0.012776 0.162534 0.443218 0.151414
H15   H     H_    0.180143 0.255557 0.335820 0.169691
H16   H     H_    0.950780 0.157237 0.322946 0.124245

loop_
_geom_bond_atom_site_label_1
_geom_bond_atom_site_label_2
_ccdc_geom_bond_type
C2    C4    A    
O9    C21   S    
C6    C7    A    
C14   O5    A    
C8    H4    S    
C19   C20   A    
C1    C11   S    
C21   H13   S    
C4    C8    A    
C22   H16   S    
C6    H2    S    
N1    N2    D    
C2    C3    A    
C11   H9    S    
Cu1   O3    S    
Cu1   Cu2   S    
Cu2   O2    S    
C11   C13   D    
C1    O2    A    
C9    H10   S    
Cu1   O7    S    
Cu2   N1    S    
C10   C18   A    
C3    C10   A    
Cu2   O6    S    
C10   C12   S    
C9    C17   A    
O10   C22   S    
C9    C16   A    
C21   H12   S    
C1    O1    A    
C18   C19   A    
C3    C7    A    
C5    C6    A    
C15   O7    A    
Cu2   O8    S    
C12   O3    A    
Cu1   O5    S    
C15   O8    A    
C2    C20   A    
C19   H7    S    
C12   O4    A    
Cu1   N2    S    
C21   H11   S    
C13   H1    S    
C7    H8    S    
C22   H14   S    
C16   H3    S    
C15   C17   S    
N2    O10   S    
C5    C16   A    
Cu1   O1    S    
C20   H6    S    
C14   O6    A    
C13   C14   S    
Cu2   O4    S    
N1    O9    S    
C18   H5    S    
C8    C17   A    
C4    C5    A    
C22   H15   S    
