data_mof_unit_45771.cif
_audit_creation_date              2013-03-05T16:09:55-0500
_audit_creation_method            fapswitch 2.2
_symmetry_space_group_name_H-M    P1
_symmetry_Int_Tables_number       1
_space_group_crystal_system       triclinic
_cell_length_a                    10.687569
_cell_length_b                    9.880443
_cell_length_c                    10.650801
_cell_angle_alpha                 90.357236
_cell_angle_beta                  89.537133
_cell_angle_gamma                 89.460519
_cell_volume                      1124.59343899

loop_
_atom_site_label
_atom_site_type_symbol
_atom_site_description
_atom_site_fract_x
_atom_site_fract_y
_atom_site_fract_z
_atom_type_partial_charge
O1    O     O_R   0.316770 0.614620 0.499990 -0.560493
O2    O     O_R   0.683230 0.614620 0.500010 -0.570252
O3    O     O_R   0.316800 0.385290 0.500000 -0.642392
O4    O     O_R   0.683200 0.385290 0.500000 -0.634039
C1    C     C_R   0.260047 0.500115 0.499733 0.911599
C2    C     C_R   0.739872 0.499405 0.499147 0.910741
O5    O     O_R   0.500010 0.614690 0.316770 -0.576190
O6    O     O_R   0.499990 0.614690 0.683230 -0.573618
O7    O     O_R   0.500040 0.385360 0.316770 -0.637009
O8    O     O_R   0.499960 0.385360 0.683230 -0.630803
C3    C     C_R   0.486364 0.500132 0.260548 0.917686
C4    C     C_R   0.511566 0.500755 0.740046 0.913726
Zn1   Zn    Zn3+2 0.500000 0.653120 0.500000 1.121388
Zn2   Zn    Zn3+2 0.500000 0.346880 0.500000 0.978147
H1    H     H_    0.490055 0.281937 0.110962 0.173699
H2    H     H_    0.517164 0.283096 0.887227 0.176331
C5    C     C_R   0.408677 0.746537 0.109619 0.364088
C6    C     C_R   0.566746 0.752010 0.897412 0.389663
C7    C     C_R   0.441497 0.870067 0.054861 -0.223030
C8    C     C_R   0.524769 0.872936 0.953827 -0.215478
H3    H     H_    0.404179 0.964688 0.091618 0.189123
H4    H     H_    0.556293 0.969836 0.919489 0.186298
C9    C     C_R   0.519912 0.626761 0.942536 -0.041559
C10   C     C_R   0.462766 0.624595 0.060840 -0.043939
C11   C     C_R   0.469411 0.500766 0.126778 -0.047000
C12   C     C_R   0.523539 0.502835 0.874594 -0.047221
C13   C     C_R   0.489288 0.378398 0.063067 -0.187452
C14   C     C_R   0.510662 0.379307 0.936387 -0.180141
C15   C     C_R   0.065689 0.389560 0.445041 -0.123471
C16   C     C_R   0.937135 0.388797 0.445684 -0.149659
H5    H     H_    0.116507 0.305488 0.402296 0.179255
H6    H     H_    0.888715 0.304205 0.403537 0.173113
C17   C     C_R   0.872258 0.498606 0.498788 -0.051499
C18   C     C_R   0.127503 0.499421 0.498771 -0.039941
C19   C     C_R   0.934259 0.608175 0.552064 -0.046722
C20   C     C_R   0.062270 0.607396 0.553512 -0.100720
H7    H     H_    0.884087 0.692868 0.594273 0.235591
H8    H     H_    0.109920 0.688936 0.599676 0.233435
C21   C     C_R   0.595088 0.071343 0.444680 -0.126439
C22   C     C_R   0.405374 0.074666 0.555438 -0.125445
H9    H     H_    0.670555 0.125501 0.399730 0.171902
H10   H     H_    0.330439 0.131639 0.600542 0.186137
C23   C     C_R   0.595454 0.927916 0.443492 0.346432
C24   C     C_R   0.404570 0.931514 0.556548 0.369204
N1    N     N_R   0.500000 0.857200 0.500000 -0.175115
N2    N     N_R   0.500000 0.142810 0.500000 -0.130223
N3    N     N_R   0.312232 0.745106 0.204874 0.221557
O9    O     O_R   0.288710 0.852682 0.272480 -0.380348
O10   O     O_R   0.238164 0.641824 0.214642 -0.395588
N4    N     N_R   0.667280 0.756646 0.806834 0.216459
O11   O     O_R   0.686993 0.865775 0.742074 -0.400247
O12   O     O_R   0.748561 0.657937 0.799877 -0.423186
N5    N     N_R   0.697175 0.858924 0.382349 0.222508
O13   O     O_R   0.677842 0.794820 0.277497 -0.374412
O14   O     O_R   0.811341 0.889444 0.412214 -0.359148
N6    N     N_R   0.301105 0.867710 0.616874 0.208995
O15   O     O_R   0.320717 0.790887 0.713369 -0.399249
O16   O     O_R   0.189551 0.918797 0.601630 -0.385049

loop_
_geom_bond_atom_site_label_1
_geom_bond_atom_site_label_2
_geom_bond_distance
_ccdc_geom_bond_type
H2    C14   1.083788 S    
O5    Zn1   1.985817 S    
N4    O12   1.301312 A    
O7    Zn2   1.990560 S    
C10   C11   1.416006 A    
C15   C16   1.373984 A    
Zn1   N1    2.016401 S    
C11   C13   1.396428 A    
C23   N1    1.378367 A    
C24   N6    1.428189 S    
C12   C14   1.397665 A    
N3    O9    1.301512 A    
C2    C17   1.414813 S    
O6    C4    1.286797 A    
C9    C10   1.396171 A    
C1    C18   1.416768 S    
O3    C1    1.281471 A    
C7    C8    1.391483 A    
C20   H8    1.075642 S    
N4    O11   1.301514 A    
C21   H9    1.082198 S    
N5    O13   1.299378 A    
N6    O15   1.298679 A    
O5    C3    1.287275 A    
O7    C3    1.293307 A    
O2    C2    1.284232 A    
O3    Zn2   1.990893 S    
O8    C4    1.294910 A    
C21   N2    1.360216 A    
O1    C1    1.288568 A    
O4    C2    1.284954 A    
C7    H3    1.082704 S    
C4    C12   1.439806 S    
C8    H4    1.082753 S    
C18   C20   1.391330 A    
N5    O14   1.301120 A    
O4    Zn2   1.997908 S    
C5    C10   1.424766 A    
O1    Zn1   1.998401 S    
C22   N2    1.353839 A    
C6    C9    1.424137 A    
C16   H6    1.084021 S    
O6    Zn1   1.990464 S    
C5    N3    1.440669 S    
C22   C24   1.414631 A    
C24   N1    1.382950 A    
C6    N4    1.439445 S    
C6    C8    1.402310 A    
N3    O10   1.301546 A    
O8    Zn2   1.985904 S    
C9    C12   1.418457 A    
C19   H7    1.082972 S    
C13   C14   1.366723 A    
O2    Zn1   1.991368 S    
C3    C11   1.437722 S    
C5    C7    1.402329 A    
C21   C23   1.417073 A    
C16   C17   1.396299 A    
C17   C19   1.394631 A    
C15   H5    1.084006 S    
H1    C13   1.083804 S    
C15   C18   1.397879 A    
C23   N5    1.428190 S    
C19   C20   1.368289 A    
N6    O16   1.302079 A    
C22   H10   1.082118 S    
Zn2   N2    2.016303 S    
