data_mof_unit_28171.cif
_audit_creation_date              2012-12-11T14:21:22-0500
_audit_creation_method            fapswitch 2.2
_symmetry_space_group_name_H-M    P1
_symmetry_Int_Tables_number       1
_space_group_crystal_system       triclinic
_cell_length_a                    11.540365
_cell_length_b                    11.620955
_cell_length_c                    19.547951
_cell_angle_alpha                 89.970967
_cell_angle_beta                  89.341294
_cell_angle_gamma                 59.760316
_cell_volume                      2264.65695618

loop_
_atom_site_label
_atom_site_type_symbol
_atom_type_description
_atom_site_fract_x
_atom_site_fract_y
_atom_site_fract_z
_atom_type_partial_charge
C1    C     C_R   0.640102 0.116793 0.599400 0.556768
C2    C     C_1   0.652402 0.149032 0.668765 0.004283
C3    C     C_R   0.694495 0.557191 0.206532 -0.024775
C4    C     C_R   0.612212 0.746050 0.598621 0.550253
C5    C     C_R   0.563136 0.617129 0.236008 -0.010017
C6    C     C_R   0.536367 0.702954 0.290670 0.022221
C7    C     C_R   0.776646 0.590108 0.313377 -0.131480
C8    C     C_R   0.801965 0.533757 0.247884 -0.137561
C9    C     C_R   0.454033 0.610688 0.206721 -0.092990
C10   C     C_R   0.323525 0.714472 0.215092 0.283902
C11   C     C_R   0.297344 0.810838 0.263695 -0.093204
C12   C     C_1   0.640390 0.704002 0.667995 0.005913
C13   C     C_R   0.402123 0.807292 0.300108 -0.130434
C14   C     C_R   0.644695 0.682237 0.333056 0.001764
C15   C     C_R   0.142777 0.191721 0.191104 0.020028
C16   C     C_R   0.240867 0.145109 0.598091 0.549403
C17   C     C_R   0.229381 0.233289 0.214330 0.023640
C18   C     C_R   0.238813 0.246443 0.285107 0.029509
C19   C     C_R   0.116353 0.128248 0.305756 -0.189708
C20   C     C_R   0.084515 0.141660 0.236977 -0.148548
C21   C     C_R   0.295330 0.274912 0.168037 -0.034834
C22   C     C_R   0.344389 0.354749 0.190169 -0.037765
C23   C     C_1   0.127173 0.199669 0.859391 0.014499
C24   C     C_R   0.329468 0.392652 0.258361 -0.060819
C25   C     C_R   0.282056 0.336367 0.305850 -0.051720
C26   C     C_R   0.197299 0.175123 0.330359 -0.002303
C27   C     C_R   0.662264 0.178490 0.189121 0.026701
C28   C     C_R   0.624445 0.082890 0.394421 0.539814
C29   C     C_R   0.694303 0.046475 0.204461 0.012198
C30   C     C_R   0.709999 0.009214 0.274192 -0.059222
C31   C     C_R   0.617605 0.239788 0.308572 -0.140011
C32   C     C_R   0.633186 0.269821 0.242163 -0.191738
C33   C     C_R   0.732420 0.944776 0.154031 0.226176
C34   C     C_1   0.171414 0.170099 0.727791 -0.027720
C35   C     C_R   0.825487 0.813494 0.171248 -0.013524
C36   C     C_R   0.867603 0.782109 0.238396 0.227831
C37   C     C_R   0.799046 0.874418 0.290239 -0.099356
C38   C     C_R   0.650370 0.110535 0.324941 0.020035
C39   C     C_R   0.081723 0.231599 0.928676 0.548870
C40   C     C_R   0.613738 0.743948 0.400542 0.525526
C41   C     C_R   0.683957 0.604713 0.929573 0.557759
C42   C     C_R   0.708555 0.207125 0.930041 0.602651
C43   C     C_R   0.082190 0.235043 0.124753 0.521804
C44   C     C_R   0.711334 0.540449 0.131846 0.559290
C45   C     C_1   0.150530 0.182777 0.799023 -0.025059
C46   C     C_R   0.705543 0.209357 0.125209 0.592711
C47   C     C_R   0.247808 0.141939 0.400238 0.527555
C48   C     C_1   0.671050 0.646837 0.860186 0.010387
C49   C     C_1   0.654286 0.683895 0.728430 -0.027254
C50   C     C_1   0.663749 0.667023 0.799703 -0.023616
C51   C     C_1   0.194969 0.160388 0.667372 0.006066
C52   C     C_1   0.678716 0.191642 0.860804 0.018441
C53   C     C_1   0.658139 0.166743 0.729117 -0.026659
C54   C     C_1   0.665624 0.180896 0.800441 -0.025071
Cl1   Cl    Cl    0.013894 0.632734 0.257477 -0.622952
Cr1   Cr    Cr6+3 0.404720 0.198220 0.499960 1.024113
Cr2   Cr    Cr6+3 0.698290 0.897110 0.500380 1.032778
Cr3   Cr    Cr6+3 0.396970 0.904720 0.499610 1.030080
Cr4   Cr    Cr6+3 0.926180 0.151990 0.028120 1.107452
Cr5   Cr    Cr6+3 0.921330 0.451820 0.027470 1.086696
Cr6   Cr    Cr6+3 0.626260 0.446870 0.028710 1.085295
H1    H     H_    0.859228 0.568190 0.346898 0.170336
H2    H     H_    0.903903 0.474955 0.228825 0.181995
H3    H     H_    0.195965 0.889192 0.271977 0.165001
H4    H     H_    0.378435 0.890731 0.332260 0.166749
H5    H     H_    0.076186 0.083172 0.340005 0.134705
H6    H     H_    0.301858 0.252481 0.113911 0.175059
H7    H     H_    0.012232 0.114822 0.219879 0.179296
H8    H     H_    0.570087 0.879305 0.014041 0.367767
H9    H     H_    0.003951 0.898032 0.130467 0.383760
H10   H     H_    0.389118 0.391033 0.153644 0.157747
H11   H     H_    0.358106 0.463332 0.275231 0.122451
H12   H     H_    0.270896 0.376135 0.356632 0.170996
H13   H     H_    0.585348 0.316472 0.347591 0.138894
H14   H     H_    0.626246 0.363691 0.232608 0.101707
H15   H     H_    0.869678 0.737345 0.131951 0.203662
H16   H     H_    0.829830 0.840899 0.341596 0.189854
H17   H     H_    0.469670 0.533888 0.170672 0.151024
O1    O     O_R   0.267740 0.231960 0.575440 -0.500570
O2    O     O_R   0.596130 0.579390 0.952730 -0.485629
O3    O     O_R   0.639060 0.321160 0.958670 -0.488646
O4    O     O_R   0.527280 0.186640 0.570530 -0.487876
O5    O     O_R   0.821240 0.124200 0.104370 -0.498574
O6    O     O_R   0.036890 0.167040 0.097840 -0.486748
O7    O     O_R   0.056180 0.349610 0.102880 -0.512854
O8    O     O_R   0.797660 0.564870 0.097950 -0.463419
O9    O     O_R   0.595880 0.584250 0.104270 -0.475841
O10   O     O_R   0.638830 0.325670 0.099150 -0.538651
O11   O     O_3   0.824590 0.350230 0.028100 -0.322562
O12   O     O_R   0.685970 0.784660 0.430010 -0.522098
O13   O     O_R   0.728090 0.003450 0.576380 -0.497276
O14   O     O_R   0.682970 0.789190 0.570490 -0.491343
O15   O     O_R   0.499290 0.771880 0.575530 -0.499102
O16   O     O_R   0.285330 0.030870 0.569730 -0.488480
O17   O     O_R   0.270980 0.227080 0.423890 -0.539364
O18   O     O_R   0.530280 0.182120 0.430050 -0.507379
O19   O     O_R   0.731330 0.998570 0.424830 -0.520369
O20   O     O_2   0.550328 0.112572 0.062203 -0.325119
O21   O     O_2   0.769258 0.935576 0.018708 -0.272184
O22   O     O_3   0.598458 0.869286 0.062377 -0.492450
O23   O     O_R   0.502530 0.767000 0.423990 -0.519374
O24   O     O_2   0.254197 0.777440 0.086000 -0.263060
O25   O     O_2   0.190814 0.626369 0.138663 -0.266305
O26   O     O_3   0.056133 0.876516 0.173014 -0.540775
O27   O     O_R   0.288330 0.026350 0.429250 -0.514750
O28   O     O_3   0.499990 0.000020 0.499980 -0.274438
O29   O     O_R   0.821500 0.119340 0.952830 -0.454711
O30   O     O_R   0.037130 0.162530 0.957360 -0.488425
O31   O     O_R   0.056440 0.344740 0.951340 -0.496639
O32   O     O_R   0.797900 0.560360 0.957470 -0.476700
S1    S     S_3+6 0.661112 0.971293 0.071799 0.000444
S2    S     S_3+6 0.205400 0.745734 0.151017 0.026193

loop_
_geom_bond_atom_site_label_1
_geom_bond_atom_site_label_2
_ccdc_geom_bond_type
C28   O19   A    
Cr1   O17   S    
C23   C45   T    
Cr2   O14   S    
C27   C29   A    
O24   S2    D    
C19   C20   A    
C18   C26   A    
C16   C51   S    
C32   H14   S    
C12   C49   T    
C7    C8    A    
C13   H4    S    
C53   C54   S    
C18   C25   A    
C34   C51   T    
Cr1   O1    S    
C36   C37   A    
Cr3   O15   S    
Cr4   O5    S    
C5    C6    A    
H9    O26   S    
Cr6   O2    S    
C29   C33   A    
C30   C38   A    
C19   H5    S    
C15   C17   A    
C1    C2    S    
Cr4   O11   S    
C19   C26   A    
Cr5   O31   S    
Cr6   O9    S    
C40   O23   A    
C7    C14   A    
C35   C36   A    
C52   C54   T    
C47   O27   A    
C10   S2    S    
C33   S1    S    
C4    C12   S    
C44   O9    A    
C9    C10   A    
C48   C50   T    
Cr2   O28   S    
O21   S1    D    
C1    O13   A    
C21   C22   A    
C21   H6    S    
C43   O6    A    
C15   C20   A    
C42   O3    A    
C41   O2    A    
C44   O8    A    
Cr6   O11   S    
C46   O10   A    
C39   O30   A    
C35   H15   S    
C3    C44   S    
Cr2   O12   S    
C43   O7    A    
C24   C25   A    
C3    C8    A    
C34   C45   S    
Cr5   O8    S    
C31   H13   S    
C1    O4    A    
Cr5   O11   S    
C37   H16   S    
Cr4   O29   S    
C4    O15   A    
C30   C37   A    
O25   S2    D    
Cr3   O28   S    
C7    H1    S    
C5    C9    A    
C29   C30   A    
Cr6   O10   S    
C6    C14   A    
C31   C32   A    
C28   C38   S    
Cr2   O19   S    
C17   C18   A    
Cr3   O23   S    
Cr4   O6    S    
Cr1   O28   S    
C26   C47   S    
C27   C46   S    
C11   H3    S    
C41   O32   A    
C22   C24   A    
C22   H10   S    
C24   H11   S    
O26   S2    S    
C42   O29   A    
Cr1   O18   S    
O20   S1    D    
Cr2   O13   S    
C27   C32   A    
C20   H7    S    
C3    C5    A    
C2    C53   T    
Cr5   O7    S    
Cr1   O4    S    
C16   O16   A    
Cr4   O30   S    
C31   C38   A    
C28   O18   A    
Cr3   O27   S    
C16   O1    A    
Cr3   O16   S    
C15   C43   S    
C36   Cl1   S    
Cr6   O3    S    
C6    C13   A    
C11   C13   A    
C23   C39   S    
C33   C35   A    
C41   C48   S    
C25   H12   S    
C9    H17   S    
C17   C21   A    
Cr5   O32   S    
C10   C11   A    
C8    H2    S    
C14   C40   S    
C46   O5    A    
H8    O22   S    
C39   O31   A    
O22   S1    S    
C49   C50   S    
C47   O17   A    
C40   O12   A    
C42   C52   S    
C4    O14   A    
