data_mof_unit_28837.cif
_audit_creation_date              2012-12-11T14:56:24-0500
_audit_creation_method            fapswitch 2.2
_symmetry_space_group_name_H-M    P1
_symmetry_Int_Tables_number       1
_space_group_crystal_system       triclinic
_cell_length_a                    10.503633
_cell_length_b                    10.667795
_cell_length_c                    17.046583
_cell_angle_alpha                 80.054462
_cell_angle_beta                  90.136072
_cell_angle_gamma                 119.089573
_cell_volume                      1636.65686227

loop_
_atom_site_label
_atom_site_type_symbol
_atom_type_description
_atom_site_fract_x
_atom_site_fract_y
_atom_site_fract_z
_atom_type_partial_charge
Br1   Br    Br    0.339923 0.260620 0.169263 -0.363382
Br2   Br    Br    0.324358 0.152882 0.580649 -0.385267
Br3   Br    Br    0.166014 0.545018 0.684875 -0.365789
Br4   Br    Br    0.888066 0.217033 0.194579 -0.416477
Br5   Br    Br    0.518560 0.526987 0.882138 -0.386081
Br6   Br    Br    0.922154 0.159882 0.783209 -0.322740
Br7   Br    Br    0.301593 0.184210 0.767065 -0.325089
C1    C     C_R   0.222074 0.853825 0.128651 0.551775
C2    C     C_1   0.686076 0.403250 0.709777 0.013820
C3    C     C_R   0.615206 0.707801 0.804857 0.110403
C4    C     C_R   0.610715 0.210340 0.102555 0.546114
C5    C     C_R   0.598305 0.697509 0.725956 -0.108776
C6    C     C_R   0.669816 0.822370 0.665720 -0.036298
C7    C     C_R   0.765439 0.957587 0.684759 -0.102808
C8    C     C_R   0.780980 0.970780 0.764084 0.126962
C9    C     C_R   0.695225 0.847065 0.824925 0.029792
C10   C     C_R   0.278293 0.003012 0.744751 0.151786
C11   C     C_R   0.261853 0.983160 0.665913 0.153902
C12   C     C_R   0.724920 0.253732 0.308417 -0.111043
C13   C     C_R   0.201607 0.840530 0.649671 -0.001195
C14   C     C_R   0.205576 0.730568 0.706748 0.108416
C15   C     C_R   0.241795 0.756402 0.783068 -0.135644
C16   C     C_R   0.600955 0.881382 0.130873 0.525152
C17   C     C_R   0.266166 0.887334 0.804732 -0.053670
C18   C     C_R   0.682836 0.813077 0.358725 0.549494
C19   C     C_R   0.680407 0.380821 0.401294 0.572700
C20   C     C_R   0.104842 0.810720 0.359475 0.553576
C21   C     C_R   0.677551 0.800063 0.585553 0.533646
C22   C     C_R   0.718092 0.447033 0.625839 0.560126
C23   C     C_R   0.722645 0.231610 0.231298 0.091019
C24   C     C_R   0.109031 0.806361 0.582857 0.566826
C25   C     C_R   0.289298 0.904694 0.888116 0.562870
C26   C     C_R   0.640180 0.290323 0.861726 0.591574
C27   C     C_R   0.648792 0.865875 0.900114 0.577568
C28   C     C_R   0.503778 0.258556 0.219559 0.123293
C29   C     C_R   0.517767 0.293578 0.295019 -0.102389
C30   C     C_R   0.632802 0.299108 0.337324 -0.036755
C31   C     C_R   0.612491 0.235331 0.184496 0.009538
C32   C     C_1   0.633600 0.869749 0.211282 0.002666
C33   C     C_1   0.660333 0.854231 0.279116 0.008506
C34   C     C_1   0.181061 0.825576 0.211382 -0.006976
C35   C     C_1   0.152403 0.820245 0.280052 -0.005345
C36   C     C_1   0.662922 0.358630 0.780329 0.044296
Cr1   Cr    Cr6+3 0.402240 0.783890 0.019450 1.109276
Cr2   Cr    Cr6+3 0.382360 0.097900 0.991800 1.159923
Cr3   Cr    Cr6+3 0.715380 0.118170 0.988700 1.139218
Cr4   Cr    Cr6+3 0.936650 0.882420 0.465510 1.088407
Cr5   Cr    Cr6+3 0.605770 0.565620 0.493360 1.108610
Cr6   Cr    Cr6+3 0.921340 0.550490 0.496380 1.092989
H1    H     H_    0.242963 0.670001 0.826493 0.207225
H2    H     H_    0.443998 0.325110 0.318464 0.181166
H3    H     H_    0.811793 0.252369 0.342352 0.183223
H4    H     H_    0.533881 0.589716 0.711939 0.203713
H5    H     H_    0.830535 0.051998 0.637895 0.182351
O1    O     O_R   0.521780 0.757110 0.108900 -0.463671
O2    O     O_R   0.805020 0.410040 0.421340 -0.515617
O3    O     O_R   0.049240 0.685450 0.403290 -0.496752
O4    O     O_R   0.275160 0.783810 0.101120 -0.500546
O5    O     O_R   0.077520 0.903010 0.551800 -0.471252
O6    O     O_R   0.802980 0.872780 0.546830 -0.503777
O7    O     O_R   0.578090 0.681300 0.569920 -0.496488
O8    O     O_R   0.608530 0.436370 0.586530 -0.445204
O9    O     O_R   0.798770 0.401880 0.597100 -0.467420
O10   O     O_R   0.043450 0.677890 0.566230 -0.480505
O11   O     O_3   0.821250 0.666180 0.485090 -0.307820
O12   O     O_R   0.513330 0.228330 0.898660 -0.454720
O13   O     O_R   0.237900 0.972600 0.090980 -0.465728
O14   O     O_R   0.511190 0.220540 0.061620 -0.439901
O15   O     O_R   0.736920 0.257720 0.063840 -0.445864
O16   O     O_R   0.710450 0.984050 0.081720 -0.460229
O17   O     O_R   0.524090 0.765520 0.933110 -0.471887
O18   O     O_R   0.277300 0.791600 0.938160 -0.492752
O19   O     O_R   0.240210 0.981010 0.915190 -0.433866
O20   O     O_R   0.739230 0.266130 0.888050 -0.470385
O21   O     O_R   0.712580 0.991850 0.918770 -0.464422
O22   O     O_3   0.499990 0.999980 0.999980 -0.374499
O23   O     O_R   0.083770 0.911170 0.376030 -0.475459
O24   O     O_R   0.808770 0.880340 0.383890 -0.476348
O25   O     O_R   0.584340 0.689460 0.394160 -0.504762
O26   O     O_R   0.614320 0.443940 0.423590 -0.476318

loop_
_geom_bond_atom_site_label_1
_geom_bond_atom_site_label_2
_ccdc_geom_bond_type
C22   O9    A    
Cr6   O9    S    
Br2   C11   S    
C34   C35   T    
C28   C29   A    
C20   C35   S    
Cr3   O22   S    
C25   O18   A    
Cr6   O11   S    
Cr2   O22   S    
Cr5   O25   S    
C29   C30   A    
C18   C33   S    
C8    C9    A    
Cr6   O3    S    
C23   C31   A    
Cr1   O17   S    
Cr2   O19   S    
C24   O5    A    
Cr1   O22   S    
Cr3   O15   S    
C12   C30   A    
C9    C27   S    
Cr4   O6    S    
C12   H3    S    
Cr1   O4    S    
Br7   C10   S    
Cr2   O13   S    
C6    C21   S    
Cr5   O11   S    
C5    H4    S    
C2    C22   S    
C27   O21   A    
C15   H1    S    
C1    O4    A    
C21   O7    A    
Br6   C8    S    
Cr6   O10   S    
C6    C7    A    
C16   O16   A    
Cr3   O21   S    
C26   O12   A    
C21   O6    A    
C2    C36   T    
C10   C17   A    
C18   O24   A    
C26   C36   S    
C28   C31   A    
C1    C34   S    
C20   O3    A    
C25   O19   A    
C19   O26   A    
C4    C31   S    
C17   C25   S    
Cr5   O8    S    
Cr2   O14   S    
C10   C11   A    
C13   C14   A    
C29   H2    S    
C3    C5    A    
C7    H5    S    
C15   C17   A    
Br3   C14   S    
Cr4   O23   S    
Cr3   O20   S    
C4    O14   A    
Br1   C28   S    
C22   O8    A    
C18   O25   A    
C24   O10   A    
C20   O23   A    
C19   O2    A    
C4    O15   A    
C19   C30   S    
C16   O1    A    
Cr6   O2    S    
Cr5   O26   S    
Br5   C3    S    
C3    C9    A    
Cr1   O1    S    
Cr5   O7    S    
C16   C32   S    
Cr1   O18   S    
C11   C13   A    
Cr3   O16   S    
Cr4   O5    S    
C32   C33   T    
C26   O20   A    
C5    C6    A    
C1    O13   A    
Cr2   O12   S    
C7    C8    A    
Cr4   O24   S    
C14   C15   A    
C12   C23   A    
C27   O17   A    
Cr4   O11   S    
Br4   C23   S    
C13   C24   S    
