data_mof_unit_55992.cif
_audit_creation_date              2012-12-11T17:06:31-0500
_audit_creation_method            fapswitch 2.2
_symmetry_space_group_name_H-M    P1
_symmetry_Int_Tables_number       1
_space_group_crystal_system       triclinic
_cell_length_a                    6.961512
_cell_length_b                    14.529099
_cell_length_c                    15.960728
_cell_angle_alpha                 90.462735
_cell_angle_beta                  89.948131
_cell_angle_gamma                 89.95256
_cell_volume                      1614.28593321

loop_
_atom_site_label
_atom_site_type_symbol
_atom_type_description
_atom_site_fract_x
_atom_site_fract_y
_atom_site_fract_z
_atom_type_partial_charge
O1    O     O_R   0.494400 0.415450 0.412630 -0.540453
O2    O     O_R   0.823940 0.405730 0.586760 -0.546939
O3    O     O_R   0.994240 0.584550 0.587370 -0.544096
C1    C     C_R   0.655109 0.383458 0.615193 0.736925
O4    O     O_R   0.824110 0.404430 0.413240 -0.545871
O5    O     O_R   0.994420 0.583240 0.412620 -0.541280
C2    C     C_R   0.655415 0.382229 0.384244 0.682475
O6    O     O_R   0.494230 0.416760 0.587380 -0.524210
O7    O     O_3   0.660800 0.558670 0.500000 -0.370460
V1    V     V_3+5 0.935650 0.489120 0.500000 1.399089
O8    O     O_R   0.324140 0.594270 0.413240 -0.543361
C3    C     C_R   0.155123 0.616224 0.384383 0.681224
O9    O     O_R   0.323960 0.595570 0.586760 -0.521781
C4    C     C_R   0.155033 0.617175 0.615922 0.734457
V2    V     V_3+5 0.435660 0.510880 0.500000 1.438255
O10   O     O_3   0.160640 0.441330 0.500000 -0.376220
C5    C     C_3   0.956288 0.717334 0.730016 -0.125100
C6    C     C_3   0.054946 0.708393 0.816828 -0.205025
H1    H     H_    0.990799 0.676085 0.873094 0.106251
H2    H     H_    0.809646 0.692434 0.714575 0.129041
C7    C     C_3   0.122543 0.808999 0.810465 -0.013311
C8    C     C_3   0.023728 0.818822 0.724649 -0.131422
C9    C     C_3   0.211732 0.786965 0.680823 -0.168702
C10   C     C_3   0.310840 0.778176 0.767507 -0.173935
C11   C     C_3   0.241760 0.677586 0.772599 0.055547
C12   C     C_3   0.144329 0.686137 0.686696 -0.016928
H3    H     H_    0.932953 0.877783 0.705290 0.097072
H4    H     H_    0.276276 0.819185 0.624617 0.103126
H5    H     H_    0.457570 0.802873 0.783093 0.113519
C13   C     C_R   0.274599 0.749890 0.186909 0.100108
C14   C     C_R   0.118383 0.810009 0.178813 -0.111231
C15   C     C_R   0.965919 0.799989 0.236119 -0.180363
H6    H     H_    0.842737 0.845012 0.232600 0.129629
C16   C     C_R   0.977422 0.736591 0.302409 -0.181456
H7    H     H_    0.861697 0.733888 0.347526 0.128624
C17   C     C_R   0.142364 0.681777 0.313753 -0.107359
C18   C     C_R   0.286380 0.687471 0.252693 0.100796
C19   C     C_3   0.496198 0.703611 0.263242 -0.415344
C20   C     C_3   0.483450 0.771217 0.191323 -0.396527
H8    H     H_    0.582592 0.641320 0.247925 0.172891
H9    H     H_    0.529647 0.737047 0.324372 0.168398
H10   H     H_    0.561850 0.747852 0.134283 0.173348
H11   H     H_    0.510279 0.843778 0.210584 0.165657
C21   C     C_R   0.491398 0.314606 0.740369 0.194487
C22   C     C_R   0.647213 0.316909 0.684845 -0.123771
C23   C     C_R   0.799532 0.255230 0.699286 -0.198832
H12   H     H_    0.922432 0.254247 0.657946 0.135838
C24   C     C_R   0.788493 0.189604 0.763504 -0.180125
H13   H     H_    0.903949 0.140382 0.770094 0.128806
C25   C     C_R   0.624400 0.183496 0.814898 -0.115416
C26   C     C_R   0.480176 0.249466 0.803799 0.092303
C27   C     C_3   0.270452 0.235676 0.790308 -0.435621
C28   C     C_3   0.282564 0.306834 0.721386 -0.384889
H14   H     H_    0.183777 0.258927 0.845053 0.185340
H15   H     H_    0.237543 0.165292 0.766630 0.167004
H16   H     H_    0.202783 0.371196 0.736333 0.205070
H17   H     H_    0.256298 0.277905 0.657730 0.154151
C29   C     C_R   0.493351 0.315711 0.256584 0.101830
C30   C     C_R   0.647576 0.316282 0.312971 -0.109202
C31   C     C_R   0.799080 0.254211 0.297166 -0.181469
H18   H     H_    0.921514 0.252254 0.338650 0.131556
C32   C     C_R   0.787812 0.189477 0.231150 -0.180148
H19   H     H_    0.902555 0.139884 0.223599 0.126405
C33   C     C_R   0.624394 0.184644 0.179139 -0.111105
C34   C     C_R   0.481767 0.251404 0.191485 0.104200
C35   C     C_3   0.270989 0.239496 0.203363 -0.408994
C36   C     C_3   0.283477 0.309976 0.273977 -0.399728
H20   H     H_    0.234457 0.169234 0.225268 0.164815
H21   H     H_    0.187225 0.264028 0.148637 0.177364
H22   H     H_    0.253344 0.280841 0.336815 0.168036
H23   H     H_    0.207730 0.375444 0.259916 0.169011
O11   O     O_R   0.771650 0.079500 0.908680 -0.539895
O12   O     O_R   0.441690 0.091800 0.082800 -0.539475
O13   O     O_R   0.271460 0.912980 0.083410 -0.537431
C37   C     C_R   0.610634 0.113927 0.111909 0.693803
O14   O     O_R   0.441930 0.090510 0.909280 -0.538858
O15   O     O_R   0.271690 0.911670 0.908660 -0.540249
C38   C     C_R   0.610970 0.112493 0.880612 0.702242
O16   O     O_R   0.771410 0.080810 0.083440 -0.539672
O17   O     O_3   0.605100 0.937580 0.996050 -0.370374
V3    V     V_3+5 0.330220 0.007110 0.996030 1.393677
O18   O     O_R   0.941980 0.900620 0.909250 -0.541309
C39   C     C_R   0.111041 0.878717 0.880400 0.684268
O19   O     O_R   0.941740 0.901920 0.082770 -0.543439
C40   C     C_R   0.110469 0.880084 0.111742 0.689095
V4    V     V_3+5 0.830220 0.985300 0.996000 1.388538
O20   O     O_3   0.105210 0.054870 0.996020 -0.367971
C41   C     C_2   0.366708 0.601136 0.803466 0.292586
H24   H     H_    0.424553 0.604482 0.866498 0.046509
O21   O     O_2   0.404664 0.535383 0.758469 -0.544020

loop_
_geom_bond_atom_site_label_1
_geom_bond_atom_site_label_2
_ccdc_geom_bond_type
C35   H20   S    
C14   C40   S    
C6    C7    S    
C1    O6    A    
C22   C23   A    
C27   C28   S    
C32   H19   S    
C5    C12   S    
C17   C18   A    
O19   V4    S    
C16   H7    S    
O5    C3    A    
C19   C20   S    
C35   H21   S    
O15   C39   A    
V2    O10   S    
C5    H2    S    
C31   C32   A    
C6    H1    S    
C9    C12   S    
O12   V3    S    
C10   H5    S    
C32   C33   A    
O8    V2    S    
C21   C28   S    
C7    C39   S    
O17   V4    S    
C9    C10   S    
O1    V2    S    
C3    C17   S    
O7    V1    S    
C36   H23   S    
C27   H15   S    
C24   C25   A    
C35   C36   S    
C30   C31   A    
O9    C4    A    
O12   C37   A    
C6    C11   S    
C25   C38   S    
C2    C30   S    
C27   H14   S    
C25   C26   A    
C20   H10   S    
C1    C22   S    
C23   C24   A    
C26   C27   S    
O19   C40   A    
C10   C11   S    
C19   H9    S    
O4    C2    A    
C28   H17   S    
V4    O20   S    
C20   H11   S    
C29   C30   A    
O18   V4    S    
C11   C41   S    
C13   C18   A    
C31   H18   S    
C15   C16   A    
O2    C1    A    
C18   C19   S    
C29   C34   A    
C14   C15   A    
O15   V3    S    
C5    C6    S    
C9    H4    S    
C4    C12   S    
V3    O20   S    
O3    C4    A    
C21   C26   A    
C24   H13   S    
C41   O21   D    
O18   C39   A    
O6    V2    S    
C8    H3    S    
O9    V2    S    
O13   V3    S    
O2    V1    S    
C21   C22   A    
C28   H16   S    
C23   H12   S    
O1    C2    A    
O14   C38   A    
O17   V3    S    
O14   V3    S    
O5    V1    S    
O11   V4    S    
O8    C3    A    
C5    C8    S    
C36   H22   S    
C15   H6    S    
C11   C12   S    
O4    V1    S    
O3    V1    S    
V1    O10   S    
C33   C34   A    
C19   H8    S    
C13   C14   A    
C33   C37   S    
C13   C20   S    
C16   C17   A    
O13   C40   A    
O7    V2    S    
C29   C36   S    
C41   H24   S    
C34   C35   S    
C7    C10   S    
O11   C38   A    
C8    C9    S    
C7    C8    S    
C37   O16   A    
O16   V4    S    
