data_mof_unit_25297.cif
_audit_creation_date              2013-03-05T16:10:39-0500
_audit_creation_method            fapswitch 2.2
_symmetry_space_group_name_H-M    P1
_symmetry_Int_Tables_number       1
_space_group_crystal_system       triclinic
_cell_length_a                    10.045988
_cell_length_b                    10.629045
_cell_length_c                    14.651167
_cell_angle_alpha                 90.095916
_cell_angle_beta                  71.526681
_cell_angle_gamma                 89.821949
_cell_volume                      1483.81417509

loop_
_atom_site_label
_atom_site_type_symbol
_atom_site_description
_atom_site_fract_x
_atom_site_fract_y
_atom_site_fract_z
_atom_type_partial_charge
O1    O     O_R   0.385370 0.683250 0.500010 -0.589086
O2    O     O_R   0.614630 0.316750 0.499990 -0.581567
O3    O     O_R   0.614700 0.683220 0.500000 -0.558361
O4    O     O_R   0.385300 0.316780 0.500000 -0.569224
C1    C     C_R   0.501538 0.739044 0.496611 0.898765
C2    C     C_R   0.499118 0.260943 0.502290 0.919403
O5    O     O_R   0.319830 0.500020 0.632250 -0.525376
O6    O     O_R   0.680170 0.499980 0.367750 -0.546875
O7    O     O_R   0.549160 0.499990 0.632240 -0.597248
O8    O     O_R   0.450840 0.500010 0.367760 -0.605941
C3    C     C_R   0.412665 0.503062 0.678072 0.934615
C4    C     C_R   0.585650 0.502275 0.322559 0.952338
Zn1   Zn    Zn3+2 0.346870 0.500020 0.500000 1.105406
Zn2   Zn    Zn3+2 0.653130 0.499980 0.500000 1.105652
C5    C     C_R   0.362542 0.533288 0.782943 -0.191672
C6    C     C_R   0.626769 0.532994 0.219120 -0.139174
C7    C     C_R   0.186732 0.541426 0.941533 -0.190647
C8    C     C_R   0.788463 0.537288 0.056609 -0.229635
C9    C     C_R   0.230748 0.495250 0.846817 0.314178
C10   C     C_R   0.749303 0.487301 0.150257 0.300876
C11   C     C_R   0.448800 0.608459 0.819526 -0.216760
C12   C     C_R   0.536059 0.611817 0.189673 -0.184491
C13   C     C_R   0.404774 0.653091 0.915304 0.126309
C14   C     C_R   0.569291 0.654835 0.094753 0.121330
C15   C     C_R   0.268665 0.623801 0.975772 0.030757
C16   C     C_R   0.704124 0.626736 0.029815 0.019304
C17   C     C_R   0.499606 0.709075 0.956887 0.028153
C18   C     C_R   0.465390 0.704756 0.057561 0.036116
C19   C     C_R   0.322392 0.717412 0.112522 -0.164952
C20   C     C_R   0.639358 0.734530 0.903686 -0.194905
C21   C     C_R   0.221824 0.670593 0.071638 -0.063300
C22   C     C_R   0.744122 0.680589 0.936652 -0.094774
H1    H     H_    0.436342 0.634641 0.241591 0.176032
H2    H     H_    0.553365 0.627810 0.773536 0.218976
H3    H     H_    0.090543 0.507589 0.990521 0.190856
H4    H     H_    0.876945 0.497796 0.001888 0.179794
C23   C     C_R   0.608333 0.938822 0.425352 -0.047563
C24   C     C_R   0.395061 0.061235 0.573662 -0.059762
C25   C     C_R   0.604796 0.068221 0.431638 -0.104202
C26   C     C_R   0.397351 0.932067 0.566982 -0.123683
H5    H     H_    0.682011 0.123377 0.378357 0.237862
H6    H     H_    0.321447 0.877563 0.621514 0.217452
C27   C     C_R   0.499399 0.128180 0.504111 -0.106055
C28   C     C_R   0.502192 0.871831 0.494119 -0.102177
C29   C     C_R   0.943389 0.396772 0.470165 0.226670
C30   C     C_R   0.057624 0.603434 0.529307 0.259342
C31   C     C_R   0.087010 0.398069 0.467706 0.231313
C32   C     C_R   0.916297 0.604391 0.527121 0.241216
N1    N     N_R   0.142780 0.500030 0.500020 -0.205516
N2    N     N_R   0.857220 0.499970 0.499980 -0.208474
C33   C     C_2   0.070258 0.673224 0.125955 0.956386
O9    O     O_2   0.024049 0.610653 0.199088 -0.548353
O10   O     O_R   0.980910 0.748198 0.092889 -0.746045
H7    H     H_    0.880086 0.745062 0.136413 0.362560
C34   C     C_2   0.889836 0.674567 0.872084 1.012388
O11   O     O_2   0.915058 0.622089 0.794243 -0.536806
O12   O     O_R   0.996007 0.735247 0.897454 -0.727516
H8    H     H_    0.089265 0.733082 0.843965 0.367620
N3    N     N_R   0.824510 0.381913 0.171406 0.251751
O13   O     O_R   0.956366 0.364255 0.123566 -0.307260
O14   O     O_R   0.755548 0.291421 0.225555 -0.353216
N4    N     N_R   0.146002 0.401034 0.821762 0.224534
O15   O     O_R   0.094021 0.419577 0.752181 -0.311336
O16   O     O_R   0.096777 0.308859 0.881097 -0.334512
C35   C     C_2   0.283754 0.793396 0.203326 0.941791
O17   O     O_2   0.168283 0.784363 0.264010 -0.560949
O18   O     O_R   0.382547 0.875790 0.219353 -0.758929
H9    H     H_    0.346277 0.921020 0.283540 0.383188
C36   C     C_2   0.669184 0.829270 0.824609 1.032259
O19   O     O_2   0.788604 0.866792 0.785326 -0.512278
O20   O     O_R   0.558198 0.881035 0.798457 -0.776799
H10   H     H_    0.590736 0.945009 0.744759 0.373664
C37   C     C_2   0.721990 0.879408 0.345889 1.003368
O21   O     O_2   0.704560 0.777248 0.313280 -0.667087
O22   O     O_R   0.849182 0.942810 0.306827 -0.677991
H11   H     H_    0.919304 0.893622 0.253695 0.385155
C38   C     C_2   0.288297 0.121373 0.656376 0.997027
O23   O     O_2   0.316722 0.217006 0.692493 -0.617494
O24   O     O_R   0.156546 0.065592 0.695384 -0.694493
H12   H     H_    0.093031 0.114553 0.752004 0.400935
N5    N     N_R   0.891796 0.286862 0.437152 0.250830
O25   O     O_R   0.854798 0.191109 0.494781 -0.296606
O26   O     O_R   0.921436 0.268998 0.345063 -0.257266
N6    N     N_R   0.109006 0.711433 0.565344 0.263231
O27   O     O_R   0.129003 0.816536 0.517622 -0.282559
O28   O     O_R   0.135727 0.705190 0.646355 -0.344422
N7    N     N_R   0.175228 0.293432 0.426203 0.256611
O29   O     O_R   0.148341 0.182345 0.464669 -0.282572
O30   O     O_R   0.272824 0.306071 0.343700 -0.328933
N8    N     N_R   0.834487 0.715433 0.557216 0.262494
O31   O     O_R   0.864951 0.817904 0.506577 -0.275354
O32   O     O_R   0.731189 0.715456 0.637123 -0.398310

loop_
_geom_bond_atom_site_label_1
_geom_bond_atom_site_label_2
_geom_bond_distance
_ccdc_geom_bond_type
C15   C21   1.420884 A    
C20   C22   1.410324 A    
C34   O11   1.220587 D    
C16   C22   1.417267 A    
C37   O21   1.220847 D    
C8    C16   1.408155 A    
N7    O29   1.300951 A    
N5    O25   1.301250 A    
O12   H8    1.013380 S    
C31   N1    1.372110 A    
O10   H7    1.012233 S    
O5    C3    1.310891 A    
C30   N1    1.372548 A    
O1    C1    1.297570 A    
C18   C19   1.412645 A    
N6    O28   1.298944 A    
C9    N4    1.436849 S    
C29   C31   1.431917 A    
O4    Zn1   1.984384 S    
C36   O20   1.400114 S    
N4    O16   1.301370 A    
C3    C5    1.491496 S    
C4    C6    1.476395 S    
C35   O18   1.399827 S    
O6    Zn2   1.869385 S    
C13   C17   1.415272 A    
C22   C34   1.470877 S    
O6    C4    1.318693 A    
C32   N2    1.376367 A    
N3    O13   1.300293 A    
C32   N8    1.423199 S    
C17   C20   1.400495 A    
C37   O22   1.399133 S    
O2    C2    1.295820 A    
N5    O26   1.299715 A    
C38   O24   1.398798 S    
C30   C32   1.430249 A    
N3    O14   1.301108 A    
O18   H9    1.014160 S    
N6    O27   1.300858 A    
C25   H5    1.084162 S    
C21   C33   1.477926 S    
O7    Zn2   1.887402 S    
C25   C27   1.391319 A    
C11   H2    1.073789 S    
C38   O23   1.220885 D    
C33   O9    1.222688 D    
C33   O10   1.395650 S    
C31   N7    1.429071 S    
C5    C9    1.418305 A    
O22   H11   1.012125 S    
N4    O15   1.299318 A    
N8    O32   1.295213 A    
O5    Zn1   1.869383 S    
C6    C10   1.405942 A    
C10   N3    1.437317 S    
O7    C3    1.322261 A    
Zn1   N1    2.050193 S    
O3    Zn2   1.984384 S    
O8    C4    1.305816 A    
C19   C35   1.496684 S    
O4    C2    1.296504 A    
C1    C28   1.411911 S    
C2    C27   1.411451 S    
C34   O12   1.395155 S    
C12   C14   1.401206 A    
O1    Zn1   1.986781 S    
C20   C36   1.493951 S    
C12   H1    1.075152 S    
C23   C37   1.486126 S    
C6    C12   1.401467 A    
C29   N5    1.424122 S    
C14   C18   1.423364 A    
C14   C16   1.417389 A    
O3    C1    1.295603 A    
O8    Zn1   1.887404 S    
C24   C38   1.482225 S    
C7    C15   1.400148 A    
C23   C28   1.409039 A    
C11   C13   1.411724 A    
C24   C27   1.404838 A    
C19   C21   1.418735 A    
C24   C26   1.375853 A    
N8    O31   1.300491 A    
Zn2   N2    2.050193 S    
C5    C11   1.404922 A    
C29   N2    1.377028 A    
C26   H6    1.083336 S    
C7    C9    1.403438 A    
C30   N6    1.427350 S    
C8    C10   1.407577 A    
C13   C15   1.409726 A    
C36   O19   1.223001 D    
O2    Zn2   1.986781 S    
O24   H12   1.013492 S    
C26   C28   1.392776 A    
O20   H10   1.014089 S    
C23   C25   1.377909 A    
C35   O17   1.221773 D    
C17   C18   1.405295 A    
N7    O30   1.300286 A    
C7    H3    1.068526 S    
C8    H4    1.074254 S    
