data_mof_unit_36963.cif
_audit_creation_date              2013-03-05T16:19:41-0500
_audit_creation_method            fapswitch 2.2
_symmetry_space_group_name_H-M    P1
_symmetry_Int_Tables_number       1
_space_group_crystal_system       triclinic
_cell_length_a                    10.642504
_cell_length_b                    9.849222
_cell_length_c                    26.845401
_cell_angle_alpha                 91.508338
_cell_angle_beta                  88.0289
_cell_angle_gamma                 90.008499
_cell_volume                      2811.30500511

loop_
_atom_site_label
_atom_site_type_symbol
_atom_site_description
_atom_site_fract_x
_atom_site_fract_y
_atom_site_fract_z
_atom_type_partial_charge
O1    O     O_R   0.314910 0.616040 0.499990 -0.630292
O2    O     O_R   0.314910 0.383960 0.499990 -0.648825
C1    C     C_R   0.257962 0.499877 0.500525 0.823753
O3    O     O_R   0.500140 0.616020 0.428740 -0.611090
O4    O     O_R   0.500140 0.383980 0.428740 -0.605974
C2    C     C_R   0.504352 0.498590 0.405593 0.884681
Zn1   Zn    Zn3+2 0.500150 0.654960 0.499980 0.912280
Zn2   Zn    Zn3+2 0.500150 0.345040 0.499980 0.901939
O5    O     O_R   0.685320 0.616040 0.499970 -0.633982
O6    O     O_R   0.685320 0.383960 0.499970 -0.633284
O7    O     O_R   0.500090 0.616050 0.571230 -0.625592
O8    O     O_R   0.500090 0.383950 0.571230 -0.615455
C3    C     C_R   0.741726 0.499740 0.501173 0.838568
C4    C     C_R   0.503113 0.501631 0.594180 0.861255
C5    C     C_R   0.662728 0.620114 0.178610 0.507247
O9    O     O_2   0.624554 0.733397 0.204220 -0.553812
N1    N     N_R   0.666549 0.498192 0.201943 -0.354331
C6    C     C_R   0.704106 0.381889 0.176642 0.505391
C7    C     C_R   0.685757 0.577025 0.288702 -0.085260
C8    C     C_R   0.641686 0.580850 0.337918 -0.222181
C9    C     C_R   0.486639 0.408165 0.318650 -0.222184
C10   C     C_R   0.528181 0.407723 0.268762 -0.085356
C11   C     C_R   0.627830 0.492615 0.253573 0.290811
C12   C     C_R   0.725369 0.507801 0.100366 -0.052106
C13   C     C_R   0.694978 0.627608 0.127795 -0.019278
C14   C     C_R   0.692893 0.751520 0.103739 -0.131539
C15   C     C_R   0.732015 0.384059 0.125240 -0.018372
C16   C     C_R   0.541729 0.497057 0.353025 -0.038267
H1    H     H_    0.410744 0.341529 0.330210 0.164401
H2    H     H_    0.482297 0.342537 0.241852 0.158419
H3    H     H_    0.670951 0.845366 0.124173 0.193818
C17   C     C_R   0.545062 0.505331 0.644798 -0.050432
C18   C     C_R   0.749849 0.638659 0.970769 0.048716
C19   C     C_R   0.757879 0.387876 0.967542 0.047713
C20   C     C_R   0.749488 0.513744 0.943193 0.069620
C21   C     C_R   0.753920 0.761094 0.944363 -0.213084
C22   C     C_R   0.741687 0.760965 0.893061 -0.133327
C23   C     C_R   0.726268 0.638891 0.866366 -0.010843
C24   C     C_R   0.734588 0.514800 0.890963 -0.049825
C25   C     C_R   0.722195 0.391917 0.863632 -0.015222
C26   C     C_R   0.692680 0.395532 0.813270 0.496173
N2    N     N_R   0.680490 0.517342 0.790639 -0.352224
C27   C     C_R   0.699065 0.637829 0.815717 0.489371
C28   C     C_R   0.509858 0.549944 0.732720 0.044651
C29   C     C_R   0.465063 0.545570 0.684538 -0.314945
C30   C     C_R   0.670771 0.473681 0.652374 -0.254488
C31   C     C_R   0.719174 0.482591 0.699988 0.145558
C32   C     C_R   0.637124 0.518645 0.740730 0.254155
O10   O     O_2   0.688471 0.756020 0.791853 -0.567949
C33   C     C_R   0.739469 0.637064 0.023500 0.047595
C34   C     C_R   0.744460 0.511023 0.047905 0.071406
C35   C     C_R   0.762939 0.387410 0.020253 0.047815
C36   C     C_R   0.715759 0.756630 0.052656 -0.214451
H4    H     H_    0.367971 0.570695 0.678043 0.150191
H5    H     H_    0.740583 0.857530 0.874643 0.185512
H6    H     H_    0.765498 0.859184 0.962350 0.133703
H7    H     H_    0.707390 0.855517 0.036888 0.138617
O11   O     O_2   0.713472 0.264477 0.201069 -0.555187
C37   C     C_R   0.764170 0.265220 0.098227 -0.135753
H8    H     H_    0.687551 0.647226 0.364528 0.143459
H9    H     H_    0.763914 0.641252 0.277647 0.157733
H10   H     H_    0.774011 0.169450 0.116676 0.187587
C38   C     C_R   0.752619 0.266271 0.938412 -0.211898
C39   C     C_R   0.734203 0.268570 0.887499 -0.135887
O12   O     O_2   0.673173 0.278537 0.787350 -0.565684
C40   C     C_R   0.779468 0.266596 0.046646 -0.215555
H11   H     H_    0.755590 0.166906 0.954152 0.135097
H12   H     H_    0.731740 0.444817 0.620683 0.120838
H13   H     H_    0.726222 0.172679 0.867123 0.190342
H14   H     H_    0.803870 0.170898 0.028474 0.137018
C41   C     C_3   0.067921 0.607628 0.538003 -0.442226
C42   C     C_3   0.069770 0.358784 0.516553 -0.428237
H15   H     H_    0.101734 0.710636 0.528449 0.183286
H16   H     H_    0.106765 0.274635 0.491742 0.185273
H17   H     H_    0.099759 0.585294 0.575994 0.164164
H18   H     H_    0.100201 0.338125 0.554854 0.174108
C43   C     C_3   0.924405 0.607997 0.538444 -0.396923
C44   C     C_3   0.926871 0.357523 0.516096 -0.394835
H19   H     H_    0.886691 0.587778 0.576713 0.161486
H20   H     H_    0.888059 0.331568 0.553714 0.162138
H21   H     H_    0.891310 0.710730 0.528485 0.180010
H22   H     H_    0.896696 0.276869 0.489203 0.183268
H23   H     H_    0.889565 0.628664 0.436278 0.160141
H24   H     H_    0.890324 0.452112 0.420920 0.161360
C45   C     C_3   0.074153 0.529597 0.445860 0.042600
C46   C     C_3   0.120759 0.499380 0.499629 0.112494
C47   C     C_3   0.877833 0.498611 0.500956 0.152227
C48   C     C_3   0.928150 0.529234 0.447642 -0.448494
C49   C     C_3   0.397966 0.077971 0.468568 -0.254324
C50   C     C_3   0.392253 0.918038 0.472068 -0.221031
H25   H     H_    0.413243 0.105613 0.428879 0.170349
H26   H     H_    0.391547 0.872505 0.433729 0.179443
H27   H     H_    0.305017 0.121854 0.479820 0.145332
H28   H     H_    0.301900 0.887769 0.489652 0.146528
H29   H     H_    0.640250 0.121233 0.440037 0.177172
H30   H     H_    0.615690 0.884797 0.432530 0.167700
C51   C     C_3   0.619309 0.078551 0.477356 -0.293967
C52   C     C_3   0.613759 0.917214 0.472596 -0.297687
C53   C     C_3   0.481568 0.088934 0.550933 0.035993
C54   C     C_3   0.500834 0.928664 0.551431 0.072181
N3    N     N_3   0.499750 0.138610 0.498940 -0.067110
N4    N     N_3   0.499750 0.861390 0.498940 -0.049978
H31   H     H_    0.557858 0.134787 0.573205 0.130352
H32   H     H_    0.599622 0.917816 0.563652 0.076685
H33   H     H_    0.699021 0.108933 0.500955 0.142117
H34   H     H_    0.700251 0.873947 0.487979 0.155529
C55   C     C_3   0.857760 0.454757 0.706075 -0.427210
C56   C     C_3   0.931019 0.587007 0.714507 -0.324605
C57   C     C_3   0.071916 0.560228 0.716228 -0.905262
H35   H     H_    0.091691 0.481878 0.743944 0.277827
H36   H     H_    0.108855 0.525947 0.678836 0.257657
H37   H     H_    0.121024 0.655204 0.727237 0.267183
H38   H     H_    0.913621 0.657823 0.683881 0.224916
H39   H     H_    0.899678 0.636814 0.750282 0.254321
H40   H     H_    0.871119 0.385692 0.737448 0.231077
H41   H     H_    0.898008 0.401513 0.672085 0.196107
C58   C     C_1   0.119209 0.662563 0.428098 0.145256
N5    N     N_1   0.153647 0.766592 0.413962 -0.226690
C59   C     C_1   0.121891 0.425998 0.408995 0.126669
N6    N     N_1   0.159273 0.344823 0.380247 -0.214172
C60   C     C_3   0.353700 0.141720 0.576547 -0.384277
C61   C     C_3   0.357405 0.190993 0.632068 -0.334820
C62   C     C_3   0.254406 0.295395 0.645048 -0.917813
H42   H     H_    0.265404 0.386247 0.621698 0.245108
H43   H     H_    0.160341 0.249936 0.639226 0.256597
H44   H     H_    0.259939 0.327765 0.684844 0.267702
H45   H     H_    0.340156 0.108226 0.658303 0.222571
H46   H     H_    0.450096 0.234875 0.640922 0.245534
H47   H     H_    0.321636 0.227734 0.556377 0.267186
H48   H     H_    0.275914 0.069681 0.571712 0.176776
C63   C     C_3   0.430671 0.865473 0.597956 -0.304694
C64   C     C_3   0.295239 0.809882 0.594073 -0.288063
C65   C     C_3   0.217536 0.831565 0.642563 -0.980327
H49   H     H_    0.269782 0.795640 0.674791 0.275279
H50   H     H_    0.193585 0.940371 0.648559 0.277392
H51   H     H_    0.127980 0.774309 0.640333 0.261486
H52   H     H_    0.243656 0.856468 0.564226 0.194589
H53   H     H_    0.297114 0.699535 0.586481 0.243298
H54   H     H_    0.491117 0.796973 0.618453 0.195871
H55   H     H_    0.432220 0.941946 0.628018 0.168585
C66   C     C_1   0.423699 0.584435 0.773779 0.192126
N7    N     N_1   0.354569 0.612071 0.806700 -0.191805

loop_
_geom_bond_atom_site_label_1
_geom_bond_atom_site_label_2
_geom_bond_distance
_ccdc_geom_bond_type
C44   C47   1.553408 S    
C53   H31   1.113419 S    
C47   C48   1.547938 S    
C26   N2    1.367177 A    
C20   C24   1.416794 A    
C7    C8    1.386278 A    
C12   C15   1.407961 A    
C60   H48   1.099069 S    
C42   H18   1.112387 S    
C51   C52   1.592070 S    
C54   C63   1.575296 S    
C62   H42   1.109853 S    
C40   H14   1.077497 S    
C45   C46   1.577984 S    
Zn1   O7    1.960597 S    
N1    C11   1.434787 S    
C21   C22   1.387778 A    
C57   H36   1.109588 S    
C37   C40   1.389097 A    
O4    C2    1.302827 A    
O7    C4    1.299442 A    
C44   H20   1.113863 S    
C62   H43   1.110866 S    
C64   H53   1.100542 S    
C5    O9    1.350241 S    
C54   H32   1.118033 S    
C18   C21   1.414712 A    
C56   C57   1.525029 S    
N1    C6    1.368846 A    
C19   C20   1.420851 A    
C17   C29   1.391183 A    
C56   H39   1.107911 S    
C61   H45   1.102516 S    
C45   C59   1.480240 S    
O5    C3    1.294978 A    
C50   N4    1.489525 S    
C42   C44   1.521329 S    
C63   H55   1.089847 S    
C6    O11   1.349703 S    
C2    C16   1.452662 S    
C31   C32   1.413783 A    
C28   C66   1.442914 S    
Zn1   N4    2.034109 S    
H30   C52   1.113396 S    
C65   H51   1.109952 S    
C55   C56   1.533655 S    
C8    H8    1.084108 S    
Zn2   N3    2.032638 S    
C53   C60   1.584934 S    
C51   H33   1.112426 S    
C12   C34   1.417165 A    
H23   C48   1.115895 S    
C14   H3    1.083671 S    
C9    C10   1.395729 A    
C1    C46   1.461219 S    
C49   H27   1.108732 S    
O3    Zn1   1.940624 S    
C50   H28   1.101117 S    
C43   H19   1.112894 S    
C38   H11   1.077049 S    
C33   C36   1.414599 A    
C34   C35   1.419323 A    
C12   C13   1.406136 A    
C42   H16   1.112907 S    
C57   H35   1.111057 S    
C57   H37   1.109708 S    
C4    C17   1.444391 S    
C24   C25   1.407269 A    
C41   H15   1.109872 S    
C36   H7    1.077041 S    
C64   C65   1.528191 S    
C62   H44   1.110339 S    
C26   O12   1.350101 S    
C8    C16   1.401760 A    
C18   C33   1.416617 A    
C52   N4    1.495296 S    
C9    H1    1.082947 S    
O1    C1    1.294830 A    
C56   H38   1.112397 S    
C7    C11   1.399701 A    
C30   H12   1.083955 S    
C22   C23   1.395991 A    
C21   H6    1.077596 S    
C41   C46   1.554550 S    
C44   H22   1.114020 S    
C50   H26   1.112064 S    
C53   C54   1.592287 S    
C43   H21   1.113637 S    
Zn2   O8    1.940814 S    
C3    C47   1.448378 S    
C54   N4    1.541680 S    
C33   C34   1.420693 A    
N2    C32   1.432380 S    
C39   H13   1.083690 S    
C45   C58   1.479639 S    
C55   H40   1.109371 S    
C60   C61   1.557093 S    
O3    C2    1.298499 A    
C25   C26   1.399830 A    
C53   N3    1.497453 S    
C9    C16   1.398722 A    
O8    C4    1.299157 A    
C29   H4    1.083558 S    
C31   C55   1.515332 S    
C65   H49   1.110026 S    
C49   H25   1.113173 S    
N2    C27   1.366603 A    
C63   C64   1.547651 S    
C49   C50   1.581520 S    
C14   C36   1.386736 A    
C41   C43   1.527014 S    
C35   C40   1.414883 A    
C28   C29   1.393445 A    
C45   C48   1.552927 S    
Zn1   O5    2.007654 S    
C30   C31   1.395110 A    
C37   H10   1.083591 S    
C10   H2    1.082713 S    
C49   N3    1.493250 S    
O1    Zn1   2.008276 S    
C17   C30   1.396632 A    
C27   O10   1.349995 S    
C6    C15   1.402209 A    
H24   C48   1.115684 S    
C60   H47   1.079021 S    
O6    C3    1.288794 A    
C52   H34   1.111305 S    
O4    Zn2   1.960421 S    
C42   C46   1.560254 S    
C59   N6    1.157402 T    
H29   C51   1.112144 S    
C5    N1    1.370166 A    
C19   C35   1.418069 A    
C25   C39   1.396218 A    
O2    C1    1.292179 A    
C13   C14   1.396234 A    
C23   C27   1.399660 A    
C15   C37   1.396904 A    
C66   N7    1.157195 T    
C41   H17   1.113106 S    
C23   C24   1.408598 A    
C7    H9    1.082984 S    
C19   C38   1.415225 A    
C18   C20   1.419137 A    
C61   H46   1.107704 S    
C55   H41   1.113137 S    
C63   H54   1.102634 S    
C38   C39   1.388185 A    
C22   H5    1.083672 S    
C43   C47   1.547985 S    
C5    C13   1.399022 A    
Zn2   O6    2.007545 S    
O2    Zn2   2.008385 S    
C65   H50   1.107925 S    
C10   C11   1.406409 A    
C64   H52   1.097080 S    
C61   C62   1.528243 S    
C58   N5    1.157128 T    
C51   N3    1.495363 S    
C28   C32   1.414002 A    
