data_mof_unit_27340.cif
_audit_creation_date              2012-12-10T20:42:36-0500
_audit_creation_method            fapswitch 2.2
_symmetry_space_group_name_H-M    P1
_symmetry_Int_Tables_number       1
_space_group_crystal_system       triclinic
_cell_length_a                    8.902914
_cell_length_b                    10.683939
_cell_length_c                    9.894909
_cell_angle_alpha                 89.629834
_cell_angle_beta                  90.353077
_cell_angle_gamma                 90.128153
_cell_volume                      941.146051531

loop_
_atom_site_label
_atom_site_type_symbol
_atom_type_description
_atom_site_fract_x
_atom_site_fract_y
_atom_site_fract_z
_atom_type_partial_charge
C1    C     C_R   0.505068 0.259916 0.500271 0.864664
C2    C     C_R   0.551736 0.936081 0.376984 -0.225828
C3    C     C_R   0.531888 0.871163 0.499230 -0.106427
C4    C     C_R   0.541914 0.934875 0.621216 0.154500
C5    C     C_3   0.446073 0.925618 0.744290 -0.459087
C6    C     C_3   0.445075 0.067335 0.744777 -0.509887
C7    C     C_R   0.371987 0.473543 0.070512 0.209779
C8    C     C_R   0.621134 0.541004 0.073054 -0.264858
C9    C     C_R   0.622982 0.539865 0.928406 0.549901
C10   C     C_R   0.371717 0.474041 0.928531 0.121178
C11   C     C_3   0.280972 0.356880 0.923398 -0.503809
C12   C     C_R   0.218806 0.499884 0.499733 0.933678
C13   C     C_3   0.281588 0.356297 0.077019 -0.484850
C14   C     C_R   0.505609 0.739936 0.499608 0.873155
C15   C     C_R   0.781203 0.500012 0.500284 0.937181
C16   C     C_1   0.065427 0.499852 0.499654 -0.220184
C17   C     C_1   0.934575 0.499903 0.500402 -0.204507
C18   C     C_R   0.541387 0.062694 0.621766 0.133378
C19   C     C_R   0.530837 0.128485 0.500165 -0.101331
C20   C     C_R   0.551225 0.065528 0.377445 -0.226807
H1    H     H_    0.555361 0.114984 0.281568 0.171155
H2    H     H_    0.344257 0.278127 0.879636 0.211193
H3    H     H_    0.168632 0.372290 0.120833 0.201164
H4    H     H_    0.345120 0.276681 0.122124 0.210162
H5    H     H_    0.556041 0.888076 0.280950 0.176168
H6    H     H_    0.333827 0.883833 0.723397 0.203167
H7    H     H_    0.507673 0.884128 0.831739 0.214058
H8    H     H_    0.332144 0.107549 0.723700 0.204114
H9    H     H_    0.506166 0.107363 0.832815 0.202537
H10   H     H_    0.717080 0.575235 0.129138 0.172068
H11   H     H_    0.167788 0.372622 0.878627 0.198191
N1    N     N_R   0.499010 0.499140 0.142800 -0.127288
N2    N     N_R   0.499010 0.499180 0.857150 -0.149298
O1    O     O_R   0.500020 0.316790 0.614690 -0.622972
O2    O     O_R   0.500000 0.316760 0.385350 -0.624308
O3    O     O_R   0.285350 0.500020 0.614650 -0.620808
O4    O     O_R   0.285340 0.499980 0.385310 -0.610185
O5    O     O_R   0.500000 0.683240 0.614650 -0.598494
O6    O     O_R   0.499980 0.683210 0.385310 -0.623063
O7    O     O_R   0.714660 0.500020 0.614690 -0.560142
O8    O     O_R   0.714650 0.499980 0.385350 -0.629578
Zn1   Zn    Zn3+2 0.500010 0.500020 0.653130 0.977464
Zn2   Zn    Zn3+2 0.499990 0.499980 0.346870 0.939297
O9    O     O_3   0.744143 0.588385 0.858335 -0.574984
C21   C     C_3   0.877030 0.524069 0.894541 -0.310448
H12   H     H_    0.963368 0.544426 0.817050 0.202810
H13   H     H_    0.860632 0.420622 0.897122 0.147066
H14   H     H_    0.922220 0.557794 0.992646 0.151116

loop_
_geom_bond_atom_site_label_1
_geom_bond_atom_site_label_2
_ccdc_geom_bond_type
O4    Zn2   S    
C7    C10   A    
C12   O3    A    
O2    Zn2   S    
C11   H2    S    
O3    Zn1   S    
C19   C20   A    
O1    Zn1   S    
C7    C13   S    
C8    H10   S    
O7    Zn1   S    
C2    C3    A    
C11   H11   S    
C21   H12   S    
O9    C21   S    
C9    N2    A    
C4    C5    S    
O8    Zn2   S    
C15   O8    A    
C2    H5    S    
C3    C14   S    
N2    Zn1   S    
N1    Zn2   S    
C1    O1    A    
O5    Zn1   S    
C10   N2    A    
C21   H13   S    
C5    C6    S    
C6    C18   S    
C15   O7    A    
C1    C19   S    
C14   O5    A    
C10   C11   S    
C2    C20   A    
C5    H6    S    
C8    N1    A    
C11   C13   S    
C6    H9    S    
C20   H1    S    
C13   H3    S    
C18   C19   A    
C21   H14   S    
C12   O4    A    
C15   C17   S    
C1    O2    A    
C16   C17   T    
C9    O9    S    
O6    Zn2   S    
C7    N1    A    
C14   O6    A    
C5    H7    S    
C4    C18   A    
C6    H8    S    
C3    C4    A    
C12   C16   S    
C13   H4    S    
C8    C9    A    
