data_mof_unit_21585.cif
_audit_creation_date              2012-12-10T18:47:47-0500
_audit_creation_method            fapswitch 2.2
_symmetry_space_group_name_H-M    P1
_symmetry_Int_Tables_number       1
_space_group_crystal_system       triclinic
_cell_length_a                    9.903786
_cell_length_b                    10.710501
_cell_length_c                    15.448271
_cell_angle_alpha                 90.084934
_cell_angle_beta                  70.30838
_cell_angle_gamma                 89.932914
_cell_volume                      1542.83409405

loop_
_atom_site_label
_atom_site_type_symbol
_atom_type_description
_atom_site_fract_x
_atom_site_fract_y
_atom_site_fract_z
_atom_type_partial_charge
C1    C     C_R   0.499826 0.739912 0.500292 0.845655
C2    C     C_R   0.388053 0.936071 0.483292 -0.165288
C3    C     C_R   0.500480 0.127482 0.499375 -0.016902
C4    C     C_R   0.499966 0.872442 0.500016 -0.024247
C5    C     C_R   0.956743 0.418146 0.446205 0.693414
C6    C     C_R   0.043472 0.582470 0.553284 0.692030
C7    C     C_R   0.100097 0.418093 0.446401 -0.327966
C8    C     C_R   0.899968 0.582129 0.553420 -0.351350
C9    C     C_R   0.411451 0.504411 0.675297 0.924613
C10   C     C_R   0.587726 0.508567 0.325229 0.931078
C11   C     C_R   0.358122 0.530975 0.773960 -0.237947
C12   C     C_R   0.500158 0.260064 0.499744 0.857528
C13   C     C_R   0.632542 0.555777 0.231127 -0.228685
C14   C     C_R   0.170019 0.603039 0.910298 0.386617
C15   C     C_R   0.774978 0.697686 0.112657 0.484024
C16   C     C_R   0.211700 0.557901 0.820146 0.405768
C17   C     C_R   0.752127 0.635457 0.196529 0.397557
C18   C     C_R   0.457592 0.549033 0.819314 -0.353389
C19   C     C_R   0.534208 0.545470 0.184728 -0.353102
C20   C     C_R   0.411131 0.582136 0.912224 0.026464
C21   C     C_R   0.558909 0.603655 0.100557 0.012589
C22   C     C_R   0.263213 0.592693 0.960391 -0.040748
C23   C     C_R   0.309390 0.591824 0.103855 -0.244532
C24   C     C_R   0.688707 0.667643 0.058991 -0.032458
C25   C     C_R   0.507102 0.608488 0.958909 0.120298
C26   C     C_R   0.458050 0.597441 0.055328 0.117799
C27   C     C_3   0.823088 0.762830 0.292605 -0.198194
C28   C     C_3   0.010781 0.471369 0.805569 -0.219976
C29   C     C_3   0.108032 0.804834 0.907017 -0.179299
C30   C     C_3   0.811281 0.907233 0.097278 -0.391527
C31   C     C_R   0.644362 0.658265 0.914022 -0.272946
C32   C     C_R   0.212759 0.600367 0.056338 -0.128284
C33   C     C_R   0.728199 0.697947 0.965359 -0.151251
C34   C     C_R   0.612469 0.935945 0.516016 -0.223007
C35   C     C_R   0.388319 0.063954 0.482954 -0.203459
C36   C     C_R   0.612755 0.063812 0.515661 -0.163552
F1    F     F_    0.918282 0.336099 0.391871 -0.652619
F2    F     F_    0.082467 0.666097 0.606334 -0.628594
H1    H     H_    0.098983 0.606801 0.094290 0.229635
H2    H     H_    0.301074 0.887477 0.470051 0.177281
H3    H     H_    0.176888 0.352471 0.403403 0.186515
H4    H     H_    0.823261 0.647961 0.596250 0.186237
H5    H     H_    0.856001 0.751335 0.354027 0.186827
H6    H     H_    0.708210 0.791924 0.317318 0.108526
H7    H     H_    0.890694 0.837851 0.250240 0.190887
H8    H     H_    0.060514 0.376855 0.797665 0.122517
H9    H     H_    0.938643 0.473446 0.764054 0.182936
H10   H     H_    0.943501 0.488225 0.878424 0.171289
H11   H     H_    0.161729 0.806787 0.831013 0.160793
H12   H     H_    0.825418 0.747538 0.930297 0.222788
H13   H     H_    0.182241 0.839962 0.941890 0.157607
H14   H     H_    0.017551 0.871516 0.922462 0.177798
H15   H     H_    0.893882 0.980312 0.089162 0.198983
H16   H     H_    0.729333 0.919251 0.166824 0.155600
H17   H     H_    0.761586 0.923450 0.043647 0.169844
H18   H     H_    0.439433 0.488279 0.213409 0.196054
H19   H     H_    0.570732 0.534183 0.782844 0.192812
H20   H     H_    0.267325 0.593143 0.178246 0.169560
H21   H     H_    0.681448 0.678406 0.841140 0.164454
H22   H     H_    0.699443 0.887258 0.529300 0.161826
H23   H     H_    0.301476 0.112638 0.469514 0.163566
H24   H     H_    0.699846 0.112366 0.528793 0.176365
N1    N     N_R   0.142780 0.500030 0.500020 -0.154472
N2    N     N_R   0.857220 0.499970 0.499980 -0.150606
O1    O     O_R   0.385370 0.683250 0.500010 -0.574412
O2    O     O_3   0.115674 0.564885 0.772694 -0.524984
O3    O     O_3   0.055949 0.684127 0.939453 -0.585380
O4    O     O_3   0.878897 0.789124 0.086404 -0.565760
O5    O     O_R   0.614630 0.316750 0.499990 -0.579353
O6    O     O_R   0.614700 0.683220 0.500000 -0.646090
O7    O     O_R   0.385300 0.316780 0.500000 -0.637685
O8    O     O_R   0.319830 0.500020 0.632250 -0.525733
O9    O     O_R   0.680170 0.499980 0.367750 -0.520243
O10   O     O_R   0.549160 0.499990 0.632240 -0.636661
O11   O     O_R   0.450840 0.500010 0.367760 -0.638718
O12   O     O_3   0.848690 0.649228 0.243188 -0.587434
Zn1   Zn    Zn3+2 0.346870 0.500020 0.500000 1.007449
Zn2   Zn    Zn3+2 0.653130 0.499980 0.500000 1.003268

loop_
_geom_bond_atom_site_label_1
_geom_bond_atom_site_label_2
_ccdc_geom_bond_type
C19   H18   S    
C2    C35   A    
C23   H20   S    
C21   C26   A    
C28   H9    S    
C25   C31   A    
C5    F1    S    
O6    Zn2   S    
C2    C4    A    
C9    O8    A    
C12   O5    A    
C11   C18   A    
C29   H11   S    
C30   H16   S    
C28   H8    S    
C22   C32   A    
C19   C21   A    
C8    H4    S    
N1    Zn1   S    
C10   O9    A    
C32   H1    S    
C20   C25   A    
C10   O11   A    
C23   C26   A    
C31   H21   S    
C3    C12   S    
C29   O3    S    
C27   H6    S    
C17   O12   S    
C1    O1    A    
C14   O3    S    
C6    F2    S    
C18   C20   A    
C27   H7    S    
C34   H22   S    
O5    Zn2   S    
C36   H24   S    
C30   H15   S    
C4    C34   A    
O1    Zn1   S    
C13   C19   A    
C5    C7    A    
C6    C8    A    
C25   C26   A    
C5    N2    A    
C6    N1    A    
C28   O2    S    
O8    Zn1   S    
C27   H5    S    
C9    C11   S    
C11   C16   A    
C18   H19   S    
C3    C35   A    
O9    Zn2   S    
C31   C33   A    
C35   H23   S    
O11   Zn1   S    
C7    N1    A    
C8    N2    A    
C15   C24   A    
C12   O7    A    
C20   C22   A    
C14   C16   A    
C16   O2    S    
C9    O10   A    
C27   O12   S    
O7    Zn1   S    
C29   H13   S    
C15   C17   A    
C28   H10   S    
N2    Zn2   S    
C24   C33   A    
C10   C13   S    
C30   H17   S    
C1    O6    A    
C13   C17   A    
C1    C4    S    
C23   C32   A    
C14   C22   A    
C33   H12   S    
C3    C36   A    
C15   O4    S    
C34   C36   A    
C7    H3    S    
C2    H2    S    
O10   Zn2   S    
C21   C24   A    
C30   O4    S    
C29   H14   S    
