data_mof_unit_44871.cif
_audit_creation_date              2012-10-26T20:18:18-0400
_audit_creation_method            fapswitch 2.2
_symmetry_space_group_name_H-M    P1
_symmetry_Int_Tables_number       1
_space_group_crystal_system       triclinic
_cell_length_a                    23.543561
_cell_length_b                    8.679711
_cell_length_c                    7.429913
_cell_angle_alpha                 103.079461
_cell_angle_beta                  94.031447
_cell_angle_gamma                 92.383132
_cell_volume                      1472.67894927

loop_
_atom_site_label
_atom_site_type_symbol
_atom_type_description
_atom_site_fract_x
_atom_site_fract_y
_atom_site_fract_z
_atom_type_partial_charge
C1    C     C_R   0.498241 0.199584 0.453112 0.554259
C2    C     C_R   0.705172 0.548418 0.659906 -0.050735
C3    C     C_R   0.245208 0.449809 0.661916 0.307109
C4    C     C_R   0.764205 0.547914 0.670178 0.298158
C5    C     C_R   0.209903 0.500629 0.527294 0.179527
C6    C     C_R   0.791938 0.501623 0.505514 0.175793
C7    C     C_2   0.497343 0.031632 0.426705 -0.148428
C8    C     C_2   0.502511 0.968343 0.573283 -0.143585
C9    C     C_R   0.391176 0.505105 0.503415 0.529953
C10   C     C_R   0.609051 0.495978 0.496427 0.538171
C11   C     C_R   0.884703 0.643204 0.561135 0.422501
C12   C     C_R   0.501703 0.800408 0.546884 0.549114
C13   C     C_R   0.117734 0.357280 0.482613 0.417503
C14   C     C_R   0.878434 0.360246 0.477169 0.410765
C15   C     C_R   0.124275 0.638374 0.596348 0.417895
C16   C     C_R   0.937874 0.356945 0.479710 -0.003241
C17   C     C_R   0.064845 0.641525 0.593718 -0.003271
C18   C     C_R   0.971339 0.500573 0.531340 -0.087434
C19   C     C_R   0.031337 0.498198 0.536523 -0.088161
C20   C     C_R   0.944825 0.646324 0.576858 0.067653
C21   C     C_R   0.057775 0.352946 0.483270 0.068644
C22   C     C_R   0.964151 0.213061 0.430945 -0.098583
C23   C     C_R   0.234358 0.558847 0.384592 0.306715
C24   C     C_R   0.038576 0.785171 0.645004 -0.096516
C25   C     C_R   0.023705 0.209195 0.430345 0.236295
C26   C     C_R   0.978918 0.789619 0.636254 0.234845
C27   C     C_2   0.320354 0.653919 0.249456 0.327137
C28   C     C_2   0.665899 0.356683 0.150091 0.320291
C29   C     C_R   0.759314 0.449968 0.332469 0.303858
C30   C     C_R   0.294202 0.570893 0.381233 0.021815
C31   C     C_R   0.699172 0.436906 0.326647 0.012921
C32   C     C_R   0.328879 0.511557 0.511123 -0.125499
C33   C     C_R   0.671852 0.492332 0.491764 -0.128853
C34   C     C_R   0.303844 0.453041 0.649639 -0.064402
Cu1   Cu    Cu3+1 0.506340 0.517380 0.684380 0.993478
Cu2   Cu    Cu3+1 0.493660 0.482620 0.315620 0.969987
H1    H     H_    0.938318 0.102649 0.390765 0.194349
H2    H     H_    0.983582 0.019550 0.727454 0.326317
H3    H     H_    0.160891 0.570534 0.248557 0.338745
H4    H     H_    0.825102 0.448357 0.185501 0.344880
H5    H     H_    0.362526 0.712901 0.284056 0.104112
H6    H     H_    0.627332 0.284572 0.152128 0.114439
H7    H     H_    0.183322 0.414210 0.812620 0.358890
H8    H     H_    0.832918 0.563065 0.837992 0.348615
H9    H     H_    0.064435 0.895262 0.690108 0.190476
H10   H     H_    0.330180 0.409095 0.750520 0.176720
H11   H     H_    0.685214 0.590855 0.787474 0.207674
H12   H     H_    0.492447 0.959751 0.285552 0.135826
H13   H     H_    0.507397 0.040222 0.714438 0.139079
H14   H     H_    0.454866 0.379674 0.948707 0.242908
H15   H     H_    0.545151 0.620271 0.051287 0.246299
H16   H     H_    0.018971 0.978758 0.344490 0.326639
N1    N     N_R   0.853168 0.501769 0.514451 -0.449707
N2    N     N_R   0.149215 0.498340 0.537980 -0.451696
N3    N     N_2   0.484110 0.456420 0.038520 -0.258628
N4    N     N_2   0.515890 0.543580 0.961480 -0.252881
O1    O     O_R   0.504120 0.286130 0.619770 -0.501468
O2    O     O_2   0.144682 0.222733 0.426043 -0.361346
O3    O     O_2   0.845914 0.223146 0.436642 -0.412384
O4    O     O_2   0.157082 0.774371 0.654192 -0.408526
O5    O     O_3   0.048912 0.066439 0.379003 -0.623250
O6    O     O_3   0.953638 0.932276 0.687357 -0.625964
O7    O     O_3   0.201038 0.609723 0.250783 -0.582862
O8    O     O_3   0.785009 0.405349 0.168180 -0.576020
O9    O     O_2   0.295255 0.658603 0.101504 -0.403298
O10   O     O_2   0.681410 0.368395 0.000174 -0.434146
O11   O     O_3   0.224404 0.395871 0.807285 -0.603878
O12   O     O_R   0.495880 0.713870 0.380230 -0.512629
O13   O     O_3   0.792948 0.593314 0.844205 -0.611390
O14   O     O_R   0.493410 0.256770 0.308360 -0.498240
O15   O     O_R   0.506590 0.743230 0.691640 -0.493147
O16   O     O_R   0.423230 0.514630 0.655730 -0.498943
O17   O     O_R   0.576770 0.485370 0.344270 -0.519318
O18   O     O_R   0.412530 0.485280 0.344320 -0.502878
O19   O     O_R   0.587470 0.514720 0.655680 -0.480153
O20   O     O_2   0.857614 0.779540 0.591935 -0.358895

loop_
_geom_bond_atom_site_label_1
_geom_bond_atom_site_label_2
_ccdc_geom_bond_type
N3    N4    D    
C15   O4    S    
C28   O10   D    
Cu1   Cu2   S    
C9    O16   A    
C7    C8    D    
C14   O3    S    
C12   O12   A    
Cu1   O19   S    
C24   H9    S    
C19   C21   A    
C24   C26   A    
C18   C19   A    
H16   O5    S    
C10   O17   A    
H15   N4    S    
C9    C32   S    
C22   C25   A    
C31   C33   A    
C34   H10   S    
C11   N1    A    
C23   O7    S    
C29   O8    S    
Cu1   O15   S    
C27   C30   S    
C4    O13   S    
Cu2   O14   S    
C11   C20   A    
C17   C24   A    
C23   C30   A    
C5    N2    S    
C4    C6    A    
C11   O20   S    
C13   O2    S    
C3    C34   A    
C22   H1    S    
C32   C34   A    
C2    C4    A    
C15   N2    A    
C27   O9    D    
C1    O1    A    
C10   O19   A    
C27   H5    S    
C5    C23   A    
C8    C12   S    
C6    C29   A    
C13   C21   A    
H8    O13   S    
C25   O5    S    
Cu2   O18   S    
C2    C33   A    
C16   C18   A    
C12   O15   A    
Cu1   O16   S    
C14   C16   A    
C9    O18   A    
C6    N1    S    
C13   N2    A    
C15   C17   A    
C21   C25   A    
C16   C22   A    
Cu1   N4    S    
C1    C7    S    
C28   C31   S    
C3    O11   S    
H14   N3    S    
C3    C5    A    
Cu2   O12   S    
C2    H11   S    
H3    O7    S    
C1    O14   A    
H4    O8    S    
Cu1   O1    S    
C7    H12   S    
C26   O6    S    
C29   C31   A    
Cu2   N3    S    
C30   C32   A    
C20   C26   A    
C28   H6    S    
C17   C19   A    
C10   C33   S    
C18   C20   A    
Cu2   O17   S    
C14   N1    A    
H7    O11   S    
C8    H13   S    
H2    O6    S    
