data_mof_unit_47010.cif
_audit_creation_date              2012-12-10T17:22:39-0500
_audit_creation_method            fapswitch 2.2
_symmetry_space_group_name_H-M    P1
_symmetry_Int_Tables_number       1
_space_group_crystal_system       triclinic
_cell_length_a                    10.643037
_cell_length_b                    10.869713
_cell_length_c                    9.61638
_cell_angle_alpha                 91.024332
_cell_angle_beta                  88.878599
_cell_angle_gamma                 95.431655
_cell_volume                      1107.13691974

loop_
_atom_site_label
_atom_site_type_symbol
_atom_type_description
_atom_site_fract_x
_atom_site_fract_y
_atom_site_fract_z
_atom_type_partial_charge
C1    C     C_R   0.488778 0.261653 0.499719 0.825699
C2    C     C_3   0.963965 0.521925 0.366606 -0.174800
C3    C     C_3   0.035299 0.416635 0.423130 -0.154790
C4    C     C_3   0.123159 0.513029 0.501973 -0.023346
C5    C     C_R   0.314384 0.104104 0.696205 0.095082
C6    C     C_R   0.261540 0.035495 0.807696 -0.156708
C7    C     C_R   0.270161 0.909533 0.810084 0.199465
C8    C     C_R   0.334291 0.853506 0.703649 -0.163638
C9    C     C_R   0.407448 0.924591 0.603508 0.070013
C10   C     C_R   0.400363 0.054196 0.601141 0.083281
C11   C     C_R   0.473037 0.125623 0.498752 -0.087346
C12   C     C_R   0.260240 0.507426 0.500956 0.832239
C13   C     C_R   0.541533 0.066080 0.396618 -0.179170
C14   C     C_R   0.545811 0.939558 0.397857 -0.151192
C15   C     C_R   0.482630 0.868857 0.502070 -0.041473
C16   C     C_R   0.693735 0.640282 0.141941 -0.150780
C17   C     C_R   0.803803 0.678598 0.067870 -0.217276
C18   C     C_R   0.803720 0.672905 0.923365 -0.192659
C19   C     C_R   0.687465 0.652418 0.858079 0.196153
C20   C     C_R   0.591328 0.574646 0.925343 0.169063
C21   C     C_R   0.592863 0.571877 0.074370 0.203679
C22   C     C_R   0.411474 0.430466 0.074367 -0.023987
C23   C     C_R   0.495826 0.736801 0.500842 0.787428
C24   C     C_R   0.411980 0.429941 0.926570 -0.033269
C25   C     C_R   0.740710 0.505061 0.498869 0.797214
C26   C     C_3   0.036492 0.503726 0.631643 -0.137773
C27   C     C_3   0.947330 0.406723 0.553044 -0.115739
C28   C     C_3   0.877969 0.511515 0.496572 -0.036402
C29   C     C_3   0.964753 0.608820 0.574866 -0.198195
C30   C     C_3   0.053397 0.617934 0.445673 0.173184
Cu1   Cu    Cu3+1 0.499990 0.499990 0.640660 0.976370
Cu2   Cu    Cu3+1 0.500010 0.500010 0.359340 0.968887
H1    H     H_    0.900703 0.319766 0.596676 0.166438
H2    H     H_    0.322282 0.754141 0.700987 0.186988
H3    H     H_    0.602636 0.897017 0.319123 0.160360
H4    H     H_    0.339089 0.373140 0.129732 0.141291
H5    H     H_    0.691059 0.665623 0.249724 0.192611
H6    H     H_    0.885522 0.721334 0.121638 0.204645
H7    H     H_    0.884291 0.718166 0.868278 0.186953
H8    H     H_    0.340034 0.372264 0.872174 0.158267
H9    H     H_    0.067913 0.496804 0.740412 0.178833
H10   H     H_    0.933125 0.689286 0.633573 0.161771
H11   H     H_    0.932662 0.528710 0.257934 0.165963
H12   H     H_    0.066143 0.337815 0.360396 0.170062
H13   H     H_    0.596505 0.118420 0.317839 0.166846
H14   H     H_    0.197745 0.075743 0.880819 0.178586
N1    N     N_R   0.501210 0.501210 0.147910 -0.195190
N2    N     N_R   0.501250 0.501290 0.852040 -0.198628
O1    O     O_R   0.499990 0.319640 0.618810 -0.560599
O2    O     O_R   0.500000 0.319660 0.381240 -0.576338
O3    O     O_R   0.316850 0.499960 0.618770 -0.578638
O4    O     O_R   0.316860 0.499980 0.381190 -0.566582
O5    O     O_R   0.500000 0.680340 0.618760 -0.576811
O6    O     O_R   0.500010 0.680360 0.381190 -0.586097
O7    O     O_R   0.683140 0.500020 0.618810 -0.576306
O8    O     O_R   0.683150 0.500040 0.381230 -0.604915
I1    I     I_    0.169089 0.799346 0.960150 -0.380860
I2    I     I_    0.649159 0.837260 0.820691 -0.367959
I3    I     I_    0.137983 0.789889 0.369625 -0.348037
I4    I     I_    0.192110 0.228893 0.633590 -0.441868

loop_
_geom_bond_atom_site_label_1
_geom_bond_atom_site_label_2
_ccdc_geom_bond_type
C4    C26   S    
C18   H7    S    
C16   C21   A    
C29   H10   S    
C4    C12   S    
C22   H4    S    
C9    C10   A    
C16   H5    S    
Cu1   Cu2   S    
C1    C11   S    
C25   O8    A    
C2    H11   S    
C2    C30   S    
Cu1   O7    S    
C30   I3    S    
C20   C21   A    
C19   C20   A    
C15   C23   S    
C22   N1    A    
C9    C15   A    
C4    C30   S    
C5    C10   A    
C8    H2    S    
C13   C14   A    
C27   H1    S    
C25   C28   S    
C13   H13   S    
C11   C13   A    
Cu2   O2    S    
C26   C27   S    
C29   C30   S    
Cu1   O1    S    
C3    C27   S    
C28   C29   S    
C24   H8    S    
C7    I1    S    
C23   O5    A    
C6    C7    A    
C2    C3    S    
Cu1   N2    S    
C19   I2    S    
C6    H14   S    
C5    C6    A    
Cu2   N1    S    
C22   C24   A    
C3    H12   S    
C16   C17   A    
C10   C11   A    
C3    C4    S    
C24   N2    A    
C7    C8    A    
C12   O3    A    
C17   H6    S    
C23   O6    A    
C17   C18   A    
C18   C19   A    
C1    O2    A    
Cu2   O6    S    
C14   H3    S    
C21   N1    A    
C26   C29   S    
Cu2   O4    S    
C2    C28   S    
C20   N2    A    
C5    I4    S    
C12   O4    A    
C14   C15   A    
C1    O1    A    
Cu2   O8    S    
Cu1   O5    S    
C25   O7    A    
C26   H9    S    
Cu1   O3    S    
C8    C9    A    
C27   C28   S    
