data_mof_unit_32547.cif
_audit_creation_date              2012-12-11T16:22:22-0500
_audit_creation_method            fapswitch 2.2
_symmetry_space_group_name_H-M    P1
_symmetry_Int_Tables_number       1
_space_group_crystal_system       triclinic
_cell_length_a                    19.604478
_cell_length_b                    6.932112
_cell_length_c                    17.779599
_cell_angle_alpha                 89.806724
_cell_angle_beta                  108.06151
_cell_angle_gamma                 90.231187
_cell_volume                      2297.16799583

loop_
_atom_site_label
_atom_site_type_symbol
_atom_type_description
_atom_site_fract_x
_atom_site_fract_y
_atom_site_fract_z
_atom_type_partial_charge
O1    O     O_R   0.561700 0.369960 0.440190 -0.534524
O2    O     O_R   0.061700 0.630040 0.940190 -0.537527
O3    O     O_R   0.413790 0.033680 0.407460 -0.542945
O4    O     O_R   0.913790 0.966320 0.907460 -0.535258
O5    O     O_R   0.438300 0.869760 0.559810 -0.534080
O6    O     O_R   0.938300 0.130240 0.059810 -0.541383
C1    C     C_R   0.386724 0.203787 0.384717 0.745325
C2    C     C_R   0.886682 0.796102 0.884760 0.758772
O7    O     O_R   0.559630 0.039830 0.430710 -0.553883
O8    O     O_R   0.059630 0.960170 0.930710 -0.551322
O9    O     O_R   0.585190 0.875950 0.583220 -0.536578
O10   O     O_R   0.085190 0.124050 0.083220 -0.539453
C3    C     C_R   0.578890 0.209303 0.413207 0.681932
C4    C     C_R   0.080230 0.792295 0.914092 0.698533
O11   O     O_R   0.414810 0.363770 0.416780 -0.542147
O12   O     O_R   0.914810 0.636230 0.916780 -0.540591
O13   O     O_3   0.508210 0.205480 0.550010 -0.365849
O14   O     O_3   0.008210 0.794520 0.050010 -0.374889
V1    V     V_3+5 0.498480 0.928140 0.490720 1.417921
V2    V     V_3+5 0.998480 0.071860 0.990720 1.427978
O15   O     O_R   0.586210 0.546600 0.592540 -0.545589
O16   O     O_R   0.086210 0.453400 0.092540 -0.545742
C5    C     C_R   0.613517 0.716045 0.615403 0.742325
C6    C     C_R   0.113551 0.284075 0.115359 0.736928
O17   O     O_R   0.440370 0.540460 0.569290 -0.537957
O18   O     O_R   0.940370 0.459540 0.069290 -0.544592
C7    C     C_R   0.419152 0.708436 0.584304 0.693032
C8    C     C_R   0.918951 0.290582 0.084724 0.692659
V3    V     V_3+5 0.501520 0.428910 0.509280 1.431137
V4    V     V_3+5 0.001520 0.571090 0.009280 1.415082
O19   O     O_3   0.491790 0.701440 0.449990 -0.374999
O20   O     O_3   0.991790 0.298560 0.949990 -0.368130
C9    C     C_R   0.253426 0.799062 0.644401 -0.058662
C10   C     C_R   0.804433 0.092250 0.205835 -0.088856
H1    H     H_    0.199874 0.854820 0.617213 0.104964
H2    H     H_    0.792470 0.953191 0.226802 0.084361
C11   C     C_R   0.300654 0.791265 0.599463 -0.151864
C12   C     C_R   0.852607 0.102214 0.161889 -0.146812
H3    H     H_    0.282957 0.842012 0.538803 0.101072
H4    H     H_    0.876458 0.969920 0.149838 0.116928
C13   C     C_R   0.369819 0.716091 0.632163 -0.045309
C14   C     C_R   0.869565 0.280490 0.133773 -0.058143
C15   C     C_R   0.390941 0.646864 0.710234 -0.133932
C16   C     C_R   0.837748 0.448740 0.151880 -0.156110
H5    H     H_    0.444000 0.586732 0.736196 0.115595
H6    H     H_    0.849479 0.588542 0.131399 0.121549
C17   C     C_R   0.344537 0.660906 0.756215 -0.072030
C18   C     C_R   0.789113 0.438358 0.195296 -0.113590
H7    H     H_    0.363045 0.613065 0.817214 0.125067
H8    H     H_    0.764477 0.569641 0.207124 0.101913
C19   C     C_R   0.275597 0.740604 0.724267 0.125877
C20   C     C_R   0.771078 0.259723 0.221644 0.137711
C21   C     C_R   0.217815 0.609669 0.820939 -0.173418
C22   C     C_R   0.730627 0.354906 0.335657 -0.174617
H9    H     H_    0.247378 0.477228 0.823054 0.148321
H10   H     H_    0.777668 0.446578 0.355560 0.121599
C23   C     C_R   0.170781 0.621724 0.865717 -0.151285
C24   C     C_R   0.685154 0.340593 0.382179 -0.152192
H11   H     H_    0.167217 0.499946 0.902574 0.117463
H12   H     H_    0.697961 0.422606 0.436594 0.120077
C25   C     C_R   0.129227 0.787237 0.863746 -0.100229
C26   C     C_R   0.624782 0.219622 0.360379 -0.105486
C27   C     C_R   0.136723 0.945250 0.815136 -0.072021
C28   C     C_R   0.608150 0.116963 0.287727 -0.078883
C29   C     C_R   0.188351 0.937990 0.773845 0.009325
C30   C     C_R   0.655017 0.130423 0.240371 -0.007095
C31   C     C_R   0.227037 0.764772 0.774085 0.052437
C32   C     C_R   0.717502 0.248454 0.265684 0.026375
C33   C     C_2   0.713004 0.897090 0.710421 -0.114242
C34   C     C_2   0.213055 0.103139 0.210152 -0.114650
C35   C     C_2   0.680413 0.726911 0.683342 -0.308590
C36   C     C_2   0.180499 0.273262 0.183259 -0.308724
H13   H     H_    0.689019 0.030064 0.681978 0.139302
H14   H     H_    0.189018 0.970303 0.181570 0.138537
H15   H     H_    0.702247 0.591529 0.710700 0.128270
H16   H     H_    0.202388 0.408508 0.210735 0.126443
C37   C     C_2   0.780412 0.921018 0.778083 -0.123558
C38   C     C_2   0.280452 0.078948 0.277797 -0.128280
C39   C     C_2   0.820314 0.773620 0.817188 -0.291963
C40   C     C_2   0.320410 0.226239 0.317085 -0.291064
H17   H     H_    0.797637 0.067726 0.795633 0.137551
H18   H     H_    0.297596 0.932195 0.295194 0.132790
H19   H     H_    0.804252 0.626461 0.800082 0.133497
H20   H     H_    0.304412 0.373425 0.300086 0.132098
C41   C     C_2   0.091095 0.118897 0.806721 0.336436
H21   H     H_    0.096718 0.213312 0.856730 0.072233
O21   O     O_2   0.046812 0.157107 0.743244 -0.529395
C42   C     C_2   0.539192 0.008571 0.258690 0.309321
H22   H     H_    0.520310 0.919529 0.298285 0.085697
O22   O     O_2   0.501530 0.021820 0.189853 -0.513799
C43   C     C_2   0.205130 0.117276 0.736199 0.294107
H23   H     H_    0.163871 0.223188 0.710641 0.104863
O23   O     O_2   0.266253 0.152778 0.736396 -0.526585
C44   C     C_2   0.638222 0.019967 0.165105 0.430912
H24   H     H_    0.612860 0.879198 0.160425 0.075993
O24   O     O_2   0.650510 0.087109 0.107032 -0.511488

loop_
_geom_bond_atom_site_label_1
_geom_bond_atom_site_label_2
_ccdc_geom_bond_type
C24   C26   A    
C30   C32   A    
C27   C29   A    
C34   C38   S    
O13   V3    S    
C33   C37   S    
C36   H16   S    
V1    O19   S    
C17   H7    S    
C41   H21   S    
O9    V1    S    
C12   H4    S    
C12   C14   A    
O3    C1    A    
C22   C24   A    
C38   C40   D    
C23   H11   S    
C22   C32   A    
O12   V4    S    
C25   C27   A    
C8    C14   S    
C33   C35   D    
C7    C13   S    
O7    C3    A    
O13   V1    S    
O5    C7    A    
O7    V1    S    
O6    C8    A    
C3    C26   S    
O8    V2    S    
C29   C31   A    
C34   H14   S    
C2    C39   S    
C26   C28   A    
C33   H13   S    
O14   V4    S    
C10   H2    S    
C20   C32   S    
O4    C2    A    
C30   C44   S    
C18   H8    S    
C2    O12   A    
C27   C41   S    
C13   C15   A    
C14   C16   A    
C21   C31   A    
C16   H6    S    
O11   V3    S    
C24   H12   S    
C21   H9    S    
O17   V3    S    
C22   H10   S    
C35   H15   S    
C41   O21   D    
C40   H20   S    
C5    C35   S    
O8    C4    A    
C43   H23   S    
C21   C23   A    
C17   C19   A    
C1    O11   A    
C4    C25   S    
O15   V3    S    
C9    C11   A    
C9    C19   A    
C28   C30   A    
C44   O24   D    
C43   O23   D    
C38   H18   S    
C37   H17   S    
O10   V2    S    
O1    V3    S    
C37   C39   D    
C19   C31   S    
O3    V1    S    
C15   H5    S    
C42   O22   D    
O18   V4    S    
O15   C5    A    
O16   C6    A    
O1    C3    A    
C6    C36   S    
V2    O20   S    
C29   C43   S    
O16   V4    S    
C10   C12   A    
C10   C20   A    
C23   C25   A    
O5    V1    S    
O4    V2    S    
O17   C7    A    
O6    V2    S    
O10   C6    A    
O18   C8    A    
O2    V4    S    
V3    O19   S    
V4    O20   S    
O9    C5    A    
C9    H1    S    
O14   V2    S    
C11   C13   A    
C44   H24   S    
O2    C4    A    
C39   H19   S    
C18   C20   A    
C42   H22   S    
C11   H3    S    
C34   C36   D    
C15   C17   A    
C28   C42   S    
C16   C18   A    
C1    C40   S    
