data_mof_unit_38787.cif
_audit_creation_date              2013-03-05T16:30:28-0500
_audit_creation_method            fapswitch 2.2
_symmetry_space_group_name_H-M    P1
_symmetry_Int_Tables_number       1
_space_group_crystal_system       triclinic
_cell_length_a                    8.555214
_cell_length_b                    14.884058
_cell_length_c                    14.324233
_cell_angle_alpha                 89.152869
_cell_angle_beta                  97.854351
_cell_angle_gamma                 93.465378
_cell_volume                      1803.54018588

loop_
_atom_site_label
_atom_site_type_symbol
_atom_site_description
_atom_site_fract_x
_atom_site_fract_y
_atom_site_fract_z
_atom_type_partial_charge
O1    O     O_R   0.500010 0.369070 0.579480 -0.549304
O2    O     O_R   0.499990 0.630930 0.420520 -0.564813
O3    O     O_R   0.500010 0.369060 0.420520 -0.598892
O4    O     O_R   0.499990 0.630940 0.579480 -0.591226
C1    C     C_R   0.498964 0.328370 0.500435 0.906793
C2    C     C_R   0.495737 0.672235 0.499142 0.964907
O5    O     O_R   0.271750 0.500000 0.560890 -0.582973
O6    O     O_R   0.728250 0.500000 0.439110 -0.570946
O7    O     O_R   0.271750 0.499990 0.401930 -0.570671
O8    O     O_R   0.728250 0.500010 0.598070 -0.596183
C3    C     C_R   0.201495 0.498014 0.475630 0.967297
C4    C     C_R   0.798333 0.499719 0.524517 0.972236
Zn1   Zn    Zn3+2 0.500000 0.500010 0.606140 1.078063
Zn2   Zn    Zn3+2 0.500000 0.499990 0.393860 1.086816
C5    C     C_2   0.036214 0.491428 0.463157 -0.281797
C6    C     C_2   0.963416 0.501516 0.537822 -0.336686
H1    H     H_    0.974642 0.477428 0.392988 0.235325
H2    H     H_    0.024733 0.513335 0.608670 0.214531
C7    C     C_R   0.597201 0.092369 0.541225 0.440048
C8    C     C_R   0.494685 0.910431 0.416806 0.432312
C9    C     C_R   0.609904 0.185170 0.543176 -0.158340
C10   C     C_R   0.508005 0.818442 0.417682 -0.168984
H3    H     H_    0.717922 0.220103 0.575997 0.186263
H4    H     H_    0.545644 0.786995 0.357466 0.236420
C11   C     C_R   0.484770 0.232915 0.500278 -0.139412
C12   C     C_R   0.478029 0.768035 0.496980 -0.193279
C13   C     C_R   0.345058 0.190016 0.456693 -0.218637
C14   C     C_R   0.427349 0.808973 0.574046 -0.189891
H5    H     H_    0.249937 0.229517 0.423758 0.211412
H6    H     H_    0.401236 0.769320 0.634580 0.234817
C15   C     C_R   0.327799 0.096876 0.456355 0.481473
C16   C     C_R   0.411131 0.900950 0.573965 0.453634
C17   C     C_R   0.455733 0.048281 0.498591 -0.101404
C18   C     C_R   0.447689 0.951622 0.495195 -0.081926
C19   C     C_R   0.368977 0.464036 0.095506 -0.251189
C20   C     C_R   0.538779 0.575974 0.898735 -0.242741
H7    H     H_    0.264139 0.436791 0.051689 0.234546
H8    H     H_    0.574473 0.637120 0.938099 0.234461
C21   C     C_R   0.377625 0.457687 0.194430 0.486264
C22   C     C_R   0.554640 0.573738 0.802002 0.452633
N1    N     N_R   0.500000 0.499980 0.252470 -0.206549
N2    N     N_R   0.500000 0.500020 0.747530 -0.197435
C23   C     C_R   0.627556 0.539321 0.211204 0.311938
C24   C     C_R   0.444596 0.423080 0.794193 0.312762
C25   C     C_R   0.637197 0.525020 0.113423 0.325133
C26   C     C_R   0.467154 0.417850 0.895144 0.292822
C27   C     C_R   0.499225 0.498174 0.053175 -0.039888
C28   C     C_R   0.494964 0.497754 0.947135 -0.020991
Cl1   Cl    Cl    0.762233 0.033344 0.589961 -0.413256
Cl2   Cl    Cl    0.546789 0.972883 0.318906 -0.463090
S1    S     S_3+6 0.148027 0.044393 0.400798 0.114841
O9    O     O_2   0.169151 0.018340 0.302551 -0.192849
O10   O     O_2   0.102178 0.961525 0.454343 -0.245184
O11   O     O_3   0.002895 0.116499 0.395167 -0.519200
H9    H     H_    0.906788 0.082040 0.365218 0.420668
S2    S     S_3+6 0.353199 0.950428 0.674913 0.126682
O12   O     O_2   0.497515 0.991561 0.734221 -0.186731
O13   O     O_2   0.239963 0.022453 0.646445 -0.208339
O14   O     O_3   0.265645 0.871434 0.738797 -0.511378
H10   H     H_    0.239728 0.903880 0.794062 0.421106
Cl3   Cl    Cl    0.231844 0.389624 0.240603 -0.452359
Cl4   Cl    Cl    0.658200 0.666272 0.757344 -0.485284
S3    S     S_3+6 0.769148 0.624768 0.265554 0.103658
O15   O     O_2   0.934115 0.595478 0.266692 -0.236611
O16   O     O_2   0.751575 0.706680 0.203178 -0.227204
O17   O     O_3   0.758939 0.658987 0.374845 -0.547545
H11   H     H_    0.842241 0.708180 0.387240 0.384553
S4    S     S_3+6 0.329489 0.329704 0.735909 0.125585
O18   O     O_2   0.437882 0.258871 0.715433 -0.217218
O19   O     O_2   0.218903 0.289107 0.800055 -0.195574
O20   O     O_3   0.214561 0.355131 0.636249 -0.554141
H12   H     H_    0.170395 0.296488 0.609511 0.378762
S5    S     S_3+6 0.824879 0.526972 0.070086 0.124599
O21   O     O_2   0.888563 0.622575 0.061069 -0.203452
O22   O     O_2   0.937789 0.476855 0.138317 -0.199883
O23   O     O_3   0.816275 0.476435 0.965087 -0.521056
H13   H     H_    0.925469 0.483020 0.949119 0.389627
S6    S     S_3+6 0.485417 0.312353 0.957405 0.149663
O24   O     O_2   0.328616 0.280887 0.986287 -0.221697
O25   O     O_2   0.540049 0.241653 0.897652 -0.140585
O26   O     O_3   0.618850 0.323873 0.054904 -0.499895
H14   H     H_    0.603597 0.268122 0.092014 0.404038

loop_
_geom_bond_atom_site_label_1
_geom_bond_atom_site_label_2
_geom_bond_distance
_ccdc_geom_bond_type
S3    O16   1.503510 D    
C13   H5    1.084066 S    
N1    C23   1.404269 A    
S5    O21   1.502792 D    
C19   C27   1.405210 A    
O26   H14   0.990460 S    
C23   S3    1.810031 S    
C21   N1    1.371664 A    
O5    C3    1.285292 A    
O1    C1    1.290700 A    
C7    C9    1.379359 A    
S6    O25   1.501277 D    
C5    C6    1.323793 D    
C22   Cl4   1.752830 S    
S2    O12   1.502748 D    
C25   S5    1.797387 S    
O4    Zn1   1.980287 S    
C8    Cl2   1.763963 S    
C3    C5    1.398452 S    
C4    C6    1.397748 S    
S4    O18   1.503037 D    
C15   C17   1.410289 A    
C8    C18   1.404244 A    
C22   N2    1.376535 A    
O17   H11   0.990817 S    
S3    O17   1.668581 S    
O14   H10   0.990580 S    
S5    O22   1.500755 D    
O2    C2    1.296909 A    
N2    C24   1.407556 A    
Zn1   N2    2.025307 S    
C24   C26   1.434070 A    
C25   C27   1.404459 A    
C21   Cl3   1.752749 S    
C26   C28   1.403290 A    
C13   C15   1.385243 A    
S1    O9    1.502556 D    
C20   C22   1.411655 A    
O23   H13   0.990600 S    
O4    C2    1.293737 A    
C7    C17   1.407903 A    
C26   S6    1.798775 S    
S6    O24   1.503338 D    
S1    O10   1.503062 D    
C16   C18   1.408026 A    
C19   C21   1.410866 A    
O7    Zn2   1.971853 S    
O7    C3    1.283344 A    
C7    Cl1   1.764938 S    
C27   C28   1.514480 S    
C14   C16   1.384297 A    
O6    C4    1.286801 A    
C17   C18   1.437378 S    
C23   C25   1.434016 A    
O3    Zn2   1.980287 S    
O8    C4    1.281668 A    
Zn2   N1    2.025307 S    
C1    C11   1.418614 S    
C6    H2    1.088417 S    
C8    C10   1.380483 A    
C9    H3    1.084323 S    
S5    O23   1.682204 S    
C10   H4    1.082972 S    
C24   S4    1.800692 S    
O1    Zn1   1.991521 S    
C5    H1    1.085996 S    
C9    C11   1.388500 A    
O11   H9    0.991086 S    
O6    Zn2   1.971625 S    
C19   H7    1.082831 S    
C15   S1    1.774135 S    
O3    C1    1.287988 A    
O8    Zn1   1.971851 S    
C11   C13   1.393450 A    
C12   C14   1.400186 A    
S2    O14   1.682233 S    
S1    O11   1.682595 S    
C14   H6    1.082575 S    
O20   H12   0.990850 S    
S6    O26   1.682469 S    
C2    C12   1.442440 S    
S4    O20   1.671319 S    
C20   H8    1.083506 S    
S2    O13   1.502885 D    
C20   C28   1.403920 A    
O2    Zn2   1.991521 S    
S3    O15   1.500023 D    
O5    Zn1   1.971627 S    
S4    O19   1.502176 D    
C10   C12   1.396431 A    
C16   S2    1.774929 S    
