data_mof_unit_7962.cif
_audit_creation_date              2013-03-05T15:57:36-0500
_audit_creation_method            fapswitch 2.2
_symmetry_space_group_name_H-M    P1
_symmetry_Int_Tables_number       1
_space_group_crystal_system       triclinic
_cell_length_a                    15.04252
_cell_length_b                    13.706143
_cell_length_c                    11.702889
_cell_angle_alpha                 89.816444
_cell_angle_beta                  89.779549
_cell_angle_gamma                 89.991959
_cell_volume                      2412.81206122

loop_
_atom_site_label
_atom_site_type_symbol
_atom_site_description
_atom_site_fract_x
_atom_site_fract_y
_atom_site_fract_z
_atom_type_partial_charge
O1    O     O_R   0.370260 0.582280 0.500020 -0.562801
O2    O     O_R   0.629740 0.417720 0.499980 -0.549487
O3    O     O_R   0.629740 0.582280 0.499980 -0.590699
O4    O     O_R   0.370260 0.417720 0.500020 -0.583247
C1    C     C_R   0.328971 0.500024 0.502438 0.872199
C2    C     C_R   0.671184 0.500053 0.497661 0.865543
O5    O     O_R   0.500010 0.582270 0.337200 -0.594166
O6    O     O_R   0.499990 0.417730 0.662800 -0.589464
O7    O     O_R   0.499990 0.582270 0.662800 -0.561638
O8    O     O_R   0.500010 0.417730 0.337200 -0.559757
C3    C     C_R   0.499809 0.500126 0.283835 0.860129
C4    C     C_R   0.499898 0.499882 0.716165 0.856660
Cu1   Cu    Cu3+1 0.500000 0.597420 0.500000 0.987972
Cu2   Cu    Cu3+1 0.500000 0.402580 0.500000 1.001143
C5    C     C_1   0.499841 0.500305 0.162246 -0.121830
C6    C     C_1   0.499841 0.499714 0.837745 -0.118603
C7    C     C_1   0.499864 0.500155 0.059833 0.029733
C8    C     C_1   0.499844 0.499862 0.940156 0.032716
C9    C     C_R   0.814404 0.451253 0.406751 0.314252
C10   C     C_R   0.186002 0.537596 0.598117 0.311619
C11   C     C_R   0.767709 0.501237 0.492595 -0.185254
C12   C     C_R   0.232686 0.500682 0.503959 -0.176396
C13   C     C_R   0.812353 0.554103 0.575338 -0.239770
C14   C     C_R   0.188552 0.464690 0.409370 -0.238240
C15   C     C_R   0.904968 0.554671 0.579011 0.012822
C16   C     C_R   0.095886 0.464005 0.405533 0.015079
C17   C     C_R   0.953580 0.506891 0.491936 -0.013558
C18   C     C_R   0.047146 0.506057 0.496689 -0.013515
C19   C     C_R   0.908362 0.460411 0.400064 -0.060447
C20   C     C_R   0.092151 0.546948 0.592525 -0.057474
C21   C     C_R   0.949050 0.602624 0.668543 0.302276
C22   C     C_R   0.051906 0.426330 0.309242 0.295115
C23   C     C_R   0.042047 0.597575 0.677192 -0.137376
C24   C     C_R   0.958498 0.425916 0.304897 -0.128044
H1    H     H_    0.773502 0.590477 0.640737 0.202222
H2    H     H_    0.227929 0.437197 0.338766 0.201374
C25   C     C_R   0.444118 0.793290 0.571826 0.027463
C26   C     C_R   0.555895 0.206834 0.428066 0.050261
C27   C     C_R   0.556040 0.793552 0.428207 0.033328
C28   C     C_R   0.444007 0.206444 0.571813 0.028981
N1    N     N_R   0.500000 0.743810 0.500000 -0.192870
N2    N     N_R   0.500000 0.256190 0.500000 -0.199254
C29   C     C_R   0.557409 0.896627 0.426486 -0.005812
C30   C     C_R   0.442651 0.103400 0.573481 -0.004117
C31   C     C_R   0.442716 0.896277 0.573460 -0.010457
C32   C     C_R   0.557342 0.103812 0.426441 -0.017364
C33   C     C_R   0.500044 0.948232 0.499958 0.092949
C34   C     C_R   0.500022 0.051832 0.499969 0.088277
C35   C     C_R   0.614505 0.949125 0.353373 -0.187048
C36   C     C_R   0.385555 0.050905 0.646594 -0.183121
C37   C     C_R   0.385595 0.948311 0.646590 -0.185877
C38   C     C_R   0.614466 0.051741 0.353339 -0.161079
H3    H     H_    0.400653 0.752522 0.628068 0.180604
H4    H     H_    0.599295 0.247827 0.371756 0.191481
H5    H     H_    0.599750 0.752845 0.372209 0.135770
H6    H     H_    0.400315 0.247136 0.627851 0.145598
H7    H     H_    0.659191 0.910849 0.296192 0.150355
H8    H     H_    0.340873 0.089159 0.703801 0.151509
H9    H     H_    0.340967 0.909672 0.703786 0.145520
H10   H     H_    0.659134 0.090358 0.296154 0.171856
N3    N     N_R   0.766669 0.386247 0.333191 0.103199
O9    O     O_R   0.779179 0.292602 0.341911 -0.392444
O10   O     O_R   0.703549 0.419109 0.267819 -0.410727
N4    N     N_R   0.233402 0.552999 0.702643 0.092416
O11   O     O_R   0.231077 0.486249 0.781863 -0.355891
O12   O     O_R   0.289170 0.625000 0.711697 -0.400870
N5    N     N_R   0.899529 0.660516 0.748727 0.105511
O13   O     O_R   0.862796 0.741757 0.715803 -0.351679
O14   O     O_R   0.889714 0.631292 0.853822 -0.405921
N6    N     N_R   0.102280 0.390486 0.213625 0.101156
O15   O     O_R   0.102771 0.438233 0.117369 -0.374821
O16   O     O_R   0.144752 0.308062 0.221522 -0.360465
C39   C     C_R   0.084716 0.656178 0.768030 0.161773
C40   C     C_R   0.119808 0.748601 0.742212 -0.072295
C41   C     C_R   0.159207 0.804487 0.827993 -0.102055
C42   C     C_R   0.163251 0.768716 0.939880 -0.109043
C43   C     C_R   0.127610 0.677144 0.966311 -0.092416
C44   C     C_R   0.088146 0.621033 0.880817 0.042299
H11   H     H_    0.116944 0.776911 0.655790 0.128034
H12   H     H_    0.186555 0.875528 0.807763 0.126724
H13   H     H_    0.193817 0.812050 0.006143 0.139009
H14   H     H_    0.130534 0.649675 0.053033 0.159719
H15   H     H_    0.060746 0.550146 0.902055 0.173789
C45   C     C_R   0.916023 0.398292 0.195218 0.176068
C46   C     C_R   0.872196 0.469278 0.129335 -0.069819
C47   C     C_R   0.832250 0.443600 0.026017 -0.061529
C48   C     C_R   0.837161 0.347551 0.986818 -0.111310
C49   C     C_R   0.881831 0.276871 0.051026 -0.116598
C50   C     C_R   0.921299 0.302002 0.154827 0.012646
H16   H     H_    0.868269 0.544027 0.158681 0.133006
H17   H     H_    0.797176 0.498037 0.976509 0.172107
H18   H     H_    0.806316 0.327899 0.906720 0.140903
H19   H     H_    0.885660 0.202527 0.020514 0.142891
H20   H     H_    0.955278 0.246523 0.204212 0.150592

loop_
_geom_bond_atom_site_label_1
_geom_bond_atom_site_label_2
_geom_bond_distance
_ccdc_geom_bond_type
C15   C21   1.406918 A    
C48   C49   1.397730 A    
C16   C22   1.408444 A    
C17   C19   1.426403 A    
C39   C40   1.403972 A    
O3    C2    1.288180 A    
Cu1   N1    2.006442 S    
C27   N1    1.368349 A    
C10   C20   1.419285 A    
C43   C44   1.398055 A    
C21   N5    1.436766 S    
C14   H2    1.083394 S    
O1    C1    1.287426 A    
C9    C11   1.403860 A    
C14   C16   1.394861 A    
C26   N2    1.367952 A    
C47   H17   1.081764 S    
C31   C37   1.406221 A    
C32   C38   1.406313 A    
C35   H7    1.083299 S    
C50   H20   1.082981 S    
N3    O10   1.301136 A    
O7    Cu1   1.915851 S    
C38   H10   1.083441 S    
C3    C5    1.422935 S    
C44   H15   1.083247 S    
C27   H5    1.082592 S    
C1    C12   1.448430 S    
C4    C6    1.422829 S    
C28   H6    1.082608 S    
C39   C44   1.404766 A    
C21   C23   1.404628 A    
N6    O15   1.300953 A    
C41   H12   1.082251 S    
O3    Cu1   1.962586 S    
Cu2   N2    2.006442 S    
C25   H3    1.080452 S    
C28   N2    1.368092 A    
C48   H18   1.082366 S    
C25   N1    1.367898 A    
O2    C2    1.289461 A    
C24   C45   1.486127 S    
C7    C8    1.400585 S    
C31   C33   1.407553 A    
C32   C34   1.407841 A    
C40   C41   1.398343 A    
N5    O13   1.300912 A    
C36   H8    1.083313 S    
C42   C43   1.398150 A    
O8    Cu2   1.915851 S    
C47   C48   1.397339 A    
C29   C35   1.406442 A    
C27   C29   1.412998 A    
C46   C47   1.398313 A    
C2    C11   1.453064 S    
C19   C24   1.424605 A    
N5    O14   1.300152 A    
N4    O12   1.300182 A    
C10   N4    1.434476 S    
O5    C3    1.289245 A    
C41   C42   1.398252 A    
C33   C34   1.419946 A    
C26   H4    1.081933 S    
O5    Cu1   1.917173 S    
O6    C4    1.289327 A    
C35   C38   1.406481 A    
C36   C37   1.406167 A    
C45   C46   1.405227 A    
C23   C39   1.482608 S    
C10   C12   1.400316 A    
C13   H1    1.083873 S    
C40   H11   1.083114 S    
C11   C13   1.386849 A    
C12   C14   1.385186 A    
C37   H9    1.083298 S    
C45   C50   1.405425 A    
C25   C31   1.411904 A    
C9    C19   1.420788 A    
C30   C36   1.406417 A    
C5    C7    1.198528 T    
C49   H19   1.082261 S    
O6    Cu2   1.917173 S    
C20   C23   1.424722 A    
O4    C1    1.288016 A    
C42   H13   1.082262 S    
C22   N6    1.436872 S    
C46   H16   1.083121 S    
C15   C17   1.414364 A    
C16   C18   1.416186 A    
N4    O11   1.300797 A    
C18   C20   1.428383 A    
C43   H14   1.082402 S    
C9    N3    1.435405 S    
C13   C15   1.394004 A    
O4    Cu2   1.962588 S    
N3    O9    1.300939 A    
O2    Cu2   1.962644 S    
O7    C4    1.288665 A    
C26   C32   1.412384 A    
O8    C3    1.288774 A    
C28   C30   1.412552 A    
O1    Cu1   1.962645 S    
C49   C50   1.398237 A    
C6    C8    1.198519 T    
C17   C18   1.408835 A    
N6    O16   1.300987 A    
Cu1   Cu2   2.670504 S    
C29   C33   1.407921 A    
C30   C34   1.408011 A    
C22   C24   1.406226 A    
