data_mof_unit_44963.cif
_audit_creation_date              2013-03-05T16:35:53-0500
_audit_creation_method            fapswitch 2.2
_symmetry_space_group_name_H-M    P1
_symmetry_Int_Tables_number       1
_space_group_crystal_system       triclinic
_cell_length_a                    23.565149
_cell_length_b                    9.276812
_cell_length_c                    7.76616
_cell_angle_alpha                 90.050015
_cell_angle_beta                  89.999985
_cell_angle_gamma                 89.999862
_cell_volume                      1697.75537392

loop_
_atom_site_label
_atom_site_type_symbol
_atom_site_description
_atom_site_fract_x
_atom_site_fract_y
_atom_site_fract_z
_atom_type_partial_charge
O1    O     O_R   0.500000 0.288390 0.642760 -0.573970
O2    O     O_R   0.500000 0.711610 0.357240 -0.573970
O3    O     O_R   0.500000 0.711610 0.642760 -0.584018
O4    O     O_R   0.500000 0.288390 0.357240 -0.584018
C1    C     C_R   0.500000 0.219662 0.499955 0.825384
C2    C     C_R   0.500000 0.780337 0.500045 0.825385
O5    O     O_R   0.417880 0.500000 0.642820 -0.531318
O6    O     O_R   0.582120 0.500000 0.357180 -0.531497
O7    O     O_R   0.582120 0.500000 0.642820 -0.531498
O8    O     O_R   0.417880 0.500000 0.357180 -0.531318
C3    C     C_R   0.208655 0.499991 0.499999 0.131545
C4    C     C_R   0.791391 0.499994 0.500002 0.129257
C5    C     C_R   0.390522 0.500000 0.500000 0.882058
C6    C     C_R   0.609474 0.499999 0.500000 0.882912
Cu1   Cu    Cu3+1 0.500000 0.500000 0.669080 1.124929
Cu2   Cu    Cu3+1 0.500000 0.500000 0.330920 1.124929
H1    H     H_    0.215274 0.558814 0.232387 0.195418
H2    H     H_    0.784650 0.438993 0.766899 0.197001
H3    H     H_    0.215274 0.441169 0.767610 0.195417
H4    H     H_    0.784650 0.560996 0.233105 0.197002
C7    C     C_R   0.297438 0.533008 0.348347 0.566916
C8    C     C_R   0.702538 0.465721 0.651161 0.565768
C9    C     C_R   0.297439 0.466985 0.651652 0.566915
C10   C     C_R   0.702538 0.534273 0.348840 0.565764
C11   C     C_R   0.327824 0.499998 0.500000 -0.330555
C12   C     C_R   0.672163 0.499998 0.500000 -0.329779
C13   C     C_R   0.880549 0.628132 0.488616 0.643360
C14   C     C_R   0.119622 0.371740 0.490441 0.645003
C15   C     C_R   0.880549 0.371853 0.511388 0.643359
C16   C     C_R   0.119622 0.628240 0.509557 0.645002
N1    N     N_R   0.852229 0.499993 0.500002 -0.460982
N2    N     N_R   0.147892 0.499991 0.499999 -0.462578
C17   C     C_R   0.940302 0.369406 0.513504 -0.151892
C18   C     C_R   0.059872 0.630688 0.511763 -0.153035
C19   C     C_R   0.940303 0.630577 0.486499 -0.151891
C20   C     C_R   0.059872 0.369293 0.488236 -0.153035
C21   C     C_R   0.970079 0.499991 0.500001 -0.117677
C22   C     C_R   0.030086 0.499991 0.500000 -0.117871
C23   C     C_R   0.971242 0.240589 0.523758 0.405742
C24   C     C_R   0.028952 0.759501 0.521482 0.405965
C25   C     C_R   0.971242 0.759393 0.476242 0.405749
C26   C     C_R   0.028952 0.240480 0.478519 0.405956
C27   C     C_1   0.500000 0.064986 0.499940 -0.114450
C28   C     C_1   0.500000 0.935014 0.500060 -0.114450
C29   C     C_R   0.238273 0.533051 0.349176 -0.150852
C30   C     C_R   0.761701 0.465624 0.650343 -0.149237
C31   C     C_R   0.238273 0.466934 0.650822 -0.150849
C32   C     C_R   0.761701 0.534366 0.349661 -0.149244
N3    N     N_1   0.500000 0.500000 0.076820 0.005686
N4    N     N_1   0.500000 0.500000 0.923180 0.005686
O9    O     O_2   0.850829 0.752413 0.486845 -0.416036
O10   O     O_2   0.149391 0.247532 0.488599 -0.415538
O11   O     O_2   0.850828 0.247573 0.513158 -0.416037
O12   O     O_2   0.149391 0.752449 0.511401 -0.415537
Cl1   Cl    Cl    0.945222 0.101790 0.656814 -0.375192
Cl2   Cl    Cl    0.054783 0.897790 0.655910 -0.374861
Cl3   Cl    Cl    0.945225 0.898182 0.343165 -0.375196
Cl4   Cl    Cl    0.054785 0.102182 0.344109 -0.374857
F1    F     F_    0.324634 0.567217 0.199708 -0.580717
F2    F     F_    0.675326 0.430315 0.799303 -0.581718
F3    F     F_    0.324634 0.432781 0.800292 -0.580719
F4    F     F_    0.675326 0.569681 0.200697 -0.581715

loop_
_geom_bond_atom_site_label_1
_geom_bond_atom_site_label_2
_geom_bond_distance
_ccdc_geom_bond_type
O4    Cu2   1.973858 S    
O5    C5    1.282920 A    
O6    C6    1.282866 A    
O7    C6    1.282865 A    
O8    C5    1.282921 A    
C21   C22   1.414076 A    
O1    Cu1   1.973503 S    
O2    Cu2   1.973502 S    
C3    C31   1.397786 A    
C4    N1    1.433659 S    
C14   O10   1.349069 S    
C17   C21   1.403967 A    
C4    C32   1.398239 A    
O3    C2    1.279126 A    
C13   C19   1.408370 A    
C26   Cl4   1.761778 S    
O5    Cu1   1.945889 S    
C1    C27   1.434901 S    
C25   Cl3   1.761830 S    
O6    Cu2   1.945887 S    
C2    C28   1.434901 S    
C6    C12   1.477278 S    
C16   N2    1.365524 A    
C16   O12   1.349071 S    
C10   C12   1.411461 A    
C5    C11   1.477476 S    
H4    C32   1.083161 S    
C15   O11   1.349066 S    
Cu1   N4    1.973380 S    
O1    C1    1.278768 A    
H2    C30   1.083166 S    
C20   C22   1.403881 A    
C24   C25   1.404596 A    
C8    C30   1.394209 A    
C13   O9    1.349067 S    
C3    N2    1.431896 S    
C7    F1    1.358162 S    
C23   C26   1.404598 A    
C7    C29   1.394254 A    
C9    C11   1.412177 A    
C27   C28   1.205733 T    
C8    F2    1.357713 S    
C19   C25   1.402190 A    
C18   C24   1.401569 A    
C3    C29   1.397789 A    
C9    C31   1.394254 A    
C16   C18   1.408293 A    
C13   N1    1.366177 A    
Cu1   Cu2   2.626205 S    
C10   C32   1.394207 A    
C15   C17   1.408375 A    
C14   N2    1.365524 A    
O3    Cu1   1.973857 S    
Cu2   N3    1.973380 S    
C14   C20   1.408298 A    
C15   N1    1.366178 A    
N3    N4    1.193194 T    
C8    C12   1.411470 A    
H3    C31   1.083468 S    
O8    Cu2   1.945889 S    
C7    C11   1.412172 A    
C10   F4    1.357728 S    
C19   C21   1.403967 A    
O7    Cu1   1.945886 S    
C20   C26   1.401571 A    
C17   C23   1.402193 A    
C23   Cl1   1.761825 S    
O2    C2    1.278768 A    
C9    F3    1.358157 S    
H1    C29   1.083466 S    
O4    C1    1.279126 A    
C24   Cl2   1.761780 S    
C4    C30   1.398231 A    
C18   C22   1.403880 A    
