data_mof_unit_47238.cif
_audit_creation_date              2012-10-26T18:27:32-0400
_audit_creation_method            fapswitch 2.2
_symmetry_space_group_name_H-M    P1
_symmetry_Int_Tables_number       1
_space_group_crystal_system       triclinic
_cell_length_a                    10.769987
_cell_length_b                    11.03685
_cell_length_c                    9.834171
_cell_angle_alpha                 111.041926
_cell_angle_beta                  98.127526
_cell_angle_gamma                 91.037387
_cell_volume                      1077.04486005

loop_
_atom_site_label
_atom_site_type_symbol
_atom_type_description
_atom_site_fract_x
_atom_site_fract_y
_atom_site_fract_z
_atom_type_partial_charge
C1    C     C_R   0.490942 0.254192 0.440752 0.543255
C2    C     C_2   0.498209 0.930541 0.483479 -0.164269
C3    C     C_2   0.510853 0.510351 0.081182 -0.021064
C4    C     C_R   0.262518 0.496314 0.500374 0.540945
C5    C     C_2   0.488989 0.489787 0.918853 -0.021400
C6    C     C_R   0.509144 0.745829 0.559270 0.561428
C7    C     C_R   0.736973 0.494898 0.497607 0.539064
C8    C     C_R   0.139369 0.315624 0.605697 -0.110501
C9    C     C_R   0.079014 0.230267 0.655185 -0.125333
C10   C     C_R   0.949410 0.228160 0.651642 -0.119438
C11   C     C_R   0.879367 0.311467 0.598685 -0.101107
C12   C     C_R   0.070542 0.402601 0.553794 0.026133
C13   C     C_R   0.938777 0.400487 0.550187 0.026617
C14   C     C_R   0.128573 0.488624 0.500185 0.003460
C15   C     C_R   0.057309 0.565926 0.438482 -0.148883
C16   C     C_R   0.928851 0.563907 0.435024 -0.153179
C17   C     C_R   0.869853 0.484611 0.493347 0.003590
C18   C     C_2   0.486178 0.114954 0.407465 -0.133293
C19   C     C_2   0.502975 0.069658 0.516720 -0.171628
C20   C     C_2   0.514311 0.885142 0.592670 -0.132555
Cu1   Cu    Cu3+1 0.521920 0.521810 0.644910 0.927396
Cu2   Cu    Cu3+1 0.478080 0.478190 0.355090 0.936026
H1    H     H_    0.468877 0.048953 0.292798 0.107897
H2    H     H_    0.531310 0.951102 0.707365 0.103152
H3    H     H_    0.101903 0.630081 0.395164 0.129639
H4    H     H_    0.624976 0.621184 0.933924 0.204401
H5    H     H_    0.778518 0.303204 0.593513 0.140569
H6    H     H_    0.520270 0.135355 0.631596 0.153673
H7    H     H_    0.415242 0.418150 0.846267 0.141547
H8    H     H_    0.584279 0.582350 0.153881 0.144938
H9    H     H_    0.375908 0.377813 0.065821 0.203628
H10   H     H_    0.239520 0.310593 0.606169 0.128075
H11   H     H_    0.132864 0.164261 0.694618 0.111348
H12   H     H_    0.902663 0.160478 0.688264 0.116144
H13   H     H_    0.875543 0.627241 0.390300 0.120334
H14   H     H_    0.481221 0.864881 0.368586 0.157815
N1    N     N_2   0.445130 0.445430 0.137370 -0.350679
N2    N     N_2   0.554930 0.554500 0.862630 -0.351017
O1    O     O_R   0.511700 0.332330 0.577400 -0.513773
O2    O     O_R   0.474680 0.295500 0.332650 -0.487254
O3    O     O_R   0.338160 0.518420 0.622400 -0.500357
O4    O     O_R   0.301140 0.481590 0.377650 -0.489914
O5    O     O_R   0.525320 0.704500 0.667350 -0.484584
O6    O     O_R   0.488300 0.667670 0.422600 -0.497791
O7    O     O_R   0.698860 0.518410 0.622350 -0.496379
O8    O     O_R   0.661840 0.481580 0.377600 -0.496678

loop_
_geom_bond_atom_site_label_1
_geom_bond_atom_site_label_2
_ccdc_geom_bond_type
C8    C9    A    
C3    H8    S    
C11   H5    S    
C6    C20   S    
C9    C10   A    
C5    H7    S    
Cu1   O1    S    
C13   C17   A    
C8    C12   A    
Cu2   O2    S    
C10   H12   S    
C6    O6    A    
C5    N2    D    
C9    H11   S    
C19   H6    S    
C11   C13   A    
C1    C18   S    
Cu2   O4    S    
C4    O4    A    
Cu1   O3    S    
C7    O7    A    
Cu2   O8    S    
C12   C14   A    
Cu1   O7    S    
C6    O5    A    
C16   H13   S    
C4    C14   S    
Cu2   O6    S    
C15   H3    S    
C4    O3    A    
C1    O1    A    
C2    C20   D    
C18   H1    S    
C8    H10   S    
C7    O8    A    
C20   H2    S    
C12   C13   A    
C3    N1    D    
C18   C19   D    
C10   C11   A    
C2    H14   S    
C14   C15   A    
H4    N2    S    
C1    O2    A    
C3    C5    S    
C2    C19   S    
Cu1   Cu2   S    
Cu2   N1    S    
Cu1   O5    S    
Cu1   N2    S    
C15   C16   A    
H9    N1    S    
C16   C17   A    
C7    C17   S    
