data_mof_unit_47214.cif
_audit_creation_date              2012-12-10T17:21:23-0500
_audit_creation_method            fapswitch 2.2
_symmetry_space_group_name_H-M    P1
_symmetry_Int_Tables_number       1
_space_group_crystal_system       triclinic
_cell_length_a                    18.297121
_cell_length_b                    25.866495
_cell_length_c                    18.269672
_cell_angle_alpha                 90.009021
_cell_angle_beta                  89.883669
_cell_angle_gamma                 89.986551
_cell_volume                      8646.69583942

loop_
_atom_site_label
_atom_site_type_symbol
_atom_type_description
_atom_site_fract_x
_atom_site_fract_y
_atom_site_fract_z
_atom_type_partial_charge
C1    C     C_R   0.389776 0.250026 0.139848 0.790622
C2    C     C_R   0.572906 0.350912 0.877310 -0.099121
C3    C     C_R   0.926240 0.350480 0.122204 -0.147321
C4    C     C_R   0.396939 0.807761 0.407268 -0.137562
C5    C     C_R   0.426451 0.149836 0.622289 -0.100044
C6    C     C_R   0.397180 0.191904 0.407033 -0.129920
C7    C     C_R   0.426617 0.850565 0.622390 -0.101050
C8    C     C_R   0.966543 0.289151 0.891329 -0.105126
C9    C     C_R   0.985022 0.683809 0.127336 -0.136438
C10   C     C_R   0.966470 0.711162 0.891392 -0.101736
C11   C     C_R   0.986286 0.317599 0.128172 -0.140747
C12   C     C_R   0.466572 0.788998 0.391410 -0.135826
C13   C     C_R   0.602732 0.308312 0.092993 -0.137629
C14   C     C_R   0.486324 0.182867 0.628210 -0.113622
C15   C     C_R   0.466747 0.210772 0.391234 -0.131766
C16   C     C_R   0.486599 0.817631 0.628379 -0.127958
C17   C     C_R   0.296864 0.053785 0.872811 -0.139367
C18   C     C_R   0.296825 0.946158 0.872810 -0.139527
C19   C     C_R   0.796838 0.553805 0.372788 -0.138799
C20   C     C_R   0.796849 0.446178 0.372779 -0.138449
C21   C     C_R   0.319858 0.026806 0.810896 -0.125620
C22   C     C_R   0.319840 0.973108 0.810896 -0.125113
C23   C     C_R   0.819816 0.526839 0.310856 -0.130913
C24   C     C_R   0.574196 0.650416 0.878183 -0.095898
C25   C     C_R   0.819830 0.473138 0.310856 -0.131326
C26   C     C_R   0.273984 0.972792 0.936772 0.071168
C27   C     C_R   0.274004 0.027181 0.936772 0.071148
C28   C     C_R   0.773996 0.472801 0.436746 0.070900
C29   C     C_R   0.774003 0.527191 0.436752 0.070898
C30   C     C_R   0.250005 0.946284 0.000015 -0.142851
C31   C     C_R   0.250049 0.053719 0.000014 -0.142774
C32   C     C_R   0.750001 0.446286 0.499980 -0.142777
C33   C     C_R   0.750037 0.553722 0.499996 -0.142712
C34   C     C_R   0.226073 0.972824 0.063268 0.070918
C35   C     C_R   0.103065 0.192007 0.592947 -0.120801
C36   C     C_R   0.226105 0.027213 0.063270 0.071008
C37   C     C_R   0.726004 0.472822 0.563213 0.071070
C38   C     C_R   0.726033 0.527211 0.563223 0.071084
C39   C     C_R   0.203241 0.946223 0.127243 -0.138373
C40   C     C_R   0.203324 0.053851 0.127251 -0.138687
C41   C     C_R   0.703094 0.446217 0.627157 -0.140046
C42   C     C_R   0.703169 0.553844 0.627179 -0.139609
C43   C     C_R   0.180317 0.973207 0.189184 -0.131714
C44   C     C_R   0.180366 0.026908 0.189192 -0.131365
C45   C     C_R   0.680065 0.473197 0.689061 -0.124865
C46   C     C_R   0.073725 0.850348 0.377725 -0.145143
C47   C     C_R   0.680110 0.526895 0.689075 -0.125313
C48   C     C_R   0.250022 0.109346 0.999997 0.787428
C49   C     C_R   0.250006 0.890655 0.000016 0.787694
C50   C     C_R   0.750021 0.609347 0.499996 0.787279
C51   C     C_R   0.750007 0.390656 0.499986 0.787319
C52   C     C_R   0.250382 0.391220 0.000076 0.844695
C53   C     C_R   0.250193 0.608739 0.000059 0.801706
C54   C     C_R   0.749659 0.891217 0.499938 0.844618
C55   C     C_R   0.750241 0.108733 0.499946 0.845003
C56   C     C_3   0.178340 0.469419 0.965298 -0.267898
C57   C     C_R   0.103157 0.807617 0.592738 -0.114414
C58   C     C_3   0.319978 0.530502 0.958215 -0.252216
C59   C     C_3   0.181275 0.529820 0.958842 -0.243757
C60   C     C_3   0.316756 0.469899 0.952286 -0.253261
C61   C     C_3   0.819399 0.969150 0.540060 -0.262731
C62   C     C_3   0.677903 0.030647 0.535927 -0.261237
C63   C     C_3   0.816283 0.029611 0.546694 -0.248436
C64   C     C_3   0.680528 0.970117 0.542642 -0.244875
C65   C     C_3   0.259828 0.470562 0.079195 -0.323792
C66   C     C_3   0.250731 0.529416 0.079612 -0.339055
C67   C     C_3   0.747153 0.970542 0.420385 -0.336186
C68   C     C_R   0.075426 0.151593 0.378920 -0.137225
C69   C     C_3   0.757465 0.029306 0.420680 -0.337218
C70   C     C_3   0.251421 0.448874 0.000032 -0.016317
C71   C     C_3   0.250429 0.551009 0.999921 -0.032222
C72   C     C_3   0.749024 0.948876 0.499986 -0.025534
C73   C     C_3   0.750677 0.050984 0.500038 -0.026159
C74   C     C_R   0.141177 0.211146 0.716219 -0.138339
C75   C     C_R   0.121864 0.817079 0.264077 -0.141972
C76   C     C_R   0.141266 0.788607 0.716059 -0.138124
C77   C     C_R   0.122029 0.183331 0.263881 -0.144943
C78   C     C_R   0.641312 0.711536 0.215967 -0.139463
C79   C     C_R   0.533511 0.711235 0.108530 -0.133745
C80   C     C_R   0.621368 0.317567 0.763837 -0.148578
C81   C     C_R   0.641047 0.289028 0.216173 -0.139578
C82   C     C_R   0.621721 0.682910 0.763893 -0.144927
C83   C     C_R   0.156797 0.192177 0.646538 -0.131284
C84   C     C_R   0.127722 0.850086 0.324091 -0.160482
C85   C     C_R   0.156901 0.807453 0.646327 -0.138679
C86   C     C_R   0.128557 0.150970 0.324472 -0.153820
C87   C     C_R   0.656971 0.692794 0.146176 -0.136793
C88   C     C_R   0.626978 0.350692 0.823750 -0.162299
C89   C     C_R   0.656526 0.308111 0.146534 -0.131796
C90   C     C_R   0.513062 0.317864 0.871398 -0.125964
C91   C     C_R   0.627798 0.650189 0.824169 -0.177591
C92   C     C_2   0.109878 0.447919 0.002054 0.931343
C93   C     C_2   0.390997 0.551655 0.989778 0.943574
C94   C     C_2   0.110100 0.557591 0.977382 0.926652
C95   C     C_2   0.390289 0.443304 0.963922 0.952721
C96   C     C_2   0.889697 0.948042 0.506344 0.936924
C97   C     C_2   0.609843 0.051637 0.498174 0.943740
C98   C     C_2   0.889769 0.055890 0.534365 0.955027
C99   C     C_2   0.607969 0.943618 0.525859 0.944556
C100  C     C_R   0.533194 0.289373 0.108772 -0.132783
C101  C     C_R   0.389712 0.750035 0.860142 0.783478
C102  C     C_R   0.514221 0.683368 0.872208 -0.105123
C103  C     C_R   0.033421 0.210815 0.608724 -0.121127
C104  C     C_R   0.013693 0.817473 0.371771 -0.139347
C105  C     C_R   0.033502 0.788908 0.608577 -0.101404
C106  C     C_R   0.015313 0.184439 0.372918 -0.131975
C107  C     C_R   0.516443 0.731137 0.178840 0.071737
C108  C     C_R   0.506157 0.283841 0.811018 0.066470
C109  C     C_R   0.516305 0.269173 0.178938 0.077338
C110  C     C_R   0.506618 0.716760 0.811261 0.053123
C111  C     C_R   0.016394 0.230919 0.678934 0.073566
C112  C     C_R   0.389767 0.749986 0.139857 0.784495
C113  C     C_R   0.006489 0.783621 0.311237 0.070558
C114  C     C_R   0.016453 0.768941 0.678842 0.066495
C115  C     C_R   0.007057 0.217260 0.311487 0.075468
C116  C     C_R   0.070996 0.231052 0.733432 0.072737
C117  C     C_R   0.061186 0.783478 0.256649 0.080044
C118  C     C_R   0.071056 0.768820 0.733336 0.071699
C119  C     C_R   0.061354 0.216977 0.256546 0.078886
C120  C     C_R   0.571066 0.731254 0.233314 0.071618
C121  C     C_R   0.560920 0.283752 0.756497 0.081152
C122  C     C_R   0.570942 0.269047 0.233400 0.072184
C123  C     C_R   0.389764 0.250049 0.860230 0.783740
C124  C     C_R   0.561155 0.716646 0.756535 0.081403
C125  C     C_R   0.445865 0.749936 0.196000 -0.149588
C126  C     C_R   0.445840 0.250113 0.804100 -0.142324
C127  C     C_R   0.445869 0.250104 0.195983 -0.150088
C128  C     C_R   0.445855 0.750077 0.804013 -0.142225
C129  C     C_R   0.945877 0.249901 0.695985 -0.145720
C130  C     C_R   0.945886 0.750172 0.304172 -0.145636
C131  C     C_R   0.945898 0.750105 0.695955 -0.145421
C132  C     C_R   0.945912 0.250207 0.304007 -0.148748
C133  C     C_R   0.428943 0.768850 0.266682 0.072240
C134  C     C_R   0.889807 0.750050 0.639818 0.791988
C135  C     C_R   0.439010 0.216476 0.743576 0.081853
C136  C     C_R   0.429041 0.231029 0.266578 0.071646
C137  C     C_R   0.438893 0.783615 0.743378 0.081377
C138  C     C_R   0.928965 0.268941 0.766606 0.072447
C139  C     C_R   0.938580 0.716884 0.243345 0.079638
C140  C     C_R   0.928943 0.731223 0.766624 0.071322
C141  C     C_R   0.938710 0.283582 0.243223 0.079473
C142  C     C_R   0.983563 0.269060 0.821108 0.065368
C143  C     C_R   0.993030 0.716958 0.188522 0.076048
C144  C     C_R   0.983544 0.731100 0.821119 0.071318
C145  C     C_R   0.889726 0.250054 0.360135 0.788988
C146  C     C_R   0.993452 0.283729 0.188672 0.071907
C147  C     C_R   0.483574 0.768977 0.321151 0.078201
C148  C     C_R   0.493619 0.216532 0.688917 0.054084
C149  C     C_R   0.483672 0.230912 0.321044 0.069828
C150  C     C_R   0.493658 0.783720 0.688856 0.065745
C151  C     C_R   0.054084 0.250091 0.804046 -0.146304
C152  C     C_R   0.054030 0.750044 0.195904 -0.147072
C153  C     C_R   0.054107 0.749926 0.804008 -0.143468
C154  C     C_R   0.054047 0.250245 0.195732 -0.144840
C155  C     C_R   0.554116 0.750105 0.304017 -0.149901
C156  C     C_R   0.889795 0.249955 0.639827 0.785946
C157  C     C_R   0.554141 0.250067 0.695991 -0.142411
C158  C     C_R   0.554126 0.249945 0.303988 -0.148814
C159  C     C_R   0.554138 0.750131 0.695884 -0.141359
C160  C     C_R   0.358742 0.788663 0.283991 -0.139226
C161  C     C_R   0.378561 0.182650 0.736276 -0.144585
C162  C     C_R   0.358919 0.211085 0.283815 -0.139793
C163  C     C_R   0.378298 0.817305 0.735948 -0.148246
C164  C     C_R   0.858797 0.288868 0.783824 -0.138588
C165  C     C_R   0.877766 0.683401 0.235915 -0.144077
C166  C     C_R   0.858718 0.711465 0.783901 -0.138467
C167  C     C_R   0.889850 0.750137 0.360326 0.782560
C168  C     C_R   0.878001 0.317163 0.235764 -0.141951
C169  C     C_R   0.343158 0.807569 0.353716 -0.131662
C170  C     C_R   0.372695 0.149754 0.676153 -0.177543
C171  C     C_R   0.343404 0.192083 0.353482 -0.137924
C172  C     C_R   0.372554 0.850337 0.675960 -0.164850
C173  C     C_R   0.843194 0.307860 0.853506 -0.140525
C174  C     C_R   0.871210 0.651010 0.175357 -0.152605
C175  C     C_R   0.843049 0.692676 0.853647 -0.136575
C176  C     C_R   0.872181 0.350190 0.175777 -0.159742
C177  C     C_R   0.110179 0.250045 0.860185 0.789946
C178  C     C_R   0.603212 0.692626 0.092616 -0.133685
C179  C     C_R   0.110169 0.749958 0.139766 0.785729
C180  C     C_R   0.110193 0.749974 0.860158 0.789706
C181  C     C_R   0.110105 0.250173 0.139630 0.782568
C182  C     C_R   0.610208 0.750024 0.360156 0.790172
C183  C     C_R   0.610275 0.250047 0.639861 0.783742
C184  C     C_R   0.610223 0.250002 0.360128 0.784135
C185  C     C_R   0.610209 0.750063 0.639757 0.782722
C186  C     C_R   0.896928 0.308011 0.907107 -0.113924
C187  C     C_R   0.924583 0.651296 0.121146 -0.142307
C188  C     C_R   0.896781 0.692519 0.907236 -0.118953
H1    H     H_    0.315300 0.790111 0.243971 0.122574
H2    H     H_    0.824477 0.625607 0.170453 0.121289
H3    H     H_    0.453808 0.396083 0.024618 0.325987
H4    H     H_    0.960488 0.947474 0.421508 0.339518
H5    H     H_    0.544382 0.052005 0.409435 0.344032
H6    H     H_    0.954389 0.100404 0.471318 0.326765
H7    H     H_    0.548659 0.896732 0.460576 0.328790
H8    H     H_    0.789086 0.677925 0.866050 0.134215
H9    H     H_    0.825580 0.375731 0.170918 0.122683
H10   H     H_    0.289225 0.822394 0.366124 0.134211
H11   H     H_    0.326223 0.124104 0.671338 0.126902
H12   H     H_    0.289530 0.177183 0.365860 0.134358
H13   H     H_    0.325985 0.875905 0.671072 0.125327
H14   H     H_    0.006713 0.290853 0.934629 0.134974
H15   H     H_    0.025191 0.682683 0.083792 0.117541
H16   H     H_    0.006636 0.709431 0.934691 0.129230
H17   H     H_    0.335354 0.181248 0.776783 0.105794
H18   H     H_    0.026940 0.319143 0.085101 0.127578
H19   H     H_    0.506772 0.790732 0.434679 0.126215
H20   H     H_    0.526666 0.181715 0.584844 0.145589
H21   H     H_    0.506948 0.209051 0.434504 0.132436
H22   H     H_    0.527252 0.819134 0.585302 0.118305
H23   H     H_    0.162909 0.047787 0.237501 0.138440
H24   H     H_    0.162813 0.952363 0.237486 0.137379
H25   H     H_    0.662565 0.547764 0.737356 0.142621
H26   H     H_    0.662477 0.452354 0.737329 0.143151
H27   H     H_    0.296885 0.095548 0.869647 0.123602
H28   H     H_    0.315476 0.209637 0.243794 0.121732
H29   H     H_    0.296813 0.904394 0.869643 0.123572
H30   H     H_    0.796834 0.595569 0.369630 0.122990
H31   H     H_    0.796855 0.404413 0.369612 0.122927
H32   H     H_    0.337403 0.047651 0.762611 0.142004
H33   H     H_    0.337370 0.952241 0.762611 0.142817
H34   H     H_    0.837312 0.547702 0.262559 0.138632
H35   H     H_    0.837350 0.452275 0.262562 0.137577
H36   H     H_    0.176567 0.454515 0.907989 0.146460
H37   H     H_    0.317110 0.545508 0.901043 0.154644
H38   H     H_    0.190444 0.538190 0.899595 0.146883
H39   H     H_    0.334937 0.818543 0.776301 0.104971
H40   H     H_    0.302820 0.460678 0.894352 0.132648
H41   H     H_    0.817786 0.953905 0.597167 0.154816
H42   H     H_    0.675955 0.045931 0.593010 0.151673
H43   H     H_    0.802821 0.038603 0.604881 0.132976
H44   H     H_    0.690250 0.961104 0.601508 0.131217
H45   H     H_    0.203204 0.904459 0.130400 0.123069
H46   H     H_    0.203358 0.095616 0.130415 0.122831
H47   H     H_    0.703060 0.404454 0.630317 0.123766
H48   H     H_    0.703198 0.595607 0.630354 0.123688
H49   H     H_    0.219889 0.453053 0.117659 0.224079
H50   H     H_    0.815389 0.290331 0.743766 0.122894
H51   H     H_    0.295029 0.547032 0.112727 0.214951
H52   H     H_    0.199465 0.539516 0.108639 0.253735
H53   H     H_    0.314493 0.460681 0.101432 0.244269
H54   H     H_    0.789883 0.952573 0.385408 0.215908
H55   H     H_    0.716952 0.047221 0.383279 0.217235
H56   H     H_    0.811874 0.038718 0.397253 0.250751
H57   H     H_    0.694230 0.961130 0.393926 0.250940
H58   H     H_    0.884734 0.323046 0.961053 0.136566
H59   H     H_    0.919121 0.626155 0.074131 0.128775
H60   H     H_    0.884505 0.677656 0.961224 0.132699
H61   H     H_    0.834762 0.681904 0.276629 0.103738
H62   H     H_    0.921692 0.376319 0.075832 0.146036
H63   H     H_    0.384769 0.822749 0.461239 0.131562
H64   H     H_    0.421771 0.124188 0.575714 0.159036
H65   H     H_    0.385048 0.176851 0.460959 0.134278
H66   H     H_    0.422107 0.876383 0.575990 0.148636
H67   H     H_    0.184589 0.209693 0.756273 0.122004
H68   H     H_    0.165175 0.818300 0.223671 0.103550
H69   H     H_    0.184684 0.790073 0.756104 0.122080
H70   H     H_    0.164895 0.181639 0.223033 0.104280
H71   H     H_    0.684753 0.710071 0.255987 0.121745
H72   H     H_    0.815302 0.709993 0.743854 0.122282
H73   H     H_    0.664737 0.318810 0.723494 0.105197
H74   H     H_    0.684494 0.290459 0.256191 0.121915
H75   H     H_    0.664845 0.681431 0.723302 0.106037
H76   H     H_    0.210724 0.177299 0.634189 0.133676
H77   H     H_    0.174316 0.875620 0.328937 0.122920
H78   H     H_    0.210846 0.822250 0.633942 0.134766
H79   H     H_    0.175116 0.125383 0.329260 0.121705
H80   H     H_    0.710947 0.678091 0.133706 0.134146
H81   H     H_    0.673459 0.376330 0.828595 0.124172
H82   H     H_    0.710387 0.323064 0.134184 0.133937
H83   H     H_    0.834665 0.318373 0.276146 0.102465
H84   H     H_    0.674327 0.624578 0.829001 0.126304
H85   H     H_    0.615466 0.677781 0.038592 0.132554
H86   H     H_    0.577305 0.376804 0.923647 0.143133
H87   H     H_    0.614816 0.323439 0.039089 0.130518
H88   H     H_    0.579062 0.624928 0.924904 0.153707
H89   H     H_    0.115309 0.177011 0.539013 0.131380
H90   H     H_    0.078318 0.876153 0.424140 0.142322
H91   H     H_    0.115374 0.822548 0.538756 0.136152
H92   H     H_    0.080828 0.126486 0.425972 0.129542
H93   H     H_    0.493332 0.709511 0.065243 0.130284
H94   H     H_    0.789283 0.322775 0.865841 0.134565
H95   H     H_    0.472405 0.319351 0.914469 0.117454
H96   H     H_    0.492979 0.291103 0.065514 0.126408
H97   H     H_    0.474034 0.682375 0.915719 0.144317
H98   H     H_    0.993248 0.209081 0.565429 0.124798
H99   H     H_    0.973087 0.818999 0.414890 0.127390
H100  H     H_    0.993328 0.790629 0.565284 0.136131
H101  H     H_    0.975566 0.183949 0.416807 0.119895
H102  H     H_    0.047595 0.441452 0.092855 0.341172
H103  H     H_    0.464137 0.552205 0.072279 0.341490
H104  H     H_    0.038421 0.581646 0.054062 0.332238
O1    O     O_3   0.249990 0.250010 0.000000 -0.497410
O2    O     O_R   0.835430 0.219350 0.353840 -0.625750
O3    O     O_R   0.835430 0.219350 0.646160 -0.633289
O4    O     O_R   0.835430 0.780650 0.353840 -0.636870
O5    O     O_R   0.164550 0.280640 0.853840 -0.629753
O6    O     O_R   0.164550 0.719360 0.146160 -0.629940
O7    O     O_R   0.164550 0.719360 0.853840 -0.626462
O8    O     O_R   0.164550 0.280640 0.146160 -0.635848
O9    O     O_R   0.664550 0.780640 0.353840 -0.625385
O10   O     O_R   0.664550 0.219360 0.646160 -0.629485
O11   O     O_R   0.664550 0.219360 0.353840 -0.636774
O12   O     O_3   0.249990 0.749990 0.000000 -0.497775
O13   O     O_R   0.664550 0.780640 0.646160 -0.634536
O14   O     O_R   0.396160 0.219380 0.914560 -0.637026
O15   O     O_R   0.396160 0.780620 0.085440 -0.634746
O16   O     O_R   0.396160 0.780620 0.914560 -0.638847
O17   O     O_R   0.396160 0.219380 0.085440 -0.636848
O18   O     O_R   0.896160 0.719380 0.414560 -0.636362
O19   O     O_R   0.896160 0.280620 0.585440 -0.635551
O20   O     O_R   0.896160 0.280620 0.414560 -0.638629
O21   O     O_R   0.896160 0.719380 0.585440 -0.637802
O22   O     O_R   0.103840 0.219370 0.085450 -0.636715
O23   O     O_3   0.749990 0.750010 0.500000 -0.497662
O24   O     O_R   0.103840 0.780630 0.914550 -0.638581
O25   O     O_R   0.103840 0.780630 0.085450 -0.638020
O26   O     O_R   0.103840 0.219370 0.914550 -0.637045
O27   O     O_R   0.603840 0.719370 0.585450 -0.636520
O28   O     O_R   0.603840 0.280630 0.414550 -0.634997
O29   O     O_R   0.603840 0.280630 0.585450 -0.637636
O30   O     O_R   0.603840 0.719370 0.414550 -0.636935
O31   O     O_R   0.310730 0.133160 0.000000 -0.637366
O32   O     O_R   0.310730 0.866840 0.000000 -0.636732
O33   O     O_R   0.810730 0.633160 0.500000 -0.636090
O34   O     O_3   0.749990 0.249990 0.500000 -0.497208
O35   O     O_R   0.810730 0.366840 0.500000 -0.636372
O36   O     O_R   0.249970 0.366860 0.060720 -0.620630
O37   O     O_R   0.249970 0.633140 0.939280 -0.633491
O38   O     O_R   0.249970 0.633140 0.060720 -0.633759
O39   O     O_R   0.249970 0.366860 0.939280 -0.649811
O40   O     O_R   0.749970 0.866860 0.560720 -0.648261
O41   O     O_R   0.749970 0.133140 0.439280 -0.621460
O42   O     O_R   0.749970 0.133140 0.560720 -0.648540
O43   O     O_R   0.749970 0.866860 0.439280 -0.618801
O44   O     O_R   0.189290 0.133150 0.000000 -0.635824
O45   O     O_R   0.335430 0.280650 0.146160 -0.626486
O46   O     O_R   0.189290 0.866850 0.000000 -0.636101
O47   O     O_R   0.689290 0.633150 0.500000 -0.637049
O48   O     O_R   0.689290 0.366850 0.500000 -0.636766
O49   O     O_2   0.067980 0.420911 0.966631 -0.656468
O50   O     O_R   0.094524 0.458366 0.075543 -0.774285
O51   O     O_2   0.426700 0.582836 0.954346 -0.658677
O52   O     O_R   0.416293 0.535213 0.058091 -0.806773
O53   O     O_2   0.073624 0.576421 0.928070 -0.635613
O54   O     O_R   0.086572 0.562561 0.049818 -0.780336
O55   O     O_2   0.439053 0.449958 0.919003 -0.627184
O56   O     O_R   0.335430 0.719350 0.853840 -0.627049
O57   O     O_R   0.402766 0.411355 0.024388 -0.816697
O58   O     O_2   0.926257 0.916690 0.540515 -0.642854
O59   O     O_R   0.913115 0.964528 0.437287 -0.805800
O60   O     O_2   0.571046 0.082831 0.530213 -0.663863
O61   O     O_R   0.590826 0.035107 0.427877 -0.803407
O62   O     O_2   0.938246 0.050004 0.579623 -0.616854
O63   O     O_R   0.902815 0.086241 0.472447 -0.815029
O64   O     O_2   0.556300 0.950145 0.567438 -0.631944
O65   O     O_R   0.599537 0.912024 0.464315 -0.810421
O66   O     O_R   0.335430 0.719350 0.146160 -0.635645
O67   O     O_R   0.335430 0.280650 0.853840 -0.632986
O68   O     O_R   0.835430 0.780650 0.646160 -0.627336
Zn1   Zn    Zn3+2 0.249990 0.293780 0.913250 0.987837
Zn2   Zn    Zn3+2 0.336760 0.793760 0.000000 0.966885
Zn3   Zn    Zn3+2 0.836760 0.706240 0.500000 0.968304
Zn4   Zn    Zn3+2 0.836760 0.293760 0.500000 0.968391
Zn5   Zn    Zn3+2 0.163250 0.206230 0.000000 0.967748
Zn6   Zn    Zn3+2 0.163250 0.793770 0.000000 0.966898
Zn7   Zn    Zn3+2 0.663250 0.706230 0.500000 0.967486
Zn8   Zn    Zn3+2 0.663250 0.293770 0.500000 0.967401
Zn9   Zn    Zn3+2 0.249990 0.706220 0.086750 0.983895
Zn10  Zn    Zn3+2 0.249990 0.706220 0.913250 0.997509
Zn11  Zn    Zn3+2 0.249990 0.293780 0.086750 0.993127
Zn12  Zn    Zn3+2 0.749990 0.793780 0.413250 0.993001
Zn13  Zn    Zn3+2 0.749990 0.206220 0.586750 0.988314
Zn14  Zn    Zn3+2 0.749990 0.206220 0.413250 0.992957
Zn15  Zn    Zn3+2 0.749990 0.793780 0.586750 0.989335
Zn16  Zn    Zn3+2 0.336760 0.206240 0.000000 0.967703

loop_
_geom_bond_atom_site_label_1
_geom_bond_atom_site_label_2
_ccdc_geom_bond_type
C181  O22   A    
C14   H20   S    
C75   C117  A    
C3    H62   S    
C176  H9    S    
C65   H49   S    
C9    C143  A    
C155  C182  S    
H5    O61   S    
C101  O16   A    
C136  C162  A    
C188  H60   S    
O46   Zn6   S    
C102  H97   S    
C160  H1    S    
C63   C98   S    
O7    Zn10  S    
C58   C60   S    
C29   C33   A    
C101  C128  S    
C118  C153  A    
C61   C63   S    
C62   C64   S    
C131  C140  A    
C175  C188  A    
C130  C167  S    
C109  C127  A    
C162  C171  A    
O23   Zn12  S    
C21   H32   S    
C78   H71   S    
C11   H18   S    
C4    C12   A    
C147  C155  A    
C74   C83   A    
C87   H80   S    
C153  C180  S    
C100  C109  A    
C21   C22   A    
C161  H17   S    
C163  H39   S    
C82   C124  A    
C80   C121  A    
C45   C47   A    
C22   H33   S    
O17   Zn16  S    
C105  H100  S    
C150  C159  A    
C27   C31   A    
O40   Zn15  S    
C28   C32   A    
C127  C136  A    
C106  H101  S    
C39   H45   S    
C123  C126  S    
C180  O24   A    
C33   C50   S    
C51   O48   A    
C120  C155  A    
C76   C118  A    
C82   C91   A    
C89   H82   S    
C142  C151  A    
C19   C23   A    
C43   C44   A    
C92   O50   S    
C37   C38   A    
C49   O32   A    
C134  O68   A    
C2    H86   S    
C146  C154  A    
C23   H34   S    
C100  H96   S    
C122  C158  A    
C164  C173  A    
C163  C172  A    
C112  C125  S    
C46   C84   A    
O21   Zn3   S    
C50   O33   A    
C75   H68   S    
C31   C48   S    
O41   Zn14  S    
C53   C71   S    
O24   Zn6   S    
C107  C120  A    
C15   C149  A    
C123  O67   A    
C141  C168  A    
O23   Zn15  S    
C66   H52   S    
C129  C156  S    
C69   H56   S    
C68   H92   S    
C79   H93   S    
O19   Zn4   S    
C33   C38   A    
C56   C59   S    
C106  C115  A    
C133  C160  A    
C96   O59   S    
C183  O10   A    
C80   C88   A    
O66   Zn9   S    
O4    Zn12  S    
O1    Zn16  S    
C57   C85   A    
C3    C11   A    
C13   H87   S    
C60   C95   S    
C88   H81   S    
O10   Zn13  S    
C41   C45   A    
C31   C36   A    
C177  O26   A    
C108  C126  A    
C76   C85   A    
C110  C128  A    
C78   C87   A    
C95   O55   D    
C182  O30   A    
O22   Zn5   S    
C61   C96   S    
C162  H28   S    
C101  O56   A    
O5    Zn1   S    
O18   Zn3   S    
C132  C145  S    
C75   C84   A    
C151  C177  S    
C65   C70   S    
C2    C90   A    
C67   C72   S    
H102  O50   S    
C139  C165  A    
C59   H38   S    
C187  H59   S    
C139  C143  A    
C64   C99   S    
C53   O37   A    
O8    Zn11  S    
C7    C172  A    
C62   H42   S    
C10   C188  A    
C5    C170  A    
C62   C73   S    
C133  C147  A    
C93   O51   D    
C149  C158  A    
O1    Zn5   S    
O16   Zn2   S    
O35   Zn4   S    
C185  O13   A    
C135  C161  A    
C5    H64   S    
O32   Zn2   S    
C170  H11   S    
C67   H54   S    
C115  C132  A    
C167  O18   A    
C113  C130  A    
C30   C34   A    
C34   C39   A    
C17   C27   A    
C12   H19   S    
O42   Zn13  S    
C112  O66   A    
C107  C125  A    
C91   H84   S    
C168  H83   S    
C137  C163  A    
C41   H47   S    
C8    C186  A    
C165  C174  A    
C65   H53   S    
O37   Zn10  S    
C6    H65   S    
C60   H40   S    
C166  H72   S    
C184  O28   A    
C171  H12   S    
C174  C187  A    
C62   C97   S    
H103  O52   S    
C3    C176  A    
O6    Zn9   S    
C61   H41   S    
C52   O39   A    
C10   C144  A    
C32   C37   A    
C113  C117  A    
C178  H85   S    
C185  O27   A    
C115  C119  A    
C7    H66   S    
C55   O41   A    
C20   H31   S    
C137  C150  A    
C186  H58   S    
O12   Zn10  S    
C24   H88   S    
C167  O4    A    
C168  C176  A    
C156  O3    A    
C90   H95   S    
C18   C22   A    
C85   H78   S    
C98   O62   D    
C11   C146  A    
C26   C30   A    
C76   H69   S    
C44   H23   S    
C159  C185  S    
C90   C108  A    
C67   H57   S    
C145  O20   A    
C51   O35   A    
O15   Zn2   S    
C180  O7    A    
C50   O47   A    
C34   C36   A    
C148  C157  A    
O27   Zn7   S    
C104  C113  A    
C55   C73   S    
C40   C44   A    
H7    O65   S    
C16   C150  A    
O43   Zn12  S    
O56   Zn10  S    
C116  C151  A    
O12   Zn6   S    
C52   O36   A    
C114  C131  A    
H3    O57   S    
C99   O64   D    
C18   C26   A    
C97   O60   D    
C108  C121  A    
C131  C134  S    
C136  C149  A    
O36   Zn11  S    
C26   C27   A    
O48   Zn8   S    
C123  O14   A    
C54   O40   A    
C12   C147  A    
C63   H43   S    
C28   C29   A    
C58   C93   S    
C35   C103  A    
C145  O2    A    
C58   C71   S    
C20   C25   A    
O34   Zn13  S    
H104  O54   S    
C154  C181  S    
C132  C141  A    
C103  C111  A    
O20   Zn4   S    
C110  C124  A    
C111  C129  A    
C94   O53   D    
O23   Zn7   S    
C160  C169  A    
C69   C73   S    
C111  C116  A    
C59   C94   S    
O31   Zn16  S    
C74   H67   S    
O68   Zn15  S    
C81   C89   A    
C48   O44   A    
C177  O5    A    
C86   H79   S    
C130  C139  A    
C140  C166  A    
C40   H46   S    
C138  C142  A    
C64   H44   S    
C35   C83   A    
C69   H55   S    
C63   C73   S    
C9    C187  A    
C46   C104  A    
C32   C51   S    
O1    Zn1   S    
C95   O57   S    
C66   C71   S    
C45   H26   S    
C79   C107  A    
C19   H30   S    
C43   H24   S    
C134  O21   A    
C5    C14   A    
C58   H37   S    
O34   Zn8   S    
C141  C146  A    
C174  H2    S    
C61   C72   S    
C143  C152  A    
C156  O19   A    
C126  C135  A    
O39   Zn1   S    
C119  C154  A    
C164  H50   S    
C165  H61   S    
C102  C110  A    
C19   C29   A    
C175  H8    S    
C1    O17   A    
C140  C144  A    
C4    H63   S    
C20   C28   A    
C81   C122  A    
C152  C179  S    
C16   H22   S    
C92   O49   D    
C87   C178  A    
O13   Zn15  S    
O26   Zn5   S    
C112  O15   A    
C47   H25   S    
C46   H90   S    
C24   C102  A    
C17   C21   A    
O28   Zn8   S    
C184  O11   A    
C8    C142  A    
C157  C183  S    
C158  C184  S    
C49   O46   A    
C57   C105  A    
C66   H51   S    
C68   C86   A    
C78   C120  A    
O33   Zn3   S    
O29   Zn8   S    
O14   Zn16  S    
C182  O9    A    
C99   O65   S    
C38   C42   A    
C109  C122  A    
C124  C159  A    
C14   C148  A    
C54   O43   A    
C144  C153  A    
C9    H15   S    
C6    C15   A    
C42   H48   S    
O11   Zn14  S    
O12   Zn2   S    
C129  C138  A    
O44   Zn5   S    
C2    C88   A    
O30   Zn7   S    
C96   O58   D    
C179  O25   A    
C23   C25   A    
C81   H74   S    
C121  C157  A    
C37   C41   A    
O45   Zn11  S    
C83   H76   S    
C68   C106  A    
O25   Zn6   S    
C6    C171  A    
C48   O31   A    
C173  C186  A    
C4    C169  A    
C105  C114  A    
C36   C40   A    
C98   O63   S    
C56   H36   S    
C39   C43   A    
C173  H94   S    
O3    Zn13  S    
O38   Zn9   S    
O23   Zn3   S    
C67   C69   S    
C128  C137  A    
C103  H98   S    
C166  C175  A    
C97   O61   S    
C53   O38   A    
C60   C70   S    
C74   C116  A    
C79   C178  A    
O67   Zn1   S    
C93   O52   S    
C114  C118  A    
C161  C170  A    
C57   H91   S    
C183  O29   A    
C77   C86   A    
C135  C148  A    
C56   C70   S    
C77   H70   S    
O47   Zn7   S    
C1    O45   A    
C24   C91   A    
C125  C133  A    
C7    C16   A    
C35   H89   S    
C181  O8    A    
C13   C89   A    
C30   C49   S    
C179  O6    A    
C80   H73   S    
C1    C127  S    
C77   C119  A    
H6    O63   S    
O1    Zn11  S    
C13   C100  A    
C8    H14   S    
C15   H21   S    
O34   Zn4   S    
C18   H29   S    
O9    Zn12  S    
O34   Zn14  S    
C84   H77   S    
C25   H35   S    
C117  C152  A    
C42   C47   A    
C64   C72   S    
C172  H13   S    
C52   C70   S    
C104  H99   S    
O2    Zn14  S    
C94   O54   S    
C54   C72   S    
C65   C66   S    
C82   H75   S    
C55   O42   A    
C169  H10   S    
C138  C164  A    
C17   H27   S    
C56   C92   S    
C10   H16   S    
H4    O59   S    
C59   C71   S    
O12   Zn9   S    
