data_mof_unit_59322.cif
_audit_creation_date              2012-12-10T17:31:29-0500
_audit_creation_method            fapswitch 2.2
_symmetry_space_group_name_H-M    P1
_symmetry_Int_Tables_number       1
_space_group_crystal_system       triclinic
_cell_length_a                    19.047552
_cell_length_b                    18.32282
_cell_length_c                    12.363601
_cell_angle_alpha                 89.998549
_cell_angle_beta                  128.754977
_cell_angle_gamma                 90.002255
_cell_volume                      3364.9333234

loop_
_atom_site_label
_atom_site_type_symbol
_atom_type_description
_atom_site_fract_x
_atom_site_fract_y
_atom_site_fract_z
_atom_type_partial_charge
C1    C     C_R   0.612488 0.898259 0.653028 0.791483
C2    C     C_R   0.612518 0.101719 0.653065 0.791564
C3    C     C_R   0.112471 0.398243 0.653006 0.791452
C4    C     C_R   0.112501 0.601734 0.653042 0.791554
C5    C     C_R   0.247023 0.773588 0.042456 0.069117
C6    C     C_R   0.246939 0.226312 0.042309 0.069066
C7    C     C_R   0.747085 0.273512 0.042569 0.069136
C8    C     C_R   0.746986 0.726372 0.042392 0.069116
C9    C     C_R   0.664248 0.276268 0.019854 0.144332
C10   C     C_R   0.664211 0.723723 0.019865 0.144335
C11   C     C_R   0.164217 0.776285 0.019842 0.144339
C12   C     C_R   0.164199 0.223743 0.019913 0.144366
C13   C     C_R   0.586077 0.250292 0.896420 -0.270885
C14   C     C_R   0.586033 0.749766 0.896526 -0.270942
C15   C     C_R   0.086041 0.750270 0.896460 -0.270928
C16   C     C_R   0.086009 0.249833 0.896639 -0.270995
C17   C     C_R   0.588739 0.219705 0.796286 -0.023599
C18   C     C_R   0.588635 0.780336 0.796319 -0.023599
C19   C     C_R   0.088672 0.719688 0.796291 -0.023597
C20   C     C_R   0.088572 0.280381 0.796373 -0.023579
C21   C     C_R   0.321126 0.809995 0.158773 -0.240200
C22   C     C_R   0.321062 0.189935 0.158636 -0.240142
C23   C     C_R   0.821163 0.309957 0.158846 -0.240258
C24   C     C_R   0.821094 0.689968 0.158699 -0.240201
C25   C     C_R   0.232732 0.848070 0.228054 -0.179674
C26   C     C_R   0.232780 0.151992 0.228187 -0.179744
C27   C     C_R   0.732727 0.348083 0.228020 -0.179617
C28   C     C_R   0.732755 0.651953 0.228104 -0.179697
C29   C     C_R   0.680253 0.157783 0.742683 -0.104840
C30   C     C_R   0.680124 0.842108 0.742503 -0.104857
C31   C     C_R   0.180176 0.657854 0.742573 -0.104884
C32   C     C_R   0.180051 0.342031 0.742393 -0.104955
C33   C     C_R   0.683292 0.999970 0.283668 -0.286341
C34   C     C_R   0.183292 0.499965 0.283668 -0.286348
C35   C     C_R   0.344258 0.000008 0.629077 0.084976
C36   C     C_R   0.844258 0.500009 0.629077 0.085041
C37   C     C_R   0.310335 0.000016 0.701531 -0.247693
C38   C     C_R   0.810335 0.500019 0.701531 -0.247694
C39   C     C_R   0.384323 0.098743 0.342670 0.813026
C40   C     C_R   0.384323 0.901256 0.342674 0.812898
C41   C     C_R   0.884322 0.598742 0.342670 0.812955
C42   C     C_R   0.884323 0.401257 0.342673 0.812817
C43   C     C_R   0.368728 0.000016 0.846311 -0.185677
C44   C     C_R   0.868728 0.500018 0.846311 -0.185638
C45   C     C_R   0.462671 0.000006 0.921545 -0.006367
C46   C     C_R   0.962671 0.500007 0.921545 -0.006348
C47   C     C_R   0.494453 0.999999 0.842370 0.287590
C48   C     C_R   0.994453 0.499998 0.842370 0.287579
C49   C     C_R   0.526162 0.000002 0.071749 -0.038709
C50   C     C_R   0.026162 0.500001 0.071749 -0.038695
C51   C     C_R   0.619464 0.999984 0.138384 0.172247
C52   C     C_R   0.119463 0.499981 0.138384 0.172252
C53   C     C_R   0.648956 0.999981 0.060031 -0.269327
C54   C     C_R   0.148955 0.499977 0.060031 -0.269319
C55   C     C_R   0.588206 0.999992 0.916149 -0.174439
C56   C     C_R   0.088206 0.499990 0.916149 -0.174448
C57   C     C_R   0.501985 0.000013 0.160152 0.019872
C58   C     C_R   0.001985 0.500015 0.160152 0.019928
C59   C     C_R   0.655209 0.999976 0.363914 0.072588
C60   C     C_R   0.155208 0.499973 0.363914 0.072523
C61   C     C_R   0.658693 0.310930 0.115470 -0.186836
C62   C     C_R   0.658717 0.689120 0.115590 -0.186808
C63   C     C_R   0.158692 0.810912 0.115517 -0.186825
C64   C     C_R   0.158743 0.189183 0.115714 -0.186796
C65   C     C_R   0.312760 0.850196 0.245851 -0.021255
C66   C     C_R   0.312753 0.149795 0.245834 -0.021287
C67   C     C_R   0.812771 0.350188 0.245865 -0.021252
C68   C     C_R   0.812756 0.649796 0.245836 -0.021267
C69   C     C_R   0.760574 0.156134 0.760612 -0.179941
C70   C     C_R   0.760351 0.843570 0.760150 -0.180042
C71   C     C_R   0.260444 0.656319 0.760336 -0.179984
C72   C     C_R   0.260228 0.343358 0.759859 -0.179992
C73   C     C_R   0.335159 0.694721 0.867417 -0.146596
C74   C     C_R   0.334855 0.304750 0.866637 -0.146531
C75   C     C_R   0.835350 0.194405 0.867879 -0.146660
C76   C     C_R   0.835026 0.805098 0.867122 -0.146575
C77   C     C_R   0.332341 0.732657 0.961816 -0.170264
C78   C     C_R   0.332071 0.266846 0.961107 -0.170270
C79   C     C_R   0.832516 0.232348 0.962255 -0.170260
C80   C     C_R   0.832225 0.767178 0.961549 -0.170273
C81   C     C_R   0.751914 0.236836 0.945916 0.070963
C82   C     C_R   0.751745 0.762947 0.945587 0.070906
C83   C     C_R   0.251811 0.736978 0.945709 0.070933
C84   C     C_R   0.251658 0.262808 0.945394 0.070889
C85   C     C_R   0.672605 0.204186 0.826930 0.026006
C86   C     C_R   0.672472 0.795731 0.826781 0.026017
C87   C     C_R   0.172523 0.704243 0.826832 0.026012
C88   C     C_R   0.172396 0.295681 0.826705 0.025988
Cu1   Cu    Cu3+1 0.526340 0.000000 0.421010 0.935040
Cu2   Cu    Cu3+1 0.026340 0.500000 0.421010 0.935019
Cu3   Cu    Cu3+1 0.473640 0.000000 0.578990 0.947786
Cu4   Cu    Cu3+1 0.973640 0.500000 0.578990 0.947799
H1    H     H_    0.225726 0.878695 0.295769 0.144213
H2    H     H_    0.225818 0.121422 0.296002 0.144240
H3    H     H_    0.725701 0.378735 0.295690 0.144208
H4    H     H_    0.725768 0.621351 0.295865 0.144218
H5    H     H_    0.720388 0.999972 0.110742 0.154930
H6    H     H_    0.220387 0.499967 0.110742 0.154927
H7    H     H_    0.754781 0.999954 0.335050 0.140462
H8    H     H_    0.254781 0.499946 0.335049 0.140472
H9    H     H_    0.432486 0.000030 0.118030 0.125379
H10   H     H_    0.932486 0.500034 0.118030 0.125388
H11   H     H_    0.298126 0.000009 0.516892 0.114614
H12   H     H_    0.798126 0.500010 0.516892 0.114617
H13   H     H_    0.338695 0.000022 0.896757 0.137569
H14   H     H_    0.838695 0.500025 0.896757 0.137574
H15   H     H_    0.238267 0.000023 0.645061 0.144993
H16   H     H_    0.738267 0.500027 0.645061 0.144999
H17   H     H_    0.618427 0.999994 0.867240 0.204688
H18   H     H_    0.118426 0.499993 0.867240 0.204695
H19   H     H_    0.521560 0.259269 0.873278 0.139314
H20   H     H_    0.521544 0.740869 0.873524 0.139442
H21   H     H_    0.021539 0.759201 0.873393 0.139397
H22   H     H_    0.021537 0.241003 0.873728 0.139517
H23   H     H_    0.595692 0.312722 0.098908 0.128848
H24   H     H_    0.595759 0.687396 0.099164 0.128774
H25   H     H_    0.095712 0.812668 0.099021 0.128799
H26   H     H_    0.095814 0.187513 0.099380 0.128732
H27   H     H_    0.385526 0.811322 0.181276 0.145901
H28   H     H_    0.385455 0.188629 0.181112 0.145918
H29   H     H_    0.885551 0.311320 0.181312 0.145898
H30   H     H_    0.885483 0.688635 0.181173 0.145912
H31   H     H_    0.767246 0.122027 0.695905 0.148655
H32   H     H_    0.767025 0.877639 0.695403 0.148727
H33   H     H_    0.267120 0.622232 0.695613 0.148713
H34   H     H_    0.266902 0.377397 0.695083 0.148776
H35   H     H_    0.394685 0.757850 0.045622 0.125255
H36   H     H_    0.394329 0.241414 0.044598 0.125298
H37   H     H_    0.894918 0.257382 0.046267 0.125214
H38   H     H_    0.894537 0.741908 0.045251 0.125273
H39   H     H_    0.397223 0.692127 0.881504 0.129065
H40   H     H_    0.396828 0.307135 0.880435 0.129094
H41   H     H_    0.897468 0.191690 0.882138 0.129044
H42   H     H_    0.897053 0.807621 0.881091 0.129081
H43   H     H_    0.704458 0.999962 0.475884 0.115678
H44   H     H_    0.204458 0.499957 0.475884 0.115706
N1    N     N_R   0.566260 0.000000 0.302220 -0.178971
N2    N     N_R   0.066260 0.500000 0.302220 -0.178976
N3    N     N_R   0.434410 0.000000 0.697680 -0.203562
N4    N     N_R   0.934410 0.500000 0.697680 -0.203565
O1    O     O_R   0.608610 0.924520 0.551740 -0.582798
O2    O     O_R   0.608610 0.075480 0.551740 -0.582730
O3    O     O_R   0.108610 0.424520 0.551740 -0.582798
O4    O     O_R   0.108610 0.575480 0.551740 -0.582732
O5    O     O_R   0.564110 0.924510 0.685150 -0.592376
O6    O     O_R   0.564110 0.075490 0.685150 -0.592345
O7    O     O_R   0.064110 0.424510 0.685150 -0.592378
O8    O     O_R   0.064110 0.575490 0.685150 -0.592350
O9    O     O_R   0.435880 0.075470 0.314850 -0.593609
O10   O     O_R   0.435880 0.924530 0.314850 -0.593604
O11   O     O_R   0.935880 0.575470 0.314850 -0.593615
O12   O     O_R   0.935880 0.424530 0.314850 -0.593610
O13   O     O_R   0.391380 0.075460 0.448260 -0.578608
O14   O     O_R   0.391380 0.924540 0.448260 -0.578544
O15   O     O_R   0.891380 0.575460 0.448260 -0.578578
O16   O     O_R   0.891380 0.424540 0.448260 -0.578512
C89   C     C_1   0.504968 0.220059 0.656536 0.258520
N5    N     N_1   0.437410 0.222642 0.545164 -0.297109
C90   C     C_1   0.504805 0.780032 0.656637 0.258661
N6    N     N_1   0.437192 0.777479 0.545323 -0.296991
C91   C     C_1   0.004867 0.720007 0.656578 0.258596
N7    N     N_1   0.937278 0.722568 0.545239 -0.297043
C92   C     C_1   0.004692 0.280105 0.656734 0.258757
N8    N     N_1   0.937042 0.277571 0.545465 -0.296908

loop_
_geom_bond_atom_site_label_1
_geom_bond_atom_site_label_2
_ccdc_geom_bond_type
C26   H2    S    
C83   C87   A    
C73   H39   S    
C3    O7    A    
C89   N5    T    
C74   H40   S    
Cu4   O8    S    
C14   C18   A    
C27   H3    S    
C92   N8    T    
C25   C63   A    
C78   H36   S    
C91   N7    T    
C64   H26   S    
C23   H29   S    
C14   H20   S    
C18   C86   A    
C39   O13   A    
C2    C29   S    
C9    C61   A    
C1    O1    A    
C28   C68   A    
C37   H15   S    
C35   H11   S    
C43   H13   S    
C63   H25   S    
C7    C23   A    
C13   H19   S    
C22   H28   S    
Cu1   O2    S    
C6    C22   A    
C49   C57   A    
C48   C56   A    
C19   C91   S    
C23   C67   A    
C29   C69   A    
C26   C64   A    
C22   C66   A    
C9    C13   A    
C18   C90   S    
C27   C61   A    
C30   C70   A    
C15   C19   A    
C11   C15   A    
C3    O3    A    
C12   C16   A    
C44   C46   A    
C49   C51   A    
C61   H23   S    
C34   H8    S    
C15   H21   S    
C58   H10   S    
C30   C86   A    
C17   C89   S    
C60   H44   S    
C29   C85   A    
Cu2   O3    S    
C77   H35   S    
C35   N3    A    
C58   N2    A    
C45   C47   A    
C33   C59   A    
C55   H17   S    
Cu4   O7    S    
C34   C60   A    
C40   O14   A    
C10   C62   A    
C56   H18   S    
Cu2   N2    S    
C52   C54   A    
C41   C68   S    
C46   C48   A    
C53   C55   A    
Cu2   Cu4   S    
C54   C56   A    
Cu1   O9    S    
C31   C87   A    
C48   N4    A    
C57   N1    A    
C26   C66   A    
C76   C80   A    
C6    C84   A    
Cu3   O14   S    
Cu2   O12   S    
C10   C14   A    
C79   C81   A    
C76   H42   S    
C53   H5    S    
C82   C86   A    
C20   C92   S    
Cu3   O13   S    
C77   C83   A    
C33   C51   A    
C72   H34   S    
C33   H7    S    
C4    O8    A    
C50   C58   A    
C37   C43   A    
C42   O16   A    
C38   C44   A    
C41   O15   A    
C70   H32   S    
C43   C45   A    
C50   C52   A    
C90   N6    T    
C45   C49   A    
C25   H1    S    
C16   C20   A    
C24   H30   S    
C40   O10   A    
Cu4   O16   S    
C36   N4    A    
Cu3   N3    S    
C72   C74   A    
Cu1   O10   S    
C7    C81   A    
C80   H38   S    
Cu1   N1    S    
C40   C65   S    
C69   H31   S    
C70   C76   A    
C42   C67   S    
C2    O2    A    
C39   C66   S    
C17   C85   A    
C32   C88   A    
Cu1   Cu3   S    
C1    O5    A    
C47   N3    A    
Cu4   N4    S    
Cu3   O5    S    
C42   O12   A    
C47   C55   A    
C7    C9    A    
C12   C64   A    
C46   C50   A    
C73   C77   A    
C35   C37   A    
C54   H6    S    
C84   C88   A    
Cu2   O11   S    
C16   H22   S    
C4    O4    A    
C75   H41   S    
C5    C83   A    
C5    C11   A    
C41   O11   A    
C44   H14   S    
C2    O6    A    
C57   H9    S    
C39   O9    A    
C34   C52   A    
C13   C17   A    
C28   H4    S    
C21   C65   A    
C79   H37   S    
C36   C38   A    
C19   C87   A    
C21   H27   S    
C6    C12   A    
C36   H12   S    
Cu1   O1    S    
C20   C88   A    
C59   H43   S    
C1    C30   S    
C8    C24   A    
C80   C82   A    
C69   C75   A    
Cu4   O15   S    
C38   H16   S    
C3    C32   S    
C81   C85   A    
C4    C31   S    
C27   C67   A    
C62   H24   S    
C24   C68   A    
C78   C84   A    
C8    C82   A    
C5    C21   A    
C8    C10   A    
C74   C78   A    
C71   C73   A    
C25   C65   A    
C59   N1    A    
C71   H33   S    
C51   C53   A    
C11   C63   A    
C75   C79   A    
Cu3   O6    S    
Cu2   O4    S    
C60   N2    A    
C31   C71   A    
C32   C72   A    
C28   C62   A    
