data_mof_unit_62693.cif
_audit_creation_date              2012-12-10T20:40:40-0500
_audit_creation_method            fapswitch 2.2
_symmetry_space_group_name_H-M    P1
_symmetry_Int_Tables_number       1
_space_group_crystal_system       triclinic
_cell_length_a                    28.11986
_cell_length_b                    28.120352
_cell_length_c                    59.991641
_cell_angle_alpha                 89.999894
_cell_angle_beta                  89.999901
_cell_angle_gamma                 90.000037
_cell_volume                      47437.8118846

loop_
_atom_site_label
_atom_site_type_symbol
_atom_type_description
_atom_site_fract_x
_atom_site_fract_y
_atom_site_fract_z
_atom_type_partial_charge
C1    C     C_R   0.500000 0.999989 0.189637 0.518768
C2    C     C_R   0.498468 0.043035 0.653087 -0.116311
C3    C     C_R   0.499999 0.999915 0.976298 0.033519
C4    C     C_R   0.499993 0.999957 0.523702 0.033520
C5    C     C_R   0.499991 0.999938 0.476300 0.033516
C6    C     C_R   0.999998 0.499915 0.523700 0.033506
C7    C     C_R   0.999993 0.499894 0.476298 0.033510
C8    C     C_R   0.914255 0.508460 0.024033 -0.109598
C9    C     C_R   0.085732 0.508459 0.975971 -0.109603
C10   C     C_R   0.508342 0.914141 0.024024 -0.109592
C11   C     C_R   0.508675 0.085635 0.975976 -0.109600
C12   C     C_R   0.085728 0.491410 0.024032 -0.109610
C13   C     C_R   0.956958 0.498457 0.346912 -0.115876
C14   C     C_R   0.914255 0.491455 0.975967 -0.109598
C15   C     C_R   0.491642 0.085646 0.024038 -0.109588
C16   C     C_R   0.491325 0.914195 0.975958 -0.109591
C17   C     C_R   0.414260 0.991397 0.524034 -0.109593
C18   C     C_R   0.585733 0.991471 0.475969 -0.109597
C19   C     C_R   0.991264 0.414201 0.524040 -0.109598
C20   C     C_R   0.991699 0.585652 0.475960 -0.109601
C21   C     C_R   0.585726 0.008518 0.524031 -0.109598
C22   C     C_R   0.414249 0.008400 0.475969 -0.109585
C23   C     C_R   0.008735 0.585629 0.524022 -0.109606
C24   C     C_R   0.043037 0.498406 0.653085 -0.115461
C25   C     C_R   0.008282 0.414136 0.475975 -0.109605
C26   C     C_R   0.590958 0.909048 0.250001 0.518073
C27   C     C_R   0.409044 0.090955 0.750000 0.518389
C28   C     C_R   0.090952 0.590958 0.250002 0.517880
C29   C     C_R   0.909045 0.409045 0.750000 0.517603
C30   C     C_R   0.409048 0.090958 0.249998 0.518078
C31   C     C_R   0.590956 0.909045 0.750000 0.518389
C32   C     C_R   0.909042 0.409048 0.249999 0.517886
C33   C     C_R   0.090955 0.590954 0.750000 0.517602
C34   C     C_R   0.590956 0.090955 0.750000 0.518580
C35   C     C_R   0.501501 0.043016 0.346920 -0.115321
C36   C     C_R   0.409042 0.909048 0.250001 0.517886
C37   C     C_R   0.090955 0.409045 0.750000 0.517396
C38   C     C_R   0.909048 0.590958 0.250002 0.518079
C39   C     C_R   0.409044 0.909044 0.750000 0.518580
C40   C     C_R   0.590952 0.090958 0.249998 0.517880
C41   C     C_R   0.909045 0.590955 0.750000 0.517395
C42   C     C_R   0.090958 0.409048 0.249999 0.518072
C43   C     C_R   0.153120 0.708706 0.241461 0.087445
C44   C     C_R   0.846837 0.291319 0.758534 0.087557
C45   C     C_R   0.291381 0.153253 0.241411 0.087452
C46   C     C_R   0.501531 0.956959 0.653089 -0.116307
C47   C     C_R   0.694434 0.832580 0.768201 0.087376
C48   C     C_R   0.832515 0.305640 0.231771 0.087384
C49   C     C_R   0.153163 0.708681 0.758534 0.087556
C50   C     C_R   0.694511 0.832655 0.231830 0.087420
C51   C     C_R   0.305566 0.167420 0.768201 0.087376
C52   C     C_R   0.153171 0.291326 0.758545 0.087442
C53   C     C_R   0.846887 0.708713 0.241471 0.087559
C54   C     C_R   0.305547 0.832596 0.768195 0.087399
C55   C     C_R   0.708613 0.153261 0.241401 0.087339
C56   C     C_R   0.846829 0.708674 0.758545 0.087442
C57   C     C_R   0.043040 0.501372 0.346914 -0.115897
C58   C     C_R   0.167468 0.305622 0.231776 0.087404
C59   C     C_R   0.694452 0.167403 0.768195 0.087398
C60   C     C_R   0.305506 0.832639 0.231824 0.087398
C61   C     C_R   0.667404 0.194451 0.731805 0.087397
C62   C     C_R   0.332515 0.805640 0.268229 0.087385
C63   C     C_R   0.791324 0.653172 0.741455 0.087442
C64   C     C_R   0.194512 0.332655 0.268170 0.087420
C65   C     C_R   0.332596 0.805549 0.731805 0.087397
C66   C     C_R   0.653120 0.208706 0.258539 0.087445
C67   C     C_R   0.208676 0.346828 0.741455 0.087442
C68   C     C_R   0.956964 0.501560 0.653085 -0.115461
C69   C     C_R   0.791380 0.653253 0.258589 0.087452
C70   C     C_R   0.667468 0.805622 0.268223 0.087405
C71   C     C_R   0.332579 0.194433 0.731799 0.087376
C72   C     C_R   0.805506 0.332639 0.268176 0.087399
C73   C     C_R   0.208682 0.653164 0.741465 0.087558
C74   C     C_R   0.346888 0.208713 0.258529 0.087559
C75   C     C_R   0.667420 0.805567 0.731799 0.087375
C76   C     C_R   0.208613 0.653261 0.258599 0.087339
C77   C     C_R   0.791318 0.346836 0.741465 0.087558
C78   C     C_R   0.118291 0.673285 0.241307 -0.100144
C79   C     C_R   0.001512 0.456958 0.846913 -0.115458
C80   C     C_R   0.881688 0.326719 0.758679 -0.099814
C81   C     C_R   0.326759 0.118379 0.241277 -0.099473
C82   C     C_R   0.659518 0.867916 0.768016 -0.099646
C83   C     C_R   0.867878 0.340529 0.231966 -0.099663
C84   C     C_R   0.118311 0.673281 0.758678 -0.099814
C85   C     C_R   0.659570 0.867965 0.232004 -0.100035
C86   C     C_R   0.340482 0.132084 0.768017 -0.099646
C87   C     C_R   0.118319 0.326726 0.758689 -0.100039
C88   C     C_R   0.881717 0.673292 0.241317 -0.099919
C89   C     C_R   0.340463 0.867933 0.768011 -0.099548
C90   C     C_R   0.001518 0.543016 0.153080 -0.115321
C91   C     C_R   0.673234 0.118387 0.241267 -0.099696
C92   C     C_R   0.881681 0.673274 0.758689 -0.100039
C93   C     C_R   0.132106 0.340511 0.231971 -0.099569
C94   C     C_R   0.659536 0.132067 0.768011 -0.099548
C95   C     C_R   0.340447 0.867950 0.231999 -0.100124
C96   C     C_R   0.632068 0.159535 0.731989 -0.099549
C97   C     C_R   0.367878 0.840528 0.268034 -0.099662
C98   C     C_R   0.826724 0.618320 0.741311 -0.100042
C99   C     C_R   0.159570 0.367966 0.267996 -0.100035
C100  C     C_R   0.367932 0.840465 0.731989 -0.099548
C101  C     C_R   0.456963 0.001541 0.846913 -0.116310
C102  C     C_R   0.618291 0.173285 0.258693 -0.100143
C103  C     C_R   0.173276 0.381680 0.741310 -0.100042
C104  C     C_R   0.826759 0.618379 0.258722 -0.099474
C105  C     C_R   0.632106 0.840511 0.268028 -0.099569
C106  C     C_R   0.367916 0.159517 0.731984 -0.099645
C107  C     C_R   0.840447 0.367950 0.268001 -0.100123
C108  C     C_R   0.173283 0.618312 0.741321 -0.099812
C109  C     C_R   0.381717 0.173291 0.258683 -0.099920
C110  C     C_R   0.632084 0.840483 0.731984 -0.099644
C111  C     C_R   0.173234 0.618387 0.258732 -0.099695
C112  C     C_R   0.500000 0.999999 0.810363 0.517871
C113  C     C_R   0.543040 0.001388 0.153085 -0.115898
C114  C     C_R   0.826718 0.381688 0.741321 -0.099812
C115  C     C_R   0.127969 0.628017 0.250013 -0.010830
C116  C     C_R   0.872008 0.372009 0.750000 -0.010573
C117  C     C_R   0.372031 0.128017 0.249987 -0.010702
C118  C     C_R   0.627995 0.872006 0.750000 -0.010841
C119  C     C_R   0.871984 0.372030 0.249990 -0.010998
C120  C     C_R   0.127992 0.627991 0.750000 -0.010573
C121  C     C_R   0.628016 0.872029 0.250010 -0.011070
C122  C     C_R   0.372005 0.127994 0.750000 -0.010841
C123  C     C_R   0.127992 0.372008 0.750000 -0.010704
C124  C     C_R   0.998487 0.543035 0.846916 -0.115462
C125  C     C_R   0.872031 0.628017 0.250013 -0.010703
C126  C     C_R   0.372005 0.872006 0.750000 -0.010915
C127  C     C_R   0.627969 0.128017 0.249987 -0.010830
C128  C     C_R   0.872008 0.627992 0.750000 -0.010704
C129  C     C_R   0.128016 0.372029 0.249990 -0.011070
C130  C     C_R   0.627995 0.127994 0.750000 -0.010915
C131  C     C_R   0.371984 0.872029 0.250010 -0.010998
C132  C     C_R   0.198618 0.698755 0.250034 0.041074
C133  C     C_R   0.801316 0.301316 0.750000 0.041092
C134  C     C_R   0.301383 0.198754 0.249966 0.041109
C135  C     C_R   0.998475 0.456939 0.153093 -0.116452
C136  C     C_R   0.698688 0.801312 0.750000 0.040828
C137  C     C_R   0.801239 0.301388 0.249969 0.040849
C138  C     C_R   0.198684 0.698684 0.750000 0.041092
C139  C     C_R   0.698762 0.801388 0.250031 0.040703
C140  C     C_R   0.301312 0.198688 0.750000 0.040828
C141  C     C_R   0.198685 0.301316 0.750000 0.041055
C142  C     C_R   0.801382 0.698754 0.250034 0.041109
C143  C     C_R   0.301311 0.801311 0.750000 0.040678
C144  C     C_R   0.698618 0.198755 0.249966 0.041074
C145  C     C_R   0.801315 0.698684 0.750000 0.041055
C146  C     C_R   0.543038 0.998424 0.846912 -0.116309
C147  C     C_R   0.198762 0.301388 0.249969 0.040703
C148  C     C_R   0.698689 0.198689 0.750000 0.040679
C149  C     C_R   0.301239 0.801388 0.250031 0.040848
C150  C     C_1   0.234778 0.734943 0.250036 0.084322
C151  C     C_1   0.765142 0.265142 0.750000 0.084312
C152  C     C_1   0.265222 0.234942 0.249964 0.084343
C153  C     C_1   0.734862 0.765138 0.750000 0.084260
C154  C     C_1   0.765056 0.265224 0.249964 0.084262
C155  C     C_1   0.234858 0.734858 0.750000 0.084312
C156  C     C_1   0.734944 0.765223 0.250035 0.084208
C157  C     C_R   0.456959 0.998442 0.153087 -0.115877
C158  C     C_1   0.265138 0.234862 0.750000 0.084261
C159  C     C_1   0.234859 0.265142 0.750000 0.084291
C160  C     C_1   0.765222 0.734942 0.250036 0.084343
C161  C     C_1   0.265137 0.765137 0.750000 0.084205
C162  C     C_1   0.734778 0.234942 0.249964 0.084322
C163  C     C_1   0.765141 0.734858 0.750000 0.084291
C164  C     C_1   0.234945 0.265223 0.249964 0.084208
C165  C     C_1   0.734863 0.234863 0.750000 0.084205
C166  C     C_1   0.265056 0.765223 0.250035 0.084262
C167  C     C_R   0.457720 0.003234 0.417074 0.445645
C168  C     C_R   0.499994 0.999951 0.382018 0.239547
C169  C     C_R   0.542264 0.003331 0.582927 0.445628
C170  C     C_R   0.003216 0.457594 0.417076 0.445660
C171  C     C_R   0.003426 0.542204 0.582921 0.445644
C172  C     C_R   0.542263 0.996629 0.417074 0.445631
C173  C     C_R   0.457728 0.996638 0.582928 0.445628
C174  C     C_R   0.996769 0.542148 0.417070 0.445616
C175  C     C_R   0.996576 0.457682 0.582930 0.445647
C176  C     C_R   0.957726 0.496665 0.917074 0.445645
C177  C     C_R   0.042261 0.496602 0.082927 0.445630
C178  C     C_R   0.496603 0.957680 0.917068 0.445629
C179  C     C_R   0.499998 0.999992 0.617984 0.239541
C180  C     C_R   0.496743 0.042146 0.082929 0.445617
C181  C     C_R   0.042266 0.503302 0.917075 0.445647
C182  C     C_R   0.957722 0.503262 0.082927 0.445644
C183  C     C_R   0.503398 0.042206 0.917077 0.445626
C184  C     C_R   0.503244 0.957596 0.082923 0.445660
C185  C     C_R   0.498441 0.956774 0.370213 0.124844
C186  C     C_R   0.498418 0.043179 0.629781 0.124809
C187  C     C_R   0.956809 0.498370 0.370218 0.124741
C188  C     C_R   0.043184 0.498341 0.629780 0.124668
C189  C     C_R   0.501548 0.043146 0.370226 0.124624
C190  C     C_R   0.999997 0.499863 0.382017 0.239552
C191  C     C_R   0.501579 0.956809 0.629783 0.124797
C192  C     C_R   0.043186 0.501379 0.370220 0.124729
C193  C     C_R   0.956817 0.501596 0.629779 0.124668
C194  C     C_R   0.001560 0.456808 0.870219 0.124660
C195  C     C_R   0.001565 0.543146 0.129774 0.124625
C196  C     C_R   0.456815 0.001577 0.870218 0.124804
C197  C     C_R   0.543186 0.001395 0.129779 0.124728
C198  C     C_R   0.998437 0.543179 0.870221 0.124672
C199  C     C_R   0.998424 0.456775 0.129788 0.124845
C200  C     C_R   0.543185 0.998360 0.870217 0.124804
C201  C     C_R   0.000001 0.499961 0.617981 0.239547
C202  C     C_R   0.456810 0.998354 0.129781 0.124740
C203  C     C_R   0.999998 0.499992 0.882019 0.239551
C204  C     C_R   1.000000 0.499998 0.189637 0.518738
C205  C     C_R   0.999994 0.499952 0.117983 0.239547
C206  C     C_R   0.500000 0.999961 0.882016 0.239540
C207  C     C_R   0.499997 0.999863 0.117982 0.239550
C208  C     C_R   0.499991 0.999933 0.452496 -0.067584
C209  C     C_R   0.499994 0.999969 0.547506 -0.067582
C210  C     C_R   0.999992 0.499884 0.452494 -0.067586
C211  C     C_R   0.000000 0.499926 0.547504 -0.067590
C212  C     C_R   0.999994 0.499968 0.952496 -0.067590
C213  C     C_R   0.999991 0.499933 0.047505 -0.067587
C214  C     C_R   0.500000 0.999926 0.952494 -0.067582
C215  C     C_R   0.000000 0.500000 0.810363 0.519622
C216  C     C_R   0.499993 0.999884 0.047504 -0.067584
C217  C     C_R   0.456446 0.004202 0.440623 0.030758
C218  C     C_R   0.543535 0.004294 0.559377 0.030757
C219  C     C_R   0.004178 0.456327 0.440626 0.030756
C220  C     C_R   0.004407 0.543463 0.559371 0.030752
C221  C     C_R   0.543536 0.995658 0.440624 0.030751
C222  C     C_R   0.456454 0.995654 0.559379 0.030756
C223  C     C_R   0.995804 0.543433 0.440619 0.030753
C224  C     C_R   0.995595 0.456400 0.559381 0.030751
C225  C     C_R   0.956451 0.495683 0.940623 0.030752
C226  C     C_R   0.000000 0.499999 0.689636 0.519624
C227  C     C_R   0.043534 0.495628 0.059378 0.030751
C228  C     C_R   0.495625 0.956397 0.940617 0.030756
C229  C     C_R   0.495776 0.043430 0.059380 0.030753
C230  C     C_R   0.043538 0.504264 0.940625 0.030752
C231  C     C_R   0.956449 0.504233 0.059378 0.030759
C232  C     C_R   0.504377 0.043466 0.940626 0.030757
C233  C     C_R   0.504208 0.956329 0.059373 0.030756
C234  C     C_R   0.413594 0.009628 0.452794 0.124472
C235  C     C_R   0.586380 0.009764 0.547205 0.124483
C236  C     C_R   0.009514 0.413470 0.452800 0.124477
C237  C     C_R   1.000000 0.499989 0.310363 0.518769
C238  C     C_R   0.009972 0.586290 0.547196 0.124448
C239  C     C_R   0.586387 0.990231 0.452794 0.124462
C240  C     C_R   0.413608 0.990173 0.547209 0.124482
C241  C     C_R   0.990464 0.586299 0.452785 0.124452
C242  C     C_R   0.990032 0.413562 0.547215 0.124447
C243  C     C_R   0.913602 0.490232 0.952793 0.124447
C244  C     C_R   0.086381 0.490170 0.047207 0.124459
C245  C     C_R   0.490093 0.913554 0.952784 0.124483
C246  C     C_R   0.490406 0.086292 0.047213 0.124455
C247  C     C_R   0.086387 0.509704 0.952796 0.124448
C248  C     C_R   0.500000 1.000000 0.689637 0.517867
C249  C     C_R   0.913601 0.509689 0.047207 0.124469
C250  C     C_R   0.509911 0.086297 0.952801 0.124484
C251  C     C_R   0.509574 0.913476 0.047198 0.124480
C252  C     C_R   0.499997 0.999986 0.335033 -0.018712
C253  C     C_R   0.500000 0.999998 0.664968 -0.018749
C254  C     C_R   0.999999 0.499944 0.335032 -0.018712
C255  C     C_R   0.000000 0.499990 0.664967 -0.018672
C256  C     C_R   1.000000 0.499998 0.835033 -0.018672
C257  C     C_R   0.999997 0.499986 0.164968 -0.018710
C258  C     C_R   0.500000 0.999989 0.835031 -0.018750
C259  C     C_R   0.500000 0.999998 0.310363 0.518738
C260  C     C_R   0.499999 0.999944 0.164967 -0.018713
C261  C     C_R   0.956522 0.501838 0.011849 0.006542
C262  C     C_R   0.043463 0.501836 0.988153 0.006539
C263  C     C_R   0.501802 0.956426 0.011843 0.006551
C264  C     C_R   0.501970 0.043375 0.988155 0.006548
C265  C     C_R   0.043462 0.498046 0.011849 0.006538
C266  C     C_R   0.956522 0.498068 0.988152 0.006540
C267  C     C_R   0.498187 0.043372 0.011851 0.006551
C268  C     C_R   0.498026 0.956443 0.988147 0.006553
C269  C     C_R   0.456523 0.998038 0.511849 0.006551
C270  C     C_R   0.498492 0.956939 0.346907 -0.116453
C271  C     C_R   0.543463 0.998077 0.488153 0.006548
C272  C     C_R   0.997995 0.456445 0.511851 0.006542
C273  C     C_R   0.998216 0.543373 0.488147 0.006540
C274  C     C_R   0.543462 0.001866 0.511848 0.006550
C275  C     C_R   0.456520 0.001807 0.488153 0.006552
C276  C     C_R   0.002000 0.543374 0.511843 0.006537
C277  C     C_R   0.001772 0.456425 0.488155 0.006541
C278  C     C_R   0.999992 0.499938 0.023702 0.033511
C279  C     C_R   0.999993 0.499957 0.976300 0.033507
C280  C     C_R   0.499994 0.999894 0.023700 0.033515
H1    H     H_    0.083424 0.681412 0.234648 0.165953
H2    H     H_    0.916590 0.681424 0.234667 0.165983
H3    H     H_    0.343321 0.891795 0.782119 0.166981
H4    H     H_    0.681394 0.083523 0.234615 0.167174
H5    H     H_    0.916560 0.681430 0.765325 0.165937
H6    H     H_    0.108237 0.343368 0.217866 0.166971
H7    H     H_    0.656678 0.108205 0.782119 0.166981
H8    H     H_    0.343328 0.891787 0.217882 0.166472
H9    H     H_    0.608205 0.156677 0.717881 0.166980
H10   H     H_    0.391734 0.843398 0.282144 0.166688
H11   H     H_    0.818568 0.583441 0.734675 0.165935
H12   H     H_    0.916574 0.318558 0.765306 0.165965
H13   H     H_    0.156704 0.391816 0.282108 0.166742
H14   H     H_    0.391795 0.843323 0.717882 0.166981
H15   H     H_    0.583424 0.181412 0.265351 0.165953
H16   H     H_    0.181432 0.416559 0.734675 0.165935
H17   H     H_    0.818594 0.583510 0.265367 0.167209
H18   H     H_    0.608237 0.843368 0.282134 0.166969
H19   H     H_    0.391765 0.156644 0.717871 0.166692
H20   H     H_    0.843327 0.391787 0.282118 0.166473
H21   H     H_    0.181445 0.583427 0.734693 0.165965
H22   H     H_    0.416590 0.181424 0.265333 0.165982
H23   H     H_    0.318594 0.083510 0.234633 0.167210
H24   H     H_    0.608235 0.843355 0.717871 0.166693
H25   H     H_    0.181394 0.583523 0.265385 0.167174
H26   H     H_    0.818556 0.416572 0.734693 0.165965
H27   H     H_    0.502731 0.076647 0.338149 0.169460
H28   H     H_    0.502782 0.923336 0.661865 0.168131
H29   H     H_    0.076667 0.502573 0.338139 0.168843
H30   H     H_    0.923340 0.502852 0.661860 0.169464
H31   H     H_    0.497263 0.923319 0.338127 0.168132
H32   H     H_    0.497217 0.076660 0.661862 0.168126
H33   H     H_    0.923331 0.497276 0.338136 0.168745
H34   H     H_    0.656647 0.891765 0.782129 0.166689
H35   H     H_    0.076660 0.497123 0.661861 0.169464
H36   H     H_    0.997252 0.576660 0.838141 0.169466
H37   H     H_    0.997233 0.423321 0.161874 0.168132
H38   H     H_    0.576661 0.997156 0.838136 0.168126
H39   H     H_    0.423333 0.997248 0.161863 0.168742
H40   H     H_    0.002748 0.423334 0.838137 0.169470
H41   H     H_    0.002761 0.576646 0.161851 0.169460
H42   H     H_    0.423339 0.002819 0.838137 0.168126
H43   H     H_    0.576667 0.002601 0.161860 0.168842
H44   H     H_    0.880746 0.514693 0.015837 0.140656
H45   H     H_    0.891734 0.343399 0.217856 0.166687
H46   H     H_    0.119242 0.514679 0.984168 0.140664
H47   H     H_    0.514503 0.880623 0.015825 0.140652
H48   H     H_    0.514968 0.119128 0.984175 0.140650
H49   H     H_    0.119236 0.485177 0.015836 0.140659
H50   H     H_    0.880744 0.485228 0.984163 0.140675
H51   H     H_    0.485478 0.119170 0.015845 0.140671
H52   H     H_    0.485034 0.880693 0.984151 0.140651
H53   H     H_    0.380754 0.985146 0.515840 0.140656
H54   H     H_    0.619246 0.985262 0.484165 0.140663
H55   H     H_    0.984948 0.380705 0.515848 0.140670
H56   H     H_    0.083426 0.681442 0.765306 0.165965
H57   H     H_    0.985558 0.619180 0.484153 0.140666
H58   H     H_    0.619231 0.014761 0.515834 0.140646
H59   H     H_    0.380735 0.014608 0.484164 0.140660
H60   H     H_    0.015053 0.619117 0.515822 0.140669
H61   H     H_    0.014420 0.380613 0.484174 0.140647
H62   H     H_    0.656703 0.891816 0.217892 0.166743
H63   H     H_    0.343354 0.108235 0.782129 0.166689
H64   H     H_    0.083440 0.318570 0.765325 0.165937
I1    I     I_    0.134448 0.776582 0.228748 -0.212300
I2    I     I_    0.865572 0.776600 0.228775 -0.211800
I3    I     I_    0.260797 0.828098 0.796586 -0.210755
I4    I     I_    0.776494 0.134660 0.228670 -0.213744
I5    I     I_    0.865492 0.776576 0.771229 -0.212857
I6    I     I_    0.171993 0.260914 0.203373 -0.210878
I7    I     I_    0.739202 0.171902 0.796586 -0.210756
I8    I     I_    0.260768 0.828126 0.203430 -0.212203
I9    I     I_    0.671902 0.239200 0.703414 -0.210759
I10   I     I_    0.327964 0.760959 0.296642 -0.212441
I11   I     I_    0.723420 0.634510 0.728771 -0.212857
I12   I     I_    0.865512 0.223405 0.771201 -0.212345
I13   I     I_    0.239278 0.328169 0.296556 -0.210669
I14   I     I_    0.328099 0.760800 0.703414 -0.210754
I15   I     I_    0.634448 0.276581 0.271252 -0.212300
I16   I     I_    0.276580 0.365489 0.728771 -0.212857
I17   I     I_    0.723488 0.634641 0.271302 -0.213225
I18   I     I_    0.671993 0.760914 0.296627 -0.210884
I19   I     I_    0.328054 0.239153 0.703399 -0.212351
I20   I     I_    0.760767 0.328126 0.296570 -0.212199
I21   I     I_    0.276599 0.634491 0.728799 -0.212342
I22   I     I_    0.365572 0.276600 0.271224 -0.211800
I23   I     I_    0.223488 0.134641 0.228697 -0.213223
I24   I     I_    0.671946 0.760847 0.703399 -0.212348
I25   I     I_    0.276493 0.634660 0.271330 -0.213745
I26   I     I_    0.723402 0.365509 0.728799 -0.212342
I27   I     I_    0.504192 0.109347 0.387025 -0.191198
I28   I     I_    0.504268 0.890592 0.612999 -0.190174
I29   I     I_    0.109404 0.503904 0.387009 -0.190733
I30   I     I_    0.890607 0.504354 0.612990 -0.191136
I31   I     I_    0.495795 0.890546 0.386989 -0.190097
I32   I     I_    0.495727 0.109391 0.612993 -0.190176
I33   I     I_    0.890590 0.495767 0.387004 -0.190604
I34   I     I_    0.739155 0.828053 0.796601 -0.212349
I35   I     I_    0.109394 0.495563 0.612992 -0.191135
I36   I     I_    0.995778 0.609389 0.887012 -0.191140
I37   I     I_    0.995750 0.390548 0.113012 -0.190112
I38   I     I_    0.609399 0.995613 0.887003 -0.190174
I39   I     I_    0.390592 0.995725 0.112995 -0.190587
I40   I     I_    0.004218 0.390593 0.887006 -0.191136
I41   I     I_    0.004237 0.609346 0.112975 -0.191213
I42   I     I_    0.390601 0.004304 0.887004 -0.190174
I43   I     I_    0.609403 0.003946 0.112990 -0.190717
I44   I     I_    0.344381 0.021754 0.439169 -0.136928
I45   I     I_    0.827964 0.260960 0.203358 -0.212446
I46   I     I_    0.655577 0.021989 0.560828 -0.136570
I47   I     I_    0.021499 0.344227 0.439182 -0.136626
I48   I     I_    0.022341 0.655465 0.560814 -0.137151
I49   I     I_    0.655597 0.978082 0.439170 -0.136772
I50   I     I_    0.344412 0.977962 0.560836 -0.136553
I51   I     I_    0.978466 0.655529 0.439155 -0.137138
I52   I     I_    0.977670 0.344398 0.560847 -0.137147
I53   I     I_    0.844396 0.478069 0.939166 -0.137147
I54   I     I_    0.155582 0.477971 0.060831 -0.136797
I55   I     I_    0.477785 0.844381 0.939151 -0.136557
I56   I     I_    0.134488 0.776595 0.771201 -0.212349
I57   I     I_    0.478362 0.155515 0.060843 -0.137109
I58   I     I_    0.155593 0.521881 0.939173 -0.137164
I59   I     I_    0.844397 0.521867 0.060832 -0.136952
I60   I     I_    0.522227 0.155482 0.939184 -0.136561
I61   I     I_    0.521606 0.844242 0.060817 -0.136597
I62   I     I_    0.739277 0.828169 0.203444 -0.210662
I63   I     I_    0.260845 0.171947 0.796601 -0.212351
I64   I     I_    0.134508 0.223423 0.771229 -0.212854
N1    N     N_R   0.499992 0.999935 0.406025 -0.391761
N2    N     N_R   0.499996 0.999988 0.593976 -0.391799
N3    N     N_R   0.999994 0.499867 0.406024 -0.391763
N4    N     N_R   0.000001 0.499949 0.593974 -0.391725
N5    N     N_R   0.999996 0.499988 0.906026 -0.391725
N6    N     N_R   0.999992 0.499935 0.093976 -0.391763
N7    N     N_R   0.500001 0.999948 0.906024 -0.391799
N8    N     N_R   0.499994 0.999867 0.093975 -0.391761
O1    O     O_3   0.500000 0.000000 0.250000 -0.440851
O2    O     O_R   0.460640 1.000000 0.799590 -0.538503
O3    O     O_R   0.000000 0.539360 0.200410 -0.535137
O4    O     O_R   0.000000 0.460640 0.799590 -0.535530
O5    O     O_R   0.960640 0.500000 0.700410 -0.535524
O6    O     O_R   0.039360 0.500000 0.299590 -0.537027
O7    O     O_R   0.500000 0.960640 0.700410 -0.538508
O8    O     O_R   0.500000 0.039360 0.299590 -0.535135
O9    O     O_R   0.039360 0.500000 0.700410 -0.535525
O10   O     O_R   0.960640 0.500000 0.299590 -0.536992
O11   O     O_R   0.500000 0.039360 0.700410 -0.538503
O12   O     O_3   0.500000 1.000000 0.750000 -0.440797
O13   O     O_R   0.500000 0.960640 0.299590 -0.538910
O14   O     O_R   0.594320 0.944960 0.237250 -0.535776
O15   O     O_R   0.405680 0.055040 0.762750 -0.534238
O16   O     O_R   0.055040 0.594320 0.237250 -0.535880
O17   O     O_R   0.944960 0.405680 0.762750 -0.535472
O18   O     O_R   0.405680 0.055040 0.237250 -0.533879
O19   O     O_R   0.594320 0.944960 0.762750 -0.534239
O20   O     O_R   0.944960 0.405680 0.237250 -0.534018
O21   O     O_R   0.055040 0.594320 0.762750 -0.535472
O22   O     O_R   0.594320 0.055040 0.762750 -0.534015
O23   O     O_3   0.000000 0.500000 0.250000 -0.440851
O24   O     O_R   0.405680 0.944960 0.237250 -0.535985
O25   O     O_R   0.055040 0.405680 0.762750 -0.535722
O26   O     O_R   0.944960 0.594320 0.237250 -0.535624
O27   O     O_R   0.405680 0.944960 0.762750 -0.534017
O28   O     O_R   0.594320 0.055040 0.237250 -0.534127
O29   O     O_R   0.944960 0.594320 0.762750 -0.535722
O30   O     O_R   0.055040 0.405680 0.237250 -0.533799
O31   O     O_R   0.094320 0.444960 0.737250 -0.535732
O32   O     O_R   0.905680 0.555040 0.262750 -0.533881
O33   O     O_R   0.555040 0.094320 0.737250 -0.534016
O34   O     O_3   0.000000 0.500000 0.750000 -0.440963
O35   O     O_R   0.444960 0.905680 0.262750 -0.534017
O36   O     O_R   0.905680 0.555040 0.737250 -0.535731
O37   O     O_R   0.094320 0.444960 0.262750 -0.535778
O38   O     O_R   0.444960 0.905680 0.737250 -0.534015
O39   O     O_R   0.555040 0.094320 0.262750 -0.535877
O40   O     O_R   0.094320 0.555040 0.262750 -0.534125
O41   O     O_R   0.905680 0.444960 0.737250 -0.535469
O42   O     O_R   0.555040 0.905680 0.262750 -0.533801
O43   O     O_R   0.444960 0.094320 0.737250 -0.534234
O44   O     O_R   0.905680 0.444960 0.262750 -0.535984
O45   O     O_R   0.460640 0.000000 0.200410 -0.536990
O46   O     O_R   0.094320 0.555040 0.737250 -0.535468
O47   O     O_R   0.444960 0.094320 0.262750 -0.535626
O48   O     O_R   0.555040 0.905680 0.737250 -0.534235
O49   O     O_2   0.417384 0.005211 0.405040 -0.415368
O50   O     O_2   0.582599 0.005353 0.594959 -0.415353
O51   O     O_2   0.005124 0.417251 0.405046 -0.415353
O52   O     O_2   0.005511 0.582541 0.594950 -0.415401
O53   O     O_2   0.582600 0.994652 0.405041 -0.415387
O54   O     O_2   0.417394 0.994625 0.594962 -0.415356
O55   O     O_2   0.994864 0.582483 0.405033 -0.415400
O56   O     O_R   0.539360 1.000000 0.799590 -0.538504
O57   O     O_2   0.994490 0.417357 0.594967 -0.415401
O58   O     O_2   0.917390 0.494678 0.905040 -0.415401
O59   O     O_2   0.082597 0.494600 0.094960 -0.415386
O60   O     O_2   0.494540 0.917354 0.905031 -0.415355
O61   O     O_2   0.494814 0.082479 0.094965 -0.415401
O62   O     O_2   0.082602 0.505299 0.905042 -0.415400
O63   O     O_2   0.917387 0.505264 0.094961 -0.415368
O64   O     O_2   0.505460 0.082544 0.905048 -0.415355
O65   O     O_2   0.505176 0.917254 0.094953 -0.415354
O66   O     O_R   0.000000 0.460640 0.200410 -0.538910
O67   O     O_R   0.000000 0.539360 0.799590 -0.535523
O68   O     O_R   0.539360 0.000000 0.200410 -0.537027
Zn1   Zn    Zn3+2 0.500000 0.944100 0.269050 0.970269
Zn2   Zn    Zn3+2 0.000000 0.555900 0.230950 0.970664
Zn3   Zn    Zn3+2 0.555900 0.000000 0.769050 0.970316
Zn4   Zn    Zn3+2 0.444100 1.000000 0.230950 0.970431
Zn5   Zn    Zn3+2 1.000000 0.555900 0.769050 0.970607
Zn6   Zn    Zn3+2 1.000000 0.444100 0.230950 0.970269
Zn7   Zn    Zn3+2 0.444100 0.000000 0.769050 0.970317
Zn8   Zn    Zn3+2 0.555900 1.000000 0.230950 0.970381
Zn9   Zn    Zn3+2 0.500000 0.055900 0.730950 0.970316
Zn10  Zn    Zn3+2 0.055900 0.500000 0.269050 0.970381
Zn11  Zn    Zn3+2 0.944100 0.500000 0.730950 0.970606
Zn12  Zn    Zn3+2 0.500000 0.055900 0.269050 0.970665
Zn13  Zn    Zn3+2 0.500000 0.944100 0.730950 0.970314
Zn14  Zn    Zn3+2 0.944100 0.500000 0.269050 0.970431
Zn15  Zn    Zn3+2 0.055900 0.500000 0.730950 0.970606
Zn16  Zn    Zn3+2 0.000000 0.444100 0.769050 0.970604

loop_
_geom_bond_atom_site_label_1
_geom_bond_atom_site_label_2
_ccdc_geom_bond_type
C44   I12   S    
C47   C136  A    
C132  C150  S    
C108  C120  A    
C78   C115  A    
C133  C151  S    
C205  N6    S    
C52   I64   S    
O3    Zn2   S    
C103  C123  A    
C21   C274  A    
C110  C118  A    
C17   H53   S    
C30   O18   A    
C103  H16   S    
C19   H55   S    
C211  C220  A    
C79   C194  A    
C91   C127  A    
C60   I8    S    
C34   O33   A    
C63   C98   A    
C147  C164  S    
O23   Zn10  S    
C33   O21   A    
C93   H6    S    
C157  C260  A    
C95   H8    S    
C198  I36   S    
C199  C205  A    
O56   Zn3   S    
C193  C201  A    
C236  I47   S    
C83   C119  A    
C57   C254  A    
C172  C221  A    
C181  O62   S    
C22   C234  A    
C42   O37   A    
C61   I9    S    
C261  C278  A    
C80   C116  A    
O41   Zn11  S    
C68   C193  A    
C40   O28   A    
O34   Zn11  S    
C182  N6    A    
C171  C220  A    
C22   H59   S    
C54   C143  A    
C216  C233  A    
C220  C238  A    
C173  C222  A    
O12   Zn3   S    
C112  O56   A    
O38   Zn13  S    
C20   C241  A    
C168  N1    S    
C89   H3    S    
C99   C129  A    
C237  C254  S    
C180  O61   S    
C21   H58   S    
C97   C131  A    
C57   C192  A    
C17   C269  A    
C53   I2    S    
C75   C136  A    
C73   C108  A    
C69   C142  A    
C226  O9    A    
C114  H26   S    
C193  I30   S    
C71   I19   S    
C178  N7    A    
O1    Zn4   S    
C204  C257  S    
O16   Zn2   S    
C170  N3    A    
O33   Zn9   S    
C28   O40   A    
O34   Zn16  S    
C185  C270  A    
C212  C225  A    
C178  O60   S    
C26   O42   A    
C158  C159  T    
O6    Zn10  S    
C55   I4    S    
C82   C118  A    
O4    Zn16  S    
C206  N7    S    
C7    C210  A    
C1    O45   A    
C22   C275  A    
O12   Zn7   S    
C208  C217  A    
C109  H22   S    
C3    C268  A    
C58   C147  A    
O10   Zn14  S    
C45   C81   A    
C248  O7    A    
C92   H5    S    
C70   C105  A    
C88   H2    S    
C188  I35   S    
C94   H7    S    
C36   O24   A    
O11   Zn9   S    
C15   C267  A    
C107  H20   S    
O31   Zn15  S    
C57   H29   S    
C261  C266  A    
C176  O58   S    
C234  I44   S    
C174  N3    A    
O1    Zn8   S    
C59   I7    S    
C184  O65   S    
C223  C241  A    
C172  N1    A    
C74   C134  A    
C35   C252  A    
C245  I55   S    
C67   I16   S    
C196  C206  A    
C33   O46   A    
O68   Zn8   S    
C29   O41   A    
C175  N4    A    
C4    C209  A    
C60   C95   A    
O21   Zn5   S    
O22   Zn3   S    
O17   Zn16  S    
C179  C191  A    
C71   C106  A    
C47   I34   S    
C7    C277  A    
C143  C161  S    
O27   Zn7   S    
C77   I26   S    
C31   O19   A    
C5    C208  A    
C32   O44   A    
C249  I59   S    
C13   C187  A    
C250  I60   S    
C50   I62   S    
C46   C191  A    
C252  C270  A    
C273  C276  A    
C61   C96   A    
C67   C103  A    
C78   H1    S    
C179  C186  A    
C94   C130  A    
C221  C239  A    
C100  C126  A    
C49   C84   A    
C61   C148  A    
C194  I40   S    
C218  C235  A    
C8    H44   S    
C265  C278  A    
C262  C279  A    
C204  O66   A    
C263  C280  A    
C150  C166  T    
C240  I50   S    
C267  C280  A    
O35   Zn1   S    
C53   C142  A    
C56   C145  A    
C140  C158  S    
C37   C123  S    
C173  O54   S    
C259  O13   A    
C64   C99   A    
C12   C244  A    
C157  H39   S    
C73   I21   S    
O30   Zn6   S    
C26   C121  S    
C6    C276  A    
C46   C253  A    
C213  C231  A    
C101  C196  A    
C1    C260  S    
O12   Zn9   S    
C58   I6    S    
C36   O35   A    
C31   O48   A    
C146  C200  A    
C87   H64   S    
C209  C222  A    
C81   H23   S    
C259  O8    A    
C34   O22   A    
O67   Zn5   S    
C180  C229  A    
O5    Zn11  S    
C90   C195  A    
C156  C160  T    
C237  O10   A    
C100  H14   S    
C227  C244  A    
C23   C238  A    
C248  C253  S    
C80   H12   S    
C6    C211  A    
C145  C163  S    
C151  C165  T    
C210  C219  A    
C17   C240  A    
C31   C118  S    
O18   Zn4   S    
C88   C125  A    
C62   C97   A    
C176  N5    A    
C181  N5    A    
C210  C223  A    
C15   C246  A    
C181  C230  A    
C9    C262  A    
C106  C122  A    
C216  C229  A    
C16   C268  A    
C11   C264  A    
C25   H61   S    
C85   C121  A    
C182  O63   S    
C43   I1    S    
O13   Zn1   S    
O1    Zn1   S    
O2    Zn7   S    
C201  N4    S    
C226  C255  S    
O23   Zn14  S    
O12   Zn13  S    
C41   O36   A    
O15   Zn7   S    
C202  C207  A    
C146  C258  A    
C105  H18   S    
C32   C119  S    
O19   Zn3   S    
C231  C249  A    
C46   H28   S    
C174  O55   S    
C4    C269  A    
C111  H25   S    
C146  H38   S    
C75   C110  A    
C62   I10   S    
C154  C162  T    
C174  C223  A    
C200  I38   S    
C183  O64   S    
O14   Zn8   S    
C114  C116  A    
C251  I61   S    
C179  N2    S    
C71   C140  A    
O26   Zn2   S    
C266  C279  A    
C52   C141  A    
C48   C83   A    
C39   O27   A    
C10   H47   S    
C20   H57   S    
C51   C140  A    
C87   C123  A    
C76   C132  A    
C68   C255  A    
C65   I14   S    
C264  C267  A    
C13   C254  A    
C169  C218  A    
C42   C129  S    
C79   H40   S    
C64   I13   S    
C48   I45   S    
C13   H33   S    
C190  N3    S    
C33   C120  S    
C3    C264  A    
C69   I17   S    
C11   H48   S    
O45   Zn4   S    
C8    C261  A    
C63   C145  A    
C230  C247  A    
C138  C155  S    
C271  C274  A    
C241  I51   S    
C148  C165  S    
C242  I52   S    
C83   H45   S    
O40   Zn10  S    
C42   O30   A    
C18   H54   S    
C214  C232  A    
O39   Zn12  S    
C203  N5    S    
C262  C265  A    
C215  O4    A    
C109  C117  A    
O1    Zn12  S    
C16   C245  A    
C155  C161  T    
C43   C78   A    
C195  I41   S    
C37   O31   A    
C58   C93   A    
C170  C219  A    
C38   O32   A    
C35   H27   S    
C65   C143  A    
C66   C144  A    
C169  O50   S    
C124  C198  A    
C10   C263  A    
C20   C273  A    
C199  I37   S    
C187  C190  A    
C55   C91   A    
C50   C85   A    
C104  C125  A    
C25   C236  A    
C86   C122  A    
C200  C206  A    
C79   C256  A    
C45   I23   S    
C55   C144  A    
C59   C94   A    
C112  O2    A    
C106  H19   S    
C108  H21   S    
C98   C128  A    
C270  H31   S    
O20   Zn6   S    
C70   C139  A    
C35   C189  A    
C39   C126  S    
C95   C131  A    
C68   H30   S    
C93   C129  A    
C51   C86   A    
C107  C119  A    
C27   C122  S    
O25   Zn16  S    
C89   C126  A    
C263  C268  A    
C177  N6    A    
C135  C257  A    
C11   C250  A    
O34   Zn15  S    
C170  O51   S    
C171  N4    A    
C44   C80   A    
C96   H9    S    
C239  I49   S    
C169  N2    A    
C50   C139  A    
C135  H37   S    
C40   C127  S    
C168  C189  A    
C15   H51   S    
C213  C227  A    
C28   C115  S    
C177  C227  A    
C23   C276  A    
C84   C120  A    
C134  C152  S    
C101  C258  A    
C184  N8    A    
C85   H62   S    
O48   Zn13  S    
C113  H43   S    
O23   Zn2   S    
O24   Zn4   S    
C75   I24   S    
C90   H41   S    
O47   Zn12  S    
O42   Zn1   S    
C27   O43   A    
C136  C153  S    
C153  C163  T    
C197  C207  A    
C226  O5    A    
C237  O6    A    
C77   C114  A    
C2    C253  A    
C233  C251  A    
C96   C130  A    
C190  C192  A    
C173  N2    A    
C37   O25   A    
C192  I29   S    
C202  I39   S    
C65   C100  A    
C99   H13   S    
C217  C234  A    
C180  N8    A    
O44   Zn14  S    
C243  I53   S    
C19   C272  A    
C225  C243  A    
C238  I48   S    
O66   Zn6   S    
C24   C188  A    
C4    C274  A    
C186  I32   S    
C29   O17   A    
C12   H49   S    
C247  I58   S    
C175  O57   S    
C224  C242  A    
C21   C235  A    
C171  O52   S    
C211  C224  A    
C222  C240  A    
C137  C154  S    
C56   I5    S    
C9    C247  A    
O43   Zn9   S    
C23   H60   S    
O23   Zn6   S    
C14   C243  A    
C212  C279  A    
C182  C231  A    
C101  H42   S    
C167  O49   S    
C198  C203  A    
C90   C257  A    
C252  C259  S    
O36   Zn11  S    
C272  C277  A    
C62   C149  A    
C110  H24   S    
C66   C102  A    
O46   Zn15  S    
C124  C256  A    
C74   C109  A    
C183  N7    A    
C76   I25   S    
O8    Zn12  S    
C3    C214  A    
C176  C225  A    
C45   C134  A    
C48   C137  A    
C209  C218  A    
C1    O68   A    
C43   C132  A    
C39   O38   A    
C82   H34   S    
C10   C251  A    
C76   C111  A    
C73   C138  A    
C191  I28   S    
C188  C201  A    
C207  N8    S    
C97   H10   S    
O37   Zn10  S    
C47   C82   A    
C124  H36   S    
C12   C265  A    
C19   C242  A    
C16   H52   S    
C66   I15   S    
C104  H17   S    
O7    Zn13  S    
C74   I22   S    
C175  C224  A    
C40   O39   A    
C235  I46   S    
C214  C228  A    
C178  C228  A    
C41   O29   A    
C197  I43   S    
C112  C258  S    
C59   C148  A    
C2    H32   S    
C49   C138  A    
C196  I42   S    
C216  C280  A    
C41   C128  S    
C77   C133  A    
O9    Zn15  S    
C24   H35   S    
C244  I54   S    
C30   O47   A    
C92   C128  A    
C18   C271  A    
C141  C159  S    
C215  O67   A    
C8    C249  A    
C5    C271  A    
O32   Zn14  S    
C269  C275  A    
C6    C272  A    
C54   C89   A    
C25   C277  A    
C102  C127  A    
C36   C131  S    
C32   O20   A    
C228  C245  A    
C208  C221  A    
C246  I57   S    
C189  I27   S    
C24   C255  A    
C2    C186  A    
C248  O11   A    
C187  I33   S    
C212  C230  A    
C195  C205  A    
C72   C107  A    
C56   C92   A    
C185  I31   S    
C172  O53   S    
C105  C121  A    
C91   H4    S    
C9    H46   S    
C152  C164  T    
C5    C275  A    
C229  C246  A    
C14   H50   S    
C81   C117  A    
C72   C137  A    
C113  C260  A    
C29   C116  S    
C64   C147  A    
C232  C250  A    
C26   O14   A    
O34   Zn5   S    
C49   I56   S    
C38   C125  S    
O29   Zn5   S    
C18   C239  A    
C69   C104  A    
C44   C133  A    
C204  O3    A    
C63   I11   S    
C168  C185  A    
C144  C162  S    
C219  C236  A    
C52   C87   A    
C149  C166  S    
C72   I20   S    
C142  C160  S    
C7    C273  A    
O28   Zn8   S    
C102  H15   S    
C167  N1    A    
C30   C117  S    
C84   H56   S    
C98   H11   S    
C51   I63   S    
C139  C156  S    
C177  O59   S    
C194  C203  A    
C215  C256  S    
C167  C217  A    
C53   C88   A    
C60   C149  A    
C213  C278  A    
C135  C199  A    
C184  C233  A    
C54   I3    S    
C34   C130  S    
C70   I18   S    
C27   O15   A    
C113  C197  A    
C86   H63   S    
C28   O16   A    
C111  C115  A    
C157  C202  A    
C38   O26   A    
C183  C232  A    
C14   C266  A    
C67   C141  A    
