data_mof_unit_65750.cif
_audit_creation_date              2013-03-05T16:16:05-0500
_audit_creation_method            fapswitch 2.2
_symmetry_space_group_name_H-M    P1
_symmetry_Int_Tables_number       1
_space_group_crystal_system       triclinic
_cell_length_a                    50.458286
_cell_length_b                    39.063015
_cell_length_c                    32.005881
_cell_angle_alpha                 90.0
_cell_angle_beta                  129.353994
_cell_angle_gamma                 89.999974
_cell_volume                      48780.2508539

loop_
_atom_site_label
_atom_site_type_symbol
_atom_site_description
_atom_site_fract_x
_atom_site_fract_y
_atom_site_fract_z
_atom_type_partial_charge
O1    O     O_R   0.049910 0.028900 0.549890 -0.588828
O2    O     O_R   0.950090 0.028900 0.450110 -0.588828
O3    O     O_R   0.549910 0.528900 0.549890 -0.588829
O4    O     O_R   0.450090 0.528900 0.450110 -0.588829
O5    O     O_R   0.049920 0.971120 0.549870 -0.589160
O6    O     O_R   0.950080 0.971120 0.450130 -0.589160
O7    O     O_R   0.549920 0.471120 0.549870 -0.589162
O8    O     O_R   0.450080 0.471120 0.450130 -0.589162
C1    C     C_R   0.066259 0.000029 0.566265 0.784413
C2    C     C_R   0.933741 0.000029 0.433735 0.784412
C3    C     C_R   0.566259 0.500029 0.566265 0.784414
C4    C     C_R   0.433741 0.500029 0.433735 0.784413
O9    O     O_R   1.000000 0.028900 0.439710 -0.579170
O10   O     O_R   1.000000 0.028900 0.560290 -0.579169
O11   O     O_R   0.500000 0.528900 0.439710 -0.579168
O12   O     O_R   0.500000 0.528900 0.560290 -0.579168
O13   O     O_R   0.000010 0.971120 0.439700 -0.579861
O14   O     O_R   0.999990 0.971120 0.560300 -0.579861
O15   O     O_R   0.500010 0.471120 0.439700 -0.579863
O16   O     O_R   0.499990 0.471120 0.560300 -0.579864
C5    C     C_R   0.000006 0.000014 0.419973 0.832264
C6    C     C_R   0.999994 0.000014 0.580027 0.832263
C7    C     C_R   0.500006 0.500014 0.419973 0.832265
C8    C     C_R   0.499994 0.500014 0.580027 0.832265
Cu1   Cu    Cu3+1 1.000000 0.034220 0.500000 0.948503
Cu2   Cu    Cu3+1 0.500000 0.534220 0.500000 0.948500
Cu3   Cu    Cu3+1 1.000000 0.965800 0.500000 0.946469
Cu4   Cu    Cu3+1 0.500000 0.465800 0.500000 0.946458
C9    C     C_3   0.019833 0.031438 0.294058 -0.371585
C10   C     C_3   0.979738 0.031164 0.705512 -0.371611
C11   C     C_3   0.521234 0.530513 0.295459 -0.371673
C12   C     C_3   0.477953 0.529932 0.703727 -0.371727
C13   C     C_3   0.017364 0.967120 0.291631 -0.372255
C14   C     C_3   0.983088 0.966885 0.708821 -0.372223
C15   C     C_3   0.515861 0.466371 0.290129 -0.372160
C16   C     C_3   0.485049 0.465957 0.710781 -0.372104
C17   C     C_3   0.017363 0.967098 0.243112 -0.373941
C18   C     C_3   0.983089 0.966864 0.757339 -0.373970
C19   C     C_3   0.515860 0.466349 0.241610 -0.374044
C20   C     C_3   0.485050 0.465936 0.759299 -0.374090
H1    H     H_    0.046721 0.030986 0.260821 0.164824
H2    H     H_    0.952858 0.030344 0.738758 0.164836
H3    H     H_    0.548076 0.528849 0.262176 0.164858
H4    H     H_    0.451164 0.527548 0.737063 0.164876
H5    H     H_    0.046723 0.031016 0.332540 0.164437
H6    H     H_    0.952856 0.030375 0.667039 0.164423
H7    H     H_    0.548077 0.528879 0.333895 0.164390
H8    H     H_    0.451163 0.527579 0.665344 0.164362
H9    H     H_    0.003550 0.944078 0.289436 0.164636
H10   H     H_    0.997217 0.944035 0.711330 0.164639
H11   H     H_    0.501019 0.443975 0.286907 0.164642
H12   H     H_    0.500488 0.443968 0.714600 0.164645
H13   H     H_    0.044208 0.965494 0.330067 0.163688
H14   H     H_    0.956269 0.964893 0.670409 0.163686
H15   H     H_    0.542604 0.463536 0.328464 0.163680
H16   H     H_    0.458392 0.462406 0.672530 0.163681
H17   H     H_    0.044206 0.965462 0.258348 0.164386
H18   H     H_    0.956271 0.964860 0.742128 0.164362
H19   H     H_    0.542602 0.463504 0.256745 0.164292
H20   H     H_    0.458394 0.462374 0.744249 0.164243
H21   H     H_    0.003548 0.944047 0.217717 0.163364
H22   H     H_    0.997219 0.944003 0.783049 0.163381
H23   H     H_    0.501017 0.443944 0.215187 0.163415
H24   H     H_    0.500490 0.443937 0.786320 0.163452
C21   C     C_1   0.000007 0.999925 0.124907 -0.172000
C22   C     C_1   0.999993 0.999925 0.875093 -0.172000
C23   C     C_1   0.500007 0.499925 0.124907 -0.172004
C24   C     C_1   0.499993 0.499925 0.875093 -0.172004
C25   C     C_3   0.000009 0.999998 0.291289 0.318360
C26   C     C_3   0.999991 0.999998 0.708711 0.318360
C27   C     C_3   0.500009 0.499998 0.291289 0.318359
C28   C     C_3   0.499991 0.499998 0.708711 0.318359
C29   C     C_3   0.019832 0.031417 0.245540 -0.373577
C30   C     C_3   0.979739 0.031143 0.754031 -0.373547
C31   C     C_3   0.521233 0.530492 0.246941 -0.373477
C32   C     C_3   0.477953 0.529911 0.752245 -0.373410
C33   C     C_3   0.000008 0.999962 0.208714 0.318725
C34   C     C_3   0.999992 0.999962 0.791286 0.318727
C35   C     C_3   0.500008 0.499962 0.208714 0.318732
C36   C     C_3   0.499992 0.499962 0.791286 0.318731
C37   C     C_3   0.962829 0.001393 0.188575 -0.370966
C38   C     C_3   0.037148 0.001901 0.811402 -0.370970
C39   C     C_3   0.462932 0.503068 0.188676 -0.370972
C40   C     C_3   0.536972 0.504062 0.811228 -0.370985
C41   C     C_3   0.962830 0.001414 0.237093 -0.374062
C42   C     C_3   0.037147 0.001922 0.762884 -0.374063
C43   C     C_3   0.462932 0.503089 0.237194 -0.374063
C44   C     C_3   0.536972 0.504083 0.762710 -0.374054
C45   C     C_1   0.000007 0.999941 0.162618 -0.110505
C46   C     C_1   0.999993 0.999941 0.837382 -0.110504
C47   C     C_1   0.500007 0.499942 0.162618 -0.110507
C48   C     C_1   0.499993 0.499942 0.837382 -0.110507
C49   C     C_1   0.000009 0.000015 0.337385 -0.110218
C50   C     C_1   0.999991 0.000015 0.662615 -0.110217
C51   C     C_1   0.500009 0.500015 0.337385 -0.110220
C52   C     C_1   0.499991 0.500015 0.662615 -0.110219
C53   C     C_1   0.000008 0.000020 0.375094 -0.171061
C54   C     C_1   0.999992 0.000020 0.624906 -0.171061
C55   C     C_1   0.500008 0.500020 0.375094 -0.171063
C56   C     C_1   0.499992 0.500020 0.624906 -0.171064
H25   H     H_    0.949755 0.024892 0.235608 0.164182
H26   H     H_    0.049899 0.025577 0.764047 0.164197
H27   H     H_    0.450931 0.527132 0.236782 0.164234
H28   H     H_    0.548322 0.528440 0.762472 0.164265
H29   H     H_    0.947994 0.979016 0.233876 0.164340
H30   H     H_    0.052289 0.979728 0.766407 0.164326
H31   H     H_    0.447099 0.481382 0.232980 0.164297
H32   H     H_    0.553384 0.482808 0.767503 0.164269
H33   H     H_    0.949754 0.024861 0.163889 0.164574
H34   H     H_    0.049900 0.025546 0.835765 0.164553
H35   H     H_    0.450930 0.527102 0.165064 0.164507
H36   H     H_    0.548322 0.528409 0.834190 0.164464
H37   H     H_    0.007825 0.055478 0.293640 0.165064
H38   H     H_    0.991415 0.055366 0.705601 0.165073
H39   H     H_    0.510324 0.555069 0.296138 0.165093
H40   H     H_    0.488198 0.554773 0.702384 0.165109
H41   H     H_    0.007824 0.055447 0.221920 0.163652
H42   H     H_    0.991416 0.055336 0.777320 0.163645
H43   H     H_    0.510324 0.555039 0.224419 0.163630
H44   H     H_    0.488198 0.554743 0.774103 0.163619
H45   H     H_    0.947993 0.978985 0.162158 0.164665
H46   H     H_    0.052290 0.979697 0.838125 0.164687
H47   H     H_    0.447098 0.481351 0.161262 0.164749
H48   H     H_    0.553384 0.482778 0.839221 0.164791
C57   C     C_R   0.376575 0.983717 0.908733 0.346811
C58   C     C_R   0.623425 0.983719 0.091265 0.346812
C59   C     C_R   0.876575 0.483716 0.908732 0.346822
C60   C     C_R   0.123425 0.483720 0.091265 0.346822
C61   C     C_R   0.340806 0.986530 0.872416 -0.265902
C62   C     C_R   0.659194 0.986533 0.127583 -0.265902
C63   C     C_R   0.840806 0.486530 0.872415 -0.265899
C64   C     C_R   0.159194 0.486534 0.127583 -0.265898
H49   H     H_    0.325920 0.974335 0.881959 0.180006
H50   H     H_    0.674080 0.974339 0.118039 0.180006
H51   H     H_    0.825920 0.474333 0.881957 0.180006
H52   H     H_    0.174081 0.474340 0.118039 0.180006
C65   C     C_R   0.323814 0.003298 0.822755 0.001113
C66   C     C_R   0.676186 0.003298 0.177245 0.001113
C67   C     C_R   0.823814 0.503298 0.822755 0.001109
C68   C     C_R   0.176186 0.503299 0.177245 0.001113
C69   C     C_R   0.342975 0.018445 0.809210 0.038628
C70   C     C_R   0.657025 0.018442 0.190792 0.038628
C71   C     C_R   0.842975 0.518446 0.809211 0.038646
C72   C     C_R   0.157025 0.518442 0.190792 0.038646
C73   C     C_R   0.378786 0.015901 0.845865 -0.333173
C74   C     C_R   0.621214 0.015899 0.154136 -0.333172
C75   C     C_R   0.878786 0.515902 0.845866 -0.333199
C76   C     C_R   0.121214 0.515899 0.154137 -0.333192
H53   H     H_    0.393605 0.027966 0.836082 0.158418
H54   H     H_    0.606395 0.027962 0.163921 0.158421
H55   H     H_    0.893605 0.527968 0.836083 0.158376
H56   H     H_    0.106395 0.527962 0.163922 0.158381
C77   C     C_R   0.395876 0.999107 0.895677 -0.143030
C78   C     C_R   0.604124 0.999107 0.104323 -0.143032
C79   C     C_R   0.895876 0.499107 0.895677 -0.143005
C80   C     C_R   0.104124 0.499107 0.104323 -0.143010
C81   C     C_R   0.267968 0.021856 0.796868 -0.140597
C82   C     C_R   0.732032 0.021857 0.203134 -0.140600
C83   C     C_R   0.767968 0.521859 0.796865 -0.140590
C84   C     C_R   0.232032 0.521860 0.203136 -0.140589
H57   H     H_    0.281528 0.037302 0.833158 0.138522
H58   H     H_    0.718472 0.037305 0.166844 0.138523
H59   H     H_    0.781528 0.537307 0.833153 0.138527
H60   H     H_    0.218472 0.537309 0.166848 0.138528
C85   C     C_R   0.232210 0.021200 0.761494 -0.176472
C86   C     C_R   0.767790 0.021202 0.238507 -0.176471
C87   C     C_R   0.732210 0.521203 0.761491 -0.176474
C88   C     C_R   0.267790 0.521205 0.238510 -0.176474
H61   H     H_    0.218647 0.036031 0.771257 0.131577
H62   H     H_    0.781353 0.036034 0.228746 0.131577
H63   H     H_    0.718647 0.536036 0.771251 0.131580
H64   H     H_    0.281353 0.536038 0.228750 0.131579
C89   C     C_R   0.214166 0.001181 0.714333 0.093063
C90   C     C_R   0.785834 0.001181 0.285668 0.093063
C91   C     C_R   0.714166 0.501181 0.714333 0.093062
C92   C     C_R   0.285834 0.501181 0.285668 0.093064
C93   C     C_R   0.232525 0.981761 0.703274 -0.171215
C94   C     C_R   0.767474 0.981760 0.296725 -0.171214
C95   C     C_R   0.732526 0.481759 0.703277 -0.171219
C96   C     C_R   0.267474 0.481759 0.296723 -0.171218
H65   H     H_    0.219208 0.966353 0.666991 0.129694
H66   H     H_    0.780792 0.966351 0.333007 0.129694
H67   H     H_    0.719208 0.466348 0.666996 0.129693
H68   H     H_    0.280792 0.466347 0.333003 0.129692
C97   C     C_R   0.268278 0.982584 0.738529 -0.103760
C98   C     C_R   0.731722 0.982583 0.261470 -0.103760
C99   C     C_R   0.768278 0.482582 0.738532 -0.103762
C100  C     C_R   0.231722 0.482581 0.261468 -0.103769
H69   H     H_    0.282093 0.967553 0.729419 0.127773
H70   H     H_    0.717907 0.967551 0.270579 0.127773
H71   H     H_    0.782094 0.467548 0.729424 0.127775
H72   H     H_    0.217907 0.467547 0.270575 0.127771
C101  C     C_R   0.286107 0.002825 0.785237 0.171551
C102  C     C_R   0.713893 0.002825 0.214764 0.171552
C103  C     C_R   0.786107 0.502826 0.785236 0.171552
C104  C     C_R   0.213893 0.502826 0.214764 0.171552
C105  C     C_R   0.158339 0.969815 0.654216 -0.170679
C106  C     C_R   0.841661 0.969815 0.345782 -0.170678
C107  C     C_R   0.658339 0.469815 0.654221 -0.170681
C108  C     C_R   0.341661 0.469815 0.345778 -0.170681
H73   H     H_    0.172000 0.945806 0.664868 0.128934
H74   H     H_    0.828000 0.945806 0.335129 0.128933
H75   H     H_    0.672001 0.445806 0.664877 0.128933
H76   H     H_    0.327999 0.445806 0.335122 0.128932
C109  C     C_R   0.122556 0.969510 0.618488 -0.181847
C110  C     C_R   0.877444 0.969509 0.381510 -0.181846
C111  C     C_R   0.622556 0.469509 0.618493 -0.181851
C112  C     C_R   0.377444 0.469509 0.381507 -0.181849
H77   H     H_    0.109392 0.945262 0.601957 0.152805
H78   H     H_    0.890608 0.945261 0.398040 0.152805
H79   H     H_    0.609392 0.445261 0.601966 0.152804
H80   H     H_    0.390608 0.445261 0.398033 0.152803
C113  C     C_R   0.104083 0.000190 0.604224 -0.033585
C114  C     C_R   0.895917 0.000190 0.395777 -0.033586
C115  C     C_R   0.604083 0.500190 0.604224 -0.033586
C116  C     C_R   0.395917 0.500190 0.395777 -0.033586
C117  C     C_R   0.122093 0.031137 0.626564 -0.184370
C118  C     C_R   0.877907 0.031138 0.373438 -0.184369
C119  C     C_R   0.622093 0.531138 0.626559 -0.184369
C120  C     C_R   0.377907 0.531138 0.373441 -0.184369
H81   H     H_    0.108591 0.055207 0.616358 0.154487
H82   H     H_    0.891409 0.055207 0.383646 0.154487
H83   H     H_    0.608591 0.555207 0.616348 0.154487
H84   H     H_    0.391409 0.555208 0.383653 0.154488
C121  C     C_R   0.157840 0.031400 0.662503 -0.160036
C122  C     C_R   0.842160 0.031401 0.337499 -0.160037
C123  C     C_R   0.657840 0.531401 0.662498 -0.160037
C124  C     C_R   0.342160 0.531402 0.337503 -0.160038
H85   H     H_    0.171088 0.055642 0.678736 0.135391
H86   H     H_    0.828912 0.055642 0.321268 0.135391
H87   H     H_    0.671088 0.555642 0.678727 0.135391
H88   H     H_    0.328912 0.555643 0.321275 0.135390
C125  C     C_R   0.176288 0.000763 0.676587 0.108406
C126  C     C_R   0.823712 0.000763 0.323413 0.108406
C127  C     C_R   0.676288 0.500763 0.676587 0.108406
C128  C     C_R   0.323712 0.500764 0.323413 0.108408
O17   O     O_R   0.028900 0.049810 0.028900 -0.589415
O18   O     O_R   0.971100 0.049810 0.971100 -0.589415
O19   O     O_R   0.528900 0.549810 0.028900 -0.589415
O20   O     O_R   0.471100 0.549810 0.971100 -0.589415
C129  C     C_R   1.000000 0.066138 0.000000 0.784729
C130  C     C_R   0.500000 0.566138 0.000000 0.784726
O21   O     O_R   0.028890 0.999890 0.089150 -0.580208
O22   O     O_R   0.971110 0.999890 0.910850 -0.580209
O23   O     O_R   0.528890 0.499890 0.089150 -0.580255
O24   O     O_R   0.471110 0.499890 0.910850 -0.580256
O25   O     O_R   0.971120 0.999910 0.031400 -0.579036
O26   O     O_R   0.028880 0.999910 0.968600 -0.579035
O27   O     O_R   0.471120 0.499910 0.031400 -0.578989
O28   O     O_R   0.528880 0.499910 0.968600 -0.578989
C131  C     C_R   0.000006 0.999908 0.080024 0.832943
C132  C     C_R   0.999994 0.999908 0.919975 0.832944
C133  C     C_R   0.500006 0.499908 0.080024 0.832935
C134  C     C_R   0.499994 0.499908 0.919975 0.832935
Cu5   Cu    Cu3+1 0.034210 0.999890 0.034180 0.946629
Cu6   Cu    Cu3+1 0.965790 0.999890 0.965820 0.946628
Cu7   Cu    Cu3+1 0.534210 0.499890 0.034180 0.946641
Cu8   Cu    Cu3+1 0.465790 0.499890 0.965820 0.946640
O29   O     O_R   0.028890 0.949980 0.028830 -0.589588
O30   O     O_R   0.971110 0.949980 0.971170 -0.589587
O31   O     O_R   0.528890 0.449980 0.028830 -0.589569
O32   O     O_R   0.471110 0.449980 0.971170 -0.589568
C135  C     C_R   1.000000 0.933654 0.000000 0.784717
C136  C     C_R   0.500000 0.433654 0.000000 0.784691
O33   O     O_R   0.500020 0.950020 0.965150 -0.573246
O34   O     O_R   0.499980 0.950020 0.034850 -0.573246
O35   O     O_R   0.000020 0.450020 0.965150 -0.573247
O36   O     O_R   0.999980 0.450020 0.034850 -0.573247
C137  C     C_R   0.500000 0.933603 0.000000 0.839597
C138  C     C_R   0.000000 0.433603 0.000000 0.839592
O37   O     O_R   0.450100 0.999940 0.915210 -0.599018
O38   O     O_R   0.549900 0.999940 0.084790 -0.599020
O39   O     O_R   0.950100 0.499940 0.915210 -0.599062
O40   O     O_R   0.049900 0.499940 0.084790 -0.599066
O41   O     O_R   0.450100 0.000010 0.984990 -0.539756
O42   O     O_R   0.549900 0.000010 0.015010 -0.539753
O43   O     O_R   0.950100 0.500010 0.984990 -0.539711
O44   O     O_R   0.049900 0.500010 0.015010 -0.539706
C139  C     C_R   0.433699 0.999259 0.933706 0.852471
C140  C     C_R   0.566301 0.999260 0.066294 0.852469
C141  C     C_R   0.933699 0.499260 0.933706 0.852463
C142  C     C_R   0.066301 0.499260 0.066294 0.852458
Cu9   Cu    Cu3+1 0.500010 0.999930 0.958670 1.007073
Cu10  Cu    Cu3+1 0.499990 0.999930 0.041330 1.007068
Cu11  Cu    Cu3+1 0.000010 0.499930 0.958670 1.007097
Cu12  Cu    Cu3+1 0.999990 0.499930 0.041330 1.007089
O45   O     O_R   0.500000 0.049850 0.965040 -0.595371
O46   O     O_R   0.500000 0.049850 0.034960 -0.595371
O47   O     O_R   1.000000 0.549850 0.965040 -0.595352
O48   O     O_R   1.000000 0.549850 0.034960 -0.595353
C143  C     C_R   0.500000 0.066244 0.000000 0.773644
C144  C     C_R   0.000000 0.566243 0.000000 0.773632
C145  C     C_R   0.499599 0.877657 0.961750 -0.146111
C146  C     C_R   0.500401 0.877657 0.038250 -0.146108
C147  C     C_R   0.999600 0.377657 0.961751 -0.146112
C148  C     C_R   0.000399 0.377657 0.038249 -0.146107
H89   H     H_    0.499377 0.890984 0.931860 0.164525
H90   H     H_    0.500623 0.890984 0.068139 0.164525
H91   H     H_    0.999380 0.390984 0.931863 0.164528
H92   H     H_    0.000620 0.390984 0.068137 0.164528
C149  C     C_R   0.499550 0.841944 0.961710 -0.162259
C150  C     C_R   0.500450 0.841944 0.038290 -0.162257
C151  C     C_R   0.999551 0.341944 0.961712 -0.162257
C152  C     C_R   0.000449 0.341944 0.038288 -0.162258
H93   H     H_    0.499606 0.828524 0.932157 0.133334
H94   H     H_    0.500394 0.828524 0.067842 0.133334
H95   H     H_    0.999608 0.328524 0.932160 0.133335
H96   H     H_    0.000391 0.328524 0.067840 0.133335
C153  C     C_R   0.500000 0.823763 1.000000 0.098447
C154  C     C_R   1.000000 0.323763 1.000000 0.098446
C155  C     C_R   0.500000 0.895858 0.000000 -0.028920
C156  C     C_R   1.000000 0.395858 1.000000 -0.028921
C157  C     C_R   0.521498 0.767745 0.048803 -0.168670
C158  C     C_R   0.478502 0.767745 0.951197 -0.168669
C159  C     C_R   0.021496 0.267745 0.048804 -0.168669
C160  C     C_R   0.978504 0.267745 0.951196 -0.168669
H97   H     H_    0.538544 0.781160 0.086939 0.131585
H98   H     H_    0.461456 0.781161 0.913061 0.131585
H99   H     H_    0.038542 0.281160 0.086940 0.131584
H100  H     H_    0.961458 0.281160 0.913060 0.131585
C161  C     C_R   0.021543 0.232034 0.048796 -0.172989
C162  C     C_R   0.978456 0.232034 0.951204 -0.172990
C163  C     C_R   0.521545 0.732034 0.048795 -0.172990
C164  C     C_R   0.478455 0.732034 0.951205 -0.172990
H101  H     H_    0.038165 0.218618 0.087005 0.129909
H102  H     H_    0.961835 0.218618 0.912995 0.129909
H103  H     H_    0.538168 0.718618 0.087004 0.129908
H104  H     H_    0.461832 0.718618 0.912995 0.129907
C165  C     C_R   1.000000 0.213852 1.000000 0.095875
C166  C     C_R   0.500000 0.713852 1.000000 0.095876
C167  C     C_R   0.500000 0.785926 1.000000 0.100085
C168  C     C_R   1.000000 0.285926 1.000000 0.100085
C169  C     C_R   0.969003 0.157833 0.966978 -0.168676
C170  C     C_R   0.030997 0.157833 0.033022 -0.168676
C171  C     C_R   0.469003 0.657833 0.966981 -0.168677
C172  C     C_R   0.530997 0.657833 0.033019 -0.168676
H105  H     H_    0.944732 0.171254 0.941609 0.129916
H106  H     H_    0.055268 0.171254 0.058390 0.129916
H107  H     H_    0.444731 0.671253 0.941614 0.129917
H108  H     H_    0.555268 0.671253 0.058386 0.129917
C173  C     C_R   0.968992 0.122119 0.967033 -0.182974
C174  C     C_R   0.031008 0.122119 0.032967 -0.182973
C175  C     C_R   0.468992 0.622119 0.967036 -0.182975
C176  C     C_R   0.531008 0.622119 0.032964 -0.182974
H109  H     H_    0.944677 0.108807 0.941251 0.153563
H110  H     H_    0.055323 0.108807 0.058749 0.153562
H111  H     H_    0.444677 0.608807 0.941256 0.153564
H112  H     H_    0.555323 0.608807 0.058744 0.153564
C177  C     C_R   1.000000 0.103905 0.000000 -0.033409
C178  C     C_R   0.500000 0.603905 1.000000 -0.033409
C179  C     C_R   1.000000 0.176014 0.000000 0.105331
C180  C     C_R   0.500000 0.676014 1.000000 0.105330
C181  C     C_R   0.500763 0.122191 0.038610 -0.179884
C182  C     C_R   0.499237 0.122191 0.961390 -0.179884
C183  C     C_R   0.001216 0.622188 0.039039 -0.179893
C184  C     C_R   0.998784 0.622188 0.960960 -0.179893
H113  H     H_    0.501284 0.108869 0.068799 0.154303
H114  H     H_    0.498716 0.108869 0.931200 0.154303
H115  H     H_    0.002104 0.608865 0.069579 0.154218
H116  H     H_    0.997896 0.608865 0.930421 0.154219
C185  C     C_R   0.500799 0.157900 0.038635 -0.167046
C186  C     C_R   0.499201 0.157900 0.961365 -0.167044
C187  C     C_R   0.001258 0.657897 0.039071 -0.167016
C188  C     C_R   0.998742 0.657897 0.960929 -0.167016
H117  H     H_    0.501009 0.171316 0.068460 0.129718
H118  H     H_    0.498991 0.171316 0.931540 0.129717
H119  H     H_    0.001834 0.671313 0.069249 0.129724
H120  H     H_    0.998166 0.671313 0.930751 0.129724
C189  C     C_R   0.500000 0.176079 1.000000 0.104721
C190  C     C_R   0.000000 0.676075 0.000000 0.104687
C191  C     C_R   0.500000 0.103990 0.000000 -0.029798
C192  C     C_R   1.000000 0.603988 0.000000 -0.029713
C193  C     C_R   0.478344 0.232091 0.951215 -0.172736
C194  C     C_R   0.521656 0.232091 0.048784 -0.172735
C195  C     C_R   0.978005 0.732085 0.951293 -0.172733
C196  C     C_R   0.021996 0.732085 0.048707 -0.172733
H121  H     H_    0.461170 0.218680 0.913097 0.130209
H122  H     H_    0.538830 0.218680 0.086903 0.130209
H123  H     H_    0.960569 0.718673 0.913243 0.130237
H124  H     H_    0.039431 0.718673 0.086757 0.130237
C197  C     C_R   0.977967 0.767791 0.951302 -0.173940
C198  C     C_R   0.022033 0.767791 0.048698 -0.173939
C199  C     C_R   0.478304 0.267797 0.951223 -0.173947
C200  C     C_R   0.521696 0.267797 0.048776 -0.173947
H125  H     H_    0.960961 0.781203 0.913155 0.129350
H126  H     H_    0.039039 0.781203 0.086845 0.129350
H127  H     H_    0.461565 0.281212 0.913026 0.129362
H128  H     H_    0.538435 0.281212 0.086974 0.129361
C201  C     C_R   1.000000 0.785970 1.000000 0.096570
C202  C     C_R   0.500000 0.285974 1.000000 0.096573
C203  C     C_R   0.500000 0.213911 1.000000 0.096967
C204  C     C_R   1.000000 0.713906 0.000000 0.096925
C205  C     C_R   0.968976 0.841979 0.967656 -0.169585
C206  C     C_R   0.031024 0.841979 0.032344 -0.169586
C207  C     C_R   0.468992 0.341979 0.967181 -0.169582
C208  C     C_R   0.531008 0.341979 0.032819 -0.169583
H129  H     H_    0.944690 0.828561 0.942836 0.129294
H130  H     H_    0.055310 0.828561 0.057164 0.129295
H131  H     H_    0.444714 0.328560 0.941977 0.129335
H132  H     H_    0.555286 0.328560 0.058023 0.129336
C209  C     C_R   0.968966 0.877688 0.967697 -0.183332
C210  C     C_R   0.031033 0.877688 0.032303 -0.183332
C211  C     C_R   0.468981 0.377689 0.967231 -0.183339
C212  C     C_R   0.531019 0.377689 0.032769 -0.183340
H133  H     H_    0.944633 0.890999 0.942452 0.153460
H134  H     H_    0.055367 0.890999 0.057548 0.153460
H135  H     H_    0.444659 0.391001 0.941607 0.153425
H136  H     H_    0.555340 0.391001 0.058393 0.153426
C213  C     C_R   1.000000 0.895896 1.000000 -0.033206
C214  C     C_R   0.500000 0.395897 1.000000 -0.033160
C215  C     C_R   0.000000 0.823801 1.000000 0.105288
C216  C     C_R   0.500000 0.323803 1.000000 0.105251
N1    N     N_R   0.392520 0.963664 0.956925 0.127415
O49   O     O_R   0.415822 0.941149 0.970646 -0.365721
O50   O     O_R   0.379853 0.963660 0.981875 -0.355434
N2    N     N_R   0.607480 0.963668 0.043072 0.127417
O51   O     O_R   0.584180 0.941151 0.029349 -0.365718
O52   O     O_R   0.620146 0.963668 0.018121 -0.355434
N3    N     N_R   0.892520 0.463662 0.956923 0.127420
O53   O     O_R   0.915821 0.441147 0.970644 -0.365727
O54   O     O_R   0.879854 0.463658 0.981874 -0.355413
N4    N     N_R   0.107480 0.463669 0.043072 0.127422
O55   O     O_R   0.084180 0.441152 0.029349 -0.365722
O56   O     O_R   0.120146 0.463669 0.018120 -0.355413
C217  C     C_2   0.327238 0.037905 0.758466 0.348069
H137  H     H_    0.342873 0.045199 0.747485 0.065781
O57   O     O_2   0.297271 0.046846 0.729120 -0.533229
C218  C     C_2   0.672762 0.037900 0.241538 0.348067
H138  H     H_    0.657126 0.045192 0.252520 0.065779
O58   O     O_2   0.702729 0.046842 0.270884 -0.533227
C219  C     C_2   0.827238 0.537907 0.758467 0.348048
H139  H     H_    0.842875 0.545204 0.747489 0.065759
O59   O     O_2   0.797270 0.546844 0.729117 -0.533237
C220  C     C_2   0.172761 0.537899 0.241539 0.348041
H140  H     H_    0.157126 0.545189 0.252523 0.065756
O60   O     O_2   0.202729 0.546842 0.270885 -0.533231

loop_
_geom_bond_atom_site_label_1
_geom_bond_atom_site_label_2
_geom_bond_distance
_ccdc_geom_bond_type
C206  C215  1.403993 A    
C158  H98   1.082963 S    
C138  C156  1.474437 S    
O27   C133  1.292148 A    
C106  C110  1.396168 A    
O39   Cu11  1.958174 S    
C217  H137  1.085707 S    
C70   C74   1.401043 A    
C184  C192  1.404715 A    
C42   H30   1.113033 S    
C152  C154  1.404078 A    
C33   C45   1.475343 S    
C40   H36   1.113039 S    
Cu7   O31   1.960658 S    
C146  H90   1.082912 S    
O29   C135  1.295093 A    
C44   H32   1.113042 S    
C51   C55   1.206951 T    
C27   C51   1.475343 S    
C198  H126  1.082957 S    
O21   Cu5   1.940714 S    
C59   N3    1.437418 S    
C74   H54   1.084525 S    
C176  H112  1.082875 S    
C218  O58   1.220444 D    
O40   C142  1.287344 A    
C57   N1    1.437416 S    
C58   N2    1.437417 S    
C172  C180  1.404012 A    
C75   C79   1.404327 A    
C13   C25   1.550590 S    
C84   C104  1.400361 A    
C209  C213  1.404870 A    
C110  C114  1.404949 A    
O37   C139  1.287346 A    
C15   C27   1.550593 S    
N1    O50   1.301338 A    
C62   H50   1.084163 S    
C212  C214  1.404899 A    
C157  C163  1.394989 A    
C90   C126  1.477951 S    
C67   C103  1.471311 S    
C147  C151  1.395059 A    
C9    C25   1.550577 S    
H3    C31   1.113026 S    
C22   C132  1.436466 S    
C86   C90   1.405714 A    
C184  C188  1.394906 A    
O46   C143  1.289229 A    
C208  H132  1.083030 S    
C22   C46   1.206948 T    
C206  H130  1.082991 S    
C58   C62   1.399997 A    
C173  H109  1.082875 S    
C87   H63   1.082951 S    
C18   C34   1.550587 S    
C1    C113  1.475785 S    
C162  C165  1.404321 A    
O23   C133  1.292143 A    
O13   C5    1.293208 A    
O7    Cu4   1.958760 S    
C9    H5    1.113028 S    
C196  C204  1.404285 A    
C98   H70   1.083278 S    
O15   C7    1.293208 A    
C107  C127  1.404291 A    
C5    C53   1.436459 S    
C34   C38   1.550590 S    
C74   C78   1.404330 A    
C149  H93   1.082985 S    
C170  C179  1.404012 A    
C112  H80   1.082877 S    
O9    C5    1.293255 A    
C12   H40   1.113035 S    
C193  C199  1.394805 A    
C129  C177  1.475297 S    
C94   H66   1.082929 S    
C154  C168  1.478019 S    
C195  C197  1.394793 A    
C158  C164  1.394989 A    
O36   C138  1.287179 A    
C14   H14   1.113034 S    
C91   C127  1.477951 S    
C15   H11   1.113029 S    
O8    Cu4   1.958760 S    
C81   C101  1.400352 A    
C4    C116  1.475785 S    
C62   C66   1.400764 A    
O33   Cu9   1.960605 S    
C186  H118  1.083108 S    
O34   Cu10  1.960605 S    
C9    H37   1.113024 S    
N3    O54   1.301333 A    
C8    C56   1.436462 S    
O19   Cu7   1.961000 S    
O3    Cu2   1.958368 S    
C40   C44   1.552839 S    
C151  H95   1.082989 S    
C150  H94   1.082991 S    
C25   C49   1.475340 S    
C77   C139  1.475742 S    
N2    O51   1.301508 A    
O39   C141  1.287346 A    
C182  H114  1.083024 S    
C60   N4    1.437418 S    
C24   C48   1.206945 T    
C83   C87   1.395450 A    
C196  C198  1.394797 A    
C84   C88   1.395451 A    
C59   C63   1.399997 A    
O3    C3    1.295682 A    
C60   C80   1.414462 A    
C94   C98   1.395379 A    
C57   C61   1.399997 A    
O32   C136  1.295094 A    
C61   C65   1.400764 A    
O22   Cu6   1.940715 S    
C29   C33   1.550590 S    
C163  H103  1.082962 S    
C31   C35   1.550594 S    
C118  C122  1.394749 A    
C181  H113  1.083023 S    
C194  C203  1.404458 A    
O26   C132  1.292150 A    
C18   H22   1.113034 S    
O38   Cu10  1.958179 S    
C183  H115  1.082909 S    
C20   H20   1.113040 S    
O44   Cu11  1.957508 S    
C175  H111  1.082875 S    
N3    O53   1.301511 A    
O27   Cu8   1.939584 S    
C208  C212  1.394926 A    
C171  C175  1.395106 A    
C182  C191  1.404868 A    
C161  C165  1.404321 A    
C219  O59   1.220435 D    
C83   C103  1.400357 A    
C207  C211  1.394926 A    
C32   H44   1.113041 S    
C70   C218  1.486818 S    
C10   C30   1.552852 S    
O35   C138  1.287181 A    
C175  C178  1.404935 A    
Cu11  O47   1.960688 S    
Cu7   Cu8   2.669506 S    
H4    C32   1.113035 S    
C211  C214  1.404900 A    
C193  H121  1.083070 S    
C210  H134  1.082883 S    
C67   C71   1.415743 A    
C146  C155  1.404701 A    
C147  C156  1.404703 A    
C198  C201  1.404280 A    
C106  H74   1.083014 S    
O40   Cu12  1.958179 S    
C89   C93   1.405260 A    
C181  C191  1.404870 A    
C136  C214  1.474906 S    
C35   C47   1.475343 S    
C16   H12   1.113040 S    
O8    C4    1.296804 A    
C181  C185  1.394910 A    
O25   Cu6   1.939584 S    
C170  C174  1.395106 A    
C11   C27   1.550581 S    
O38   C140  1.287344 A    
C111  H79   1.082869 S    
Cu8   O32   1.960653 S    
C194  C200  1.394805 A    
C107  H75   1.083010 S    
C200  H128  1.083074 S    
C11   H39   1.113026 S    
C44   H28   1.113041 S    
C158  C167  1.404311 A    
C199  H127  1.083073 S    
C30   H42   1.113032 S    
O21   C131  1.292143 A    
O13   Cu3   1.941429 S    
O42   C140  1.287329 A    
C114  C118  1.405161 A    
C81   C85   1.395451 A    
C183  C192  1.404715 A    
C105  C125  1.404295 A    
C122  H86   1.083063 S    
C169  C179  1.404013 A    
C28   C52   1.475346 S    
C79   C141  1.475742 S    
C75   H55   1.084525 S    
C65   C101  1.471315 S    
O5    C1    1.296803 A    
C197  H125  1.082955 S    
C110  H78   1.082873 S    
O37   Cu9   1.958174 S    
C219  H139  1.085708 S    
C88   H64   1.082959 S    
C64   H52   1.084164 S    
C43   H31   1.113028 S    
O15   Cu4   1.941429 S    
C86   H62   1.082959 S    
N4    O55   1.301511 A    
O4    C4    1.295683 A    
C165  C179  1.478047 S    
C145  C149  1.395059 A    
C42   H26   1.113030 S    
C49   C53   1.206951 T    
C25   C41   1.550584 S    
C218  H138  1.085716 S    
C87   C91   1.405711 A    
C197  C201  1.404281 A    
C148  C152  1.395059 A    
C14   C26   1.550595 S    
C201  C215  1.477789 S    
C98   C102  1.401319 A    
C76   H56   1.084532 S    
O34   C137  1.287179 A    
C12   C32   1.552852 S    
O31   C136  1.295089 A    
C123  C127  1.403512 A    
O1    Cu1   1.958368 S    
C157  H97   1.082963 S    
O25   C131  1.292148 A    
C21   C45   1.206948 T    
C122  C126  1.403516 A    
O17   C129  1.295471 A    
C100  H72   1.083285 S    
C119  C123  1.394753 A    
O10   C6    1.293255 A    
C43   H27   1.113030 S    
C171  C180  1.404012 A    
C172  C176  1.395106 A    
C80   C142  1.475746 S    
C162  H102  1.082961 S    
C207  C216  1.404001 A    
C93   H65   1.082925 S    
Cu6   O30   1.960657 S    
C150  C153  1.404077 A    
C38   H46   1.113031 S    
O45   C143  1.289229 A    
C17   H17   1.113027 S    
C63   C67   1.400762 A    
H1    C29   1.113025 S    
C96   H68   1.082930 S    
C152  H96   1.082989 S    
O35   Cu11  1.960601 S    
C108  C112  1.396168 A    
C189  C203  1.477836 S    
Cu9   Cu10  2.646243 S    
C190  C204  1.477789 S    
C11   H7    1.113031 S    
O20   Cu8   1.961001 S    
C37   C41   1.552846 S    
C16   C28   1.550606 S    
C3    C115  1.475789 S    
O2    C2    1.295683 A    
O28   C134  1.292150 A    
C39   C43   1.552839 S    
N1    O49   1.301507 A    
C217  O57   1.220437 D    
C105  C109  1.396172 A    
C36   C40   1.550604 S    
C69   C217  1.486816 S    
C220  H140  1.085716 S    
O26   Cu5   1.939587 S    
C12   C28   1.550597 S    
C34   C46   1.475347 S    
O18   C129  1.295472 A    
C82   C102  1.400363 A    
C6    C54   1.436459 S    
C84   H60   1.083260 S    
C185  C189  1.404203 A    
C26   C50   1.475343 S    
C95   C99   1.395379 A    
C50   C54   1.206948 T    
C13   H9    1.113023 S    
C184  H116  1.082909 S    
O47   C144  1.289215 A    
C93   C97   1.395379 A    
C120  C124  1.394753 A    
C88   C92   1.405717 A    
O33   C137  1.287179 A    
C185  H117  1.083102 S    
C96   C100  1.395379 A    
C18   H18   1.113029 S    
C89   C125  1.477951 S    
C143  C191  1.474473 S    
O23   Cu7   1.940714 S    
C90   C94   1.405265 A    
O28   Cu7   1.939587 S    
C172  H108  1.082999 S    
C99   C103  1.401316 A    
C109  C113  1.404951 A    
O14   C6    1.293210 A    
C85   H61   1.082955 S    
C12   H8    1.113042 S    
C153  C167  1.478019 S    
O30   C135  1.295096 A    
C10   C26   1.550590 S    
C10   H6    1.113035 S    
C66   C102  1.471311 S    
O12   Cu2   1.940793 S    
C176  C178  1.404939 A    
H2    C30   1.113030 S    
Cu12  O48   1.960688 S    
C186  C189  1.404198 A    
Cu9   O45   1.960688 S    
C166  C180  1.478047 S    
Cu10  O46   1.960688 S    
O1    C1    1.295682 A    
C117  H81   1.082885 S    
C174  H110  1.082878 S    
C59   C79   1.414463 A    
C2    C114  1.475785 S    
O24   C134  1.292139 A    
C38   C42   1.552846 S    
C17   C33   1.550579 S    
C160  C168  1.404313 A    
C121  H85   1.083062 S    
C19   C35   1.550582 S    
C15   C19   1.552836 S    
Cu11  Cu12  2.646243 S    
C16   H16   1.113040 S    
C115  C119  1.405157 A    
C116  C120  1.405164 A    
C170  H106  1.082998 S    
C11   C31   1.552855 S    
C71   C219  1.486814 S    
C164  H104  1.082964 S    
C19   H19   1.113030 S    
C23   C47   1.206952 T    
C163  C166  1.404320 A    
C130  C178  1.475297 S    
C97   H69   1.083280 S    
C208  C216  1.404001 A    
C27   C43   1.550589 S    
C37   H33   1.113026 S    
C66   C70   1.415739 A    
C39   H35   1.113029 S    
Cu1   Cu3   2.672691 S    
C193  C203  1.404457 A    
C81   H57   1.083258 S    
C71   C75   1.401039 A    
C124  H88   1.083064 S    
C183  C187  1.394906 A    
C17   H21   1.113027 S    
C82   C86   1.395447 A    
C10   H38   1.113029 S    
C65   C69   1.415741 A    
C61   H49   1.084165 S    
C187  H119  1.082990 S    
O17   Cu5   1.961000 S    
C68   C72   1.415732 A    
C182  C186  1.394914 A    
O6    C2    1.296804 A    
O4    Cu2   1.958372 S    
C195  H123  1.082958 S    
C64   C68   1.400764 A    
O16   Cu4   1.941426 S    
C159  H99   1.082965 S    
C195  C204  1.404288 A    
C160  H100  1.082963 S    
C121  C125  1.403512 A    
C157  C167  1.404315 A    
C78   C140  1.475746 S    
C35   C39   1.550592 S    
C123  H87   1.083059 S    
C69   C73   1.401039 A    
O2    Cu1   1.958372 S    
O10   Cu1   1.940793 S    
C145  H89   1.082912 S    
C13   C17   1.552836 S    
C146  C150  1.395059 A    
C119  H83   1.082886 S    
C145  C155  1.404703 A    
C24   C134  1.436466 S    
C148  H92   1.082909 S    
C33   C37   1.550584 S    
C30   C34   1.550598 S    
C37   H45   1.113027 S    
C76   C80   1.404329 A    
C39   H47   1.113027 S    
C85   C89   1.405711 A    
C73   H53   1.084524 S    
N2    O52   1.301337 A    
C7    C55   1.436459 S    
C36   C48   1.475347 S    
O41   C139  1.287332 A    
C199  C202  1.404393 A    
C72   C76   1.401040 A    
O7    C3    1.296803 A    
C38   H34   1.113030 S    
C205  C209  1.394918 A    
C72   C220  1.486815 S    
C63   H51   1.084164 S    
C205  C215  1.403992 A    
C9    C29   1.552852 S    
C164  C166  1.404320 A    
C52   C56   1.206948 T    
C194  H122  1.083072 S    
C188  C190  1.404047 A    
C207  H131  1.083031 S    
C144  C192  1.474418 S    
C202  C216  1.477707 S    
O16   C8    1.293208 A    
C148  C156  1.404703 A    
C135  C213  1.474922 S    
C20   C36   1.550594 S    
C105  H73   1.083009 S    
C169  H105  1.082997 S    
O43   C141  1.287332 A    
C99   H71   1.083281 S    
C147  H91   1.082909 S    
C73   C77   1.404328 A    
O11   C7    1.293255 A    
C169  C173  1.395106 A    
O12   C8    1.293254 A    
O5    Cu3   1.958760 S    
N4    O56   1.301334 A    
O9    Cu1   1.940793 S    
C173  C177  1.404935 A    
C41   H29   1.113025 S    
C60   C64   1.399998 A    
C111  C115  1.404951 A    
C28   C44   1.550602 S    
C57   C77   1.414463 A    
C118  H82   1.082888 S    
C95   H67   1.082923 S    
C23   C133  1.436463 S    
C13   H13   1.113027 S    
Cu5   O29   1.960658 S    
C14   H10   1.113032 S    
C29   H41   1.113029 S    
C15   H15   1.113030 S    
C16   C20   1.552833 S    
C31   H43   1.113029 S    
C106  C126  1.404295 A    
C113  C117  1.405158 A    
O11   Cu2   1.940793 S    
C91   C95   1.405264 A    
C188  H120  1.082990 S    
O18   Cu6   1.961001 S    
C211  H135  1.082900 S    
C187  C190  1.404044 A    
O24   Cu8   1.940715 S    
C174  C177  1.404936 A    
C200  C202  1.404392 A    
C108  H76   1.083012 S    
C92   C96   1.405262 A    
O6    Cu3   1.958760 S    
C109  H77   1.082869 S    
C107  C111  1.396168 A    
O20   C130  1.295472 A    
O41   Cu10  1.957504 S    
C68   C104  1.471315 S    
C160  C162  1.394989 A    
C151  C154  1.404076 A    
C21   C131  1.436466 S    
C83   H59   1.083254 S    
C32   C36   1.550607 S    
Cu5   Cu6   2.669506 S    
C26   C42   1.550591 S    
C58   C78   1.414464 A    
C120  H84   1.082886 S    
C41   H25   1.113028 S    
C205  H129  1.082991 S    
O22   C132  1.292139 A    
O36   Cu12  1.960605 S    
C14   C18   1.552836 S    
O14   Cu3   1.941426 S    
C108  C128  1.404297 A    
C97   C101  1.401318 A    
C220  O60   1.220449 D    
O42   Cu9   1.957508 S    
C40   H48   1.113036 S    
C19   H23   1.113035 S    
O43   Cu12  1.957504 S    
Cu2   Cu4   2.672691 S    
C20   H24   1.113043 S    
C159  C161  1.394986 A    
C171  H107  1.082998 S    
C92   C128  1.477955 S    
C210  C213  1.404866 A    
C206  C210  1.394918 A    
C161  H101  1.082964 S    
O19   C130  1.295471 A    
O48   C144  1.289215 A    
C124  C128  1.403515 A    
C82   H58   1.083258 S    
C149  C153  1.404079 A    
C196  H124  1.082955 S    
C212  H136  1.082896 S    
C100  C104  1.401321 A    
C112  C116  1.404953 A    
O44   C142  1.287329 A    
C117  C121  1.394749 A    
C159  C168  1.404314 A    
C209  H133  1.082881 S    
C137  C155  1.474437 S    
