data_mof_unit_14277.cif
_audit_creation_date              2012-10-26T18:28:50-0400
_audit_creation_method            fapswitch 2.2
_symmetry_space_group_name_H-M    P1
_symmetry_Int_Tables_number       1
_space_group_crystal_system       triclinic
_cell_length_a                    11.774012
_cell_length_b                    12.998323
_cell_length_c                    15.861592
_cell_angle_alpha                 93.823054
_cell_angle_beta                  73.971821
_cell_angle_gamma                 99.871954
_cell_volume                      2298.10467814

loop_
_atom_site_label
_atom_site_type_symbol
_atom_type_description
_atom_site_fract_x
_atom_site_fract_y
_atom_site_fract_z
_atom_type_partial_charge
C1    C     C_R   0.520951 0.700663 0.501155 0.566174
C2    C     C_R   0.340883 0.015321 0.510908 0.268832
C3    C     C_R   0.645619 0.876277 0.492794 -0.095472
C4    C     C_R   0.354620 0.124097 0.505585 -0.106112
C5    C     C_R   0.432751 0.860703 0.507183 -0.104542
C6    C     C_R   0.566328 0.139364 0.494525 -0.112172
C7    C     C_R   0.442599 0.968837 0.504887 0.014634
C8    C     C_R   0.556070 0.031319 0.496701 0.005524
C9    C     C_R   0.938346 0.594360 0.584834 -0.126213
C10   C     C_R   0.060701 0.403636 0.416607 -0.130187
C11   C     C_R   0.822209 0.586936 0.576122 0.328581
C12   C     C_R   0.479154 0.299384 0.498615 0.565394
C13   C     C_R   0.177383 0.412179 0.424557 0.324906
C14   C     C_R   0.860780 0.458277 0.462857 0.331749
C15   C     C_R   0.138919 0.541117 0.537564 0.341916
C16   C     C_R   0.427360 0.495917 0.667967 0.557292
C17   C     C_R   0.572770 0.505279 0.332060 0.565286
C18   C     C_R   0.980018 0.464788 0.469571 -0.066200
C19   C     C_R   0.019405 0.533990 0.531280 -0.052989
C20   C     C_R   0.385532 0.498729 0.764286 0.005147
C21   C     C_R   0.615706 0.512995 0.236058 0.007394
C22   C     C_R   0.229704 0.506920 0.899595 -0.125258
C23   C     C_R   0.358971 0.522528 0.087962 -0.116797
C24   C     C_R   0.775176 0.536970 0.101621 -0.122581
C25   C     C_R   0.265182 0.500505 0.808284 -0.117192
C26   C     C_R   0.737902 0.527294 0.192485 -0.111334
C27   C     C_R   0.469587 0.503274 0.812539 -0.111231
C28   C     C_R   0.531632 0.508759 0.187862 -0.114377
C29   C     C_R   0.437177 0.514223 0.904376 0.033505
C30   C     C_R   0.566811 0.522209 0.096680 0.031938
C31   C     C_R   0.314435 0.513411 0.947838 0.050955
C32   C     C_R   0.690831 0.534147 0.053498 0.052325
C33   C     C_R   0.522807 0.523894 0.954049 0.034772
C34   C     C_R   0.647655 0.537659 0.913744 -0.126054
C35   C     C_R   0.482245 0.522106 0.047281 0.036262
C36   C     C_3   0.800281 0.060914 0.557373 -0.015896
C37   C     C_3   0.908640 0.146579 0.546436 -0.354366
C38   C     C_3   0.142694 0.981313 0.589237 -0.017495
C39   C     C_3   0.037932 0.892150 0.610008 -0.340941
C40   C     C_R   0.277269 0.519078 0.038962 -0.116442
C41   C     C_R   0.729649 0.543299 0.962786 -0.123166
C42   C     C_R   0.466321 0.185902 0.499212 -0.047243
C43   C     C_R   0.533502 0.814232 0.500953 -0.051558
C44   C     C_R   0.657458 0.984773 0.491300 0.263306
Cl1   Cl    Cl    0.268965 0.329502 0.356359 -0.588516
Cl2   Cl    Cl    0.730814 0.669827 0.644283 -0.632256
Cl3   Cl    Cl    0.186699 0.627252 0.616229 -0.646281
Cl4   Cl    Cl    0.813227 0.372509 0.383863 -0.602781
Cu1   Cu    Cu3+1 0.386820 0.492450 0.493500 1.085986
Cu2   Cu    Cu3+1 0.613180 0.507550 0.506500 1.085448
H1    H     H_    0.183847 0.519935 0.072869 0.119383
H2    H     H_    0.870136 0.546954 0.068889 0.109939
H3    H     H_    0.322457 0.528697 0.157923 0.124097
H4    H     H_    0.685842 0.547637 0.844241 0.138832
H5    H     H_    0.652587 0.187619 0.489125 0.213931
H6    H     H_    0.346351 0.812305 0.513628 0.222919
H7    H     H_    0.278091 0.160336 0.506552 0.156572
H8    H     H_    0.724626 0.840932 0.486217 0.166689
H9    H     H_    0.823331 0.988074 0.576731 0.145844
H10   H     H_    0.726118 0.086395 0.610876 0.127090
H11   H     H_    0.886542 0.220722 0.529107 0.178521
H12   H     H_    0.824387 0.554089 0.929193 0.117723
H13   H     H_    0.935266 0.158933 0.608716 0.085987
H14   H     H_    0.984804 0.124347 0.493556 0.188560
H15   H     H_    0.109087 0.051157 0.575004 0.125171
H16   H     H_    0.176956 0.997378 0.648541 0.131625
H17   H     H_    0.068063 0.822526 0.628217 0.197424
H18   H     H_    0.965616 0.915043 0.665846 0.112073
H19   H     H_    0.002156 0.872470 0.552021 0.181508
H20   H     H_    0.963570 0.648023 0.633962 0.178831
H21   H     H_    0.034535 0.348121 0.368841 0.203894
H22   H     H_    0.438572 0.492814 0.222967 0.163274
H23   H     H_    0.559917 0.495951 0.776874 0.149659
H24   H     H_    0.804481 0.530836 0.228439 0.166755
H25   H     H_    0.198611 0.496858 0.772332 0.170541
H26   H     H_    0.135922 0.507201 0.932589 0.110042
N1    N     N_R   0.216750 0.481110 0.483710 -0.211972
N2    N     N_R   0.783250 0.518890 0.516290 -0.211022
O1    O     O_R   0.419950 0.645670 0.495380 -0.467525
O2    O     O_3   0.231257 0.952794 0.515316 -0.548384
O3    O     O_R   0.580050 0.354330 0.504620 -0.475298
O4    O     O_R   0.611110 0.658410 0.506370 -0.465274
O5    O     O_R   0.388890 0.341590 0.493630 -0.469487
O6    O     O_R   0.350820 0.490050 0.621260 -0.468158
O7    O     O_R   0.649180 0.509950 0.378740 -0.463345
O8    O     O_R   0.541970 0.502800 0.632250 -0.473291
O9    O     O_R   0.458030 0.497200 0.367750 -0.472654
O10   O     O_3   0.769789 0.044763 0.476960 -0.542145

loop_
_geom_bond_atom_site_label_1
_geom_bond_atom_site_label_2
_ccdc_geom_bond_type
C24   H2    S    
C30   C32   A    
C21   C26   A    
C27   C29   A    
C39   H18   S    
C14   C18   A    
C5    H6    S    
C2    C7    A    
C22   H26   S    
C6    H5    S    
C36   H9    S    
C7    C8    A    
C36   O10   S    
C15   C19   A    
C3    C43   A    
C38   O2    S    
C30   C35   A    
C17   O7    A    
Cu1   O6    S    
C36   C37   S    
C24   C26   A    
C38   C39   S    
C20   C25   A    
C23   C40   A    
C29   C33   A    
C16   O6    A    
C31   C40   A    
C18   C19   A    
Cu1   O9    S    
C12   C42   S    
Cu2   O7    S    
C33   C35   A    
C1    C43   S    
C38   H16   S    
C22   C25   A    
C4    H7    S    
C32   C41   A    
C15   Cl3   S    
C10   H21   S    
C5    C43   A    
C16   O8    A    
C28   H22   S    
C34   C41   A    
C41   H12   S    
Cu2   N2    S    
C37   H13   S    
C9    C19   A    
C23   H3    S    
C13   N1    A    
C3    C44   A    
C22   C31   A    
C9    H20   S    
C5    C7    A    
C6    C8    A    
C1    O4    A    
C17   C21   S    
Cu1   O1    S    
C12   O5    A    
C25   H25   S    
C2    C4    A    
C24   C32   A    
C11   N2    A    
C38   H15   S    
C16   C20   S    
C33   C34   A    
C39   H19   S    
C9    C11   A    
C21   C28   A    
C34   H4    S    
C23   C35   A    
C1    O1    A    
C37   H14   S    
Cu2   O4    S    
C17   O9    A    
C39   H17   S    
C8    C44   A    
C36   H10   S    
C10   C13   A    
C37   H11   S    
C20   C27   A    
C40   H1    S    
Cu1   O5    S    
C28   C30   A    
C29   C31   A    
C27   H23   S    
C13   Cl1   S    
C15   N1    A    
C4    C42   A    
C10   C18   A    
C26   H24   S    
Cu1   N1    S    
C12   O3    A    
C14   N2    A    
C2    O2    S    
Cu2   O8    S    
C3    H8    S    
Cu1   Cu2   S    
C6    C42   A    
C14   Cl4   S    
C11   Cl2   S    
C44   O10   S    
Cu2   O3    S    
