data_mof_unit_32760.cif
_audit_creation_date              2013-03-05T15:44:53-0500
_audit_creation_method            fapswitch 2.2
_symmetry_space_group_name_H-M    P1
_symmetry_Int_Tables_number       1
_space_group_crystal_system       triclinic
_cell_length_a                    15.703278
_cell_length_b                    15.093765
_cell_length_c                    9.825709
_cell_angle_alpha                 89.999883
_cell_angle_beta                  61.115356
_cell_angle_gamma                 89.999815
_cell_volume                      2039.1754249

loop_
_atom_site_label
_atom_site_type_symbol
_atom_site_description
_atom_site_fract_x
_atom_site_fract_y
_atom_site_fract_z
_atom_type_partial_charge
O1    O     O_R   0.422430 0.089640 0.419570 -0.577778
O2    O     O_R   0.577570 0.910360 0.580430 -0.577785
O3    O     O_R   0.577570 0.089640 0.580430 -0.589735
O4    O     O_R   0.422430 0.910360 0.419570 -0.589728
O5    O     O_R   0.922430 0.589640 0.419570 -0.589741
O6    O     O_R   0.077570 0.410360 0.580430 -0.589718
O7    O     O_R   0.077570 0.589640 0.580430 -0.577782
O8    O     O_R   0.922430 0.410360 0.419570 -0.577786
O9    O     O_R   0.384170 0.089650 0.673910 -0.568033
O10   O     O_R   0.615830 0.910350 0.326090 -0.568050
O11   O     O_R   0.615830 0.089650 0.326090 -0.568209
O12   O     O_R   0.384170 0.910350 0.673910 -0.568206
O13   O     O_R   0.884170 0.589650 0.673910 -0.568206
O14   O     O_R   0.115830 0.410350 0.326090 -0.568207
O15   O     O_R   0.115830 0.589650 0.326090 -0.568038
O16   O     O_R   0.884170 0.410350 0.673910 -0.568045
C1    C     C_R   0.369467 0.116753 0.561046 0.838427
C2    C     C_R   0.630534 0.883248 0.438954 0.838404
C3    C     C_R   0.625049 0.121685 0.441717 0.838739
C4    C     C_R   0.374963 0.878301 0.558276 0.838701
C5    C     C_R   0.874954 0.621690 0.558281 0.838717
C6    C     C_R   0.125043 0.378308 0.441721 0.838730
C7    C     C_R   0.130528 0.616757 0.438956 0.838434
C8    C     C_R   0.869462 0.383251 0.561048 0.838407
C9    C     C_2   0.510014 0.004112 0.917560 0.005498
C10   C     C_2   0.489985 0.995892 0.082440 0.005480
C11   C     C_2   0.010015 0.495898 0.917560 0.005539
C12   C     C_2   0.989986 0.504119 0.082439 0.005453
Cu1   Cu    Cu3+1 0.522650 0.000000 0.349410 0.928198
Cu2   Cu    Cu3+1 0.477350 0.000000 0.650590 0.928201
Cu3   Cu    Cu3+1 0.022650 0.500000 0.349410 0.928198
Cu4   Cu    Cu3+1 0.977350 0.500000 0.650590 0.928205
N1    N     N_2   0.443290 0.000000 0.876860 -0.134624
N2    N     N_2   0.556710 0.000000 0.123140 -0.134615
N3    N     N_2   0.943290 0.500000 0.876860 -0.134628
N4    N     N_2   0.056710 0.500000 0.123140 -0.134614
C13   C     C_2   0.308921 0.803717 0.580908 -0.006864
C14   C     C_2   0.691127 0.196233 0.419062 -0.006773
C15   C     C_2   0.708943 0.819611 0.408920 0.001506
C16   C     C_2   0.291060 0.180394 0.591078 0.001508
C17   C     C_2   0.791043 0.319624 0.591088 0.001468
C18   C     C_2   0.208919 0.680412 0.408930 0.001565
C19   C     C_2   0.191102 0.303741 0.419079 -0.006810
C20   C     C_2   0.808889 0.696251 0.580928 -0.006809
C21   C     C_2   0.333705 0.740770 0.467823 0.192189
C22   C     C_2   0.666326 0.259234 0.532058 0.192188
C23   C     C_2   0.763431 0.828395 0.482199 0.202859
C24   C     C_2   0.236557 0.171600 0.517826 0.202850
C25   C     C_2   0.736586 0.328390 0.517750 0.202888
C26   C     C_2   0.263464 0.671598 0.482106 0.202828
C27   C     C_2   0.166306 0.240764 0.532115 0.192198
C28   C     C_2   0.833684 0.759233 0.467902 0.192190
H1    H     H_    0.416372 0.985455 0.174113 0.138805
H2    H     H_    0.583628 0.014549 0.825888 0.138815
H3    H     H_    0.916373 0.514562 0.174110 0.138830
H4    H     H_    0.083629 0.485464 0.825887 0.138781
C29   C     C_3   0.658186 0.011694 0.008489 -0.533694
H5    H     H_    0.703478 0.011148 0.066734 0.229279
H6    H     H_    0.683374 0.955983 0.924368 0.159261
H7    H     H_    0.669199 0.076282 0.947895 0.172765
C30   C     C_3   0.341814 0.988311 0.991512 -0.533689
H8    H     H_    0.296522 0.988854 0.933267 0.229277
H9    H     H_    0.330797 0.923727 0.052117 0.172736
H10   H     H_    0.316628 0.044027 0.075625 0.159266
C31   C     C_3   0.158186 0.488310 0.008486 -0.533668
H11   H     H_    0.203479 0.488857 0.066729 0.229273
H12   H     H_    0.169202 0.423723 0.947889 0.172747
H13   H     H_    0.183371 0.544023 0.924366 0.159241
C32   C     C_3   0.841814 0.511696 0.991509 -0.533714
H14   H     H_    0.796523 0.511148 0.933264 0.229282
H15   H     H_    0.816625 0.455987 0.075633 0.159278
H16   H     H_    0.830801 0.576286 0.052099 0.172763
C33   C     C_3   0.565897 0.266094 0.671935 -0.850416
H17   H     H_    0.556873 0.330150 0.733188 0.225929
H18   H     H_    0.509518 0.262869 0.634732 0.220899
H19   H     H_    0.554255 0.212563 0.756565 0.249176
C34   C     C_3   0.434092 0.734001 0.327811 -0.850241
H20   H     H_    0.443126 0.669970 0.266483 0.225905
H21   H     H_    0.445624 0.787566 0.243285 0.249131
H22   H     H_    0.490536 0.737236 0.364875 0.220933
C35   C     C_3   0.241757 0.091233 0.422694 -0.888181
H23   H     H_    0.179948 0.090081 0.397576 0.230788
H24   H     H_    0.309502 0.094028 0.310130 0.237234
H25   H     H_    0.238856 0.029336 0.485980 0.222481
C36   C     C_3   0.758209 0.908747 0.577376 -0.888187
H26   H     H_    0.820008 0.909894 0.602520 0.230781
H27   H     H_    0.761111 0.970654 0.514114 0.222496
H28   H     H_    0.690457 0.905935 0.689928 0.237245
C37   C     C_3   0.258342 0.591186 0.577087 -0.888220
H29   H     H_    0.320173 0.590036 0.602153 0.230807
H30   H     H_    0.190615 0.593908 0.689676 0.237223
H31   H     H_    0.261268 0.529323 0.513709 0.222465
C38   C     C_3   0.741866 0.408706 0.422455 -0.888183
H32   H     H_    0.680098 0.409838 0.397233 0.230765
H33   H     H_    0.738954 0.470639 0.485662 0.222510
H34   H     H_    0.809642 0.405851 0.309938 0.237260
C39   C     C_3   0.934099 0.766063 0.327983 -0.850363
H35   H     H_    0.943126 0.830110 0.266703 0.225922
H36   H     H_    0.990496 0.762836 0.365146 0.220900
H37   H     H_    0.945707 0.712520 0.243388 0.249166
C40   C     C_3   0.065893 0.233945 0.672044 -0.850354
H38   H     H_    0.056862 0.169899 0.733330 0.225922
H39   H     H_    0.054297 0.287490 0.756630 0.249156
H40   H     H_    0.009488 0.237177 0.634897 0.220920
C41   C     C_3   0.787891 0.198701 0.271446 -0.906936
H41   H     H_    0.797373 0.140083 0.197099 0.234031
H42   H     H_    0.792604 0.259073 0.203658 0.250233
H43   H     H_    0.848265 0.198698 0.299922 0.242523
C42   C     C_3   0.212226 0.801121 0.728645 -0.906823
H44   H     H_    0.202728 0.859709 0.803060 0.234065
H45   H     H_    0.151774 0.801071 0.700344 0.242529
H46   H     H_    0.207662 0.740722 0.796288 0.250207
C43   C     C_3   0.275014 0.256619 0.700740 -0.926029
H47   H     H_    0.327274 0.254536 0.746448 0.240981
H48   H     H_    0.284912 0.320687 0.639226 0.239215
H49   H     H_    0.200377 0.253386 0.801119 0.249369
C44   C     C_3   0.725016 0.743404 0.299212 -0.926033
H50   H     H_    0.672762 0.745488 0.253492 0.240967
H51   H     H_    0.799654 0.746661 0.198845 0.249372
H52   H     H_    0.715131 0.679326 0.360690 0.239203
C45   C     C_3   0.224892 0.756679 0.299387 -0.926074
H53   H     H_    0.172610 0.754602 0.253724 0.240950
H54   H     H_    0.214973 0.820718 0.360982 0.239222
H55   H     H_    0.299515 0.753500 0.198972 0.249365
C46   C     C_3   0.774913 0.243454 0.700892 -0.926013
H56   H     H_    0.827157 0.245537 0.746632 0.241001
H57   H     H_    0.700270 0.246762 0.801241 0.249376
H58   H     H_    0.784767 0.179352 0.639489 0.239202
C47   C     C_3   0.712153 0.698769 0.728594 -0.906870
H59   H     H_    0.702654 0.640146 0.802940 0.234034
H60   H     H_    0.707517 0.759136 0.796351 0.250217
H61   H     H_    0.651746 0.698820 0.700192 0.242531
C48   C     C_3   0.287835 0.301212 0.271411 -0.906891
H62   H     H_    0.297331 0.359822 0.197040 0.234042
H63   H     H_    0.348244 0.301177 0.299809 0.242529
H64   H     H_    0.292473 0.240832 0.203682 0.250219

loop_
_geom_bond_atom_site_label_1
_geom_bond_atom_site_label_2
_geom_bond_distance
_ccdc_geom_bond_type
O6    Cu4   1.932487 S    
C38   H32   1.111200 S    
O2    C2    1.294075 A    
C33   H17   1.111175 S    
O13   Cu4   1.923708 S    
O14   Cu3   1.923708 S    
C35   H25   1.110951 S    
C19   C48   1.511569 S    
C39   H35   1.111175 S    
C36   H26   1.111183 S    
C47   H60   1.109926 S    
C41   H42   1.109890 S    
C22   C25   1.475393 S    
O11   C3    1.305535 A    
C40   H38   1.111173 S    
C7    C18   1.474671 S    
C23   C36   1.509346 S    
C43   H47   1.110053 S    
C44   H51   1.109971 S    
C29   H6    1.109456 S    
O6    C6    1.290642 A    
C28   C39   1.514198 S    
C24   C35   1.509351 S    
C30   H9    1.111435 S    
C32   H15   1.109451 S    
C38   H33   1.110959 S    
C45   H55   1.109946 S    
C39   H36   1.110163 S    
C10   N2    1.290914 D    
C24   C27   1.475421 S    
C16   C43   1.511922 S    
C31   H12   1.111435 S    
C46   H58   1.110796 S    
O3    C3    1.290639 A    
C37   H30   1.104525 S    
C13   C42   1.511600 S    
O4    Cu1   1.932492 S    
C34   H20   1.111181 S    
C47   H61   1.110612 S    
C20   C28   1.367817 D    
O15   C7    1.303005 A    
O16   C8    1.303018 A    
C48   H63   1.110610 S    
C8    C17   1.474705 S    
C33   H18   1.110170 S    
C30   H8    1.107550 S    
C17   C25   1.365060 D    
C35   H24   1.104563 S    
C12   H3    1.080051 S    
C35   H23   1.111183 S    
C34   H21   1.109468 S    
C41   H43   1.110582 S    
C45   H54   1.110759 S    
O11   Cu1   1.923713 S    
C36   H27   1.110947 S    
Cu4   N3    2.019942 S    
C17   C46   1.511942 S    
C9    H2    1.080046 S    
C42   H46   1.109940 S    
N4    C31   1.450937 S    
C29   H7    1.111437 S    
C11   N3    1.290912 D    
C20   C47   1.511576 S    
C15   C44   1.511918 S    
Cu1   N2    2.019942 S    
C1    C16   1.474697 S    
O3    Cu2   1.932491 S    
C2    C15   1.474689 S    
Cu1   Cu2   2.688824 S    
C3    C14   1.472816 S    
N2    C29   1.450934 S    
C5    C20   1.472855 S    
C26   C37   1.509309 S    
C6    C19   1.472871 S    
C31   H13   1.109467 S    
O12   C4    1.305578 A    
O1    Cu1   1.932486 S    
O13   C5    1.305549 A    
C37   H31   1.110926 S    
C12   N4    1.290916 D    
C45   H53   1.110047 S    
O9    Cu2   1.923708 S    
C18   C26   1.365012 D    
C48   H64   1.109921 S    
N1    C30   1.450934 S    
C38   H34   1.104581 S    
C46   H56   1.110059 S    
C33   H19   1.109446 S    
C44   H52   1.110782 S    
C27   C40   1.514206 S    
C13   C21   1.367854 D    
C10   H1    1.080047 S    
C39   H37   1.109450 S    
C15   C23   1.365039 D    
C47   H59   1.110660 S    
C36   H28   1.104561 S    
O9    C1    1.303014 A    
C16   C24   1.365042 D    
O7    Cu4   1.932491 S    
Cu2   N1    2.019942 S    
O12   Cu2   1.923715 S    
C11   H4    1.080042 S    
O8    Cu3   1.932492 S    
Cu3   Cu4   2.688824 S    
C32   H16   1.111436 S    
C43   H49   1.109982 S    
O15   Cu3   1.923713 S    
C23   C28   1.475403 S    
O16   Cu4   1.923715 S    
C41   H41   1.110651 S    
O1    C1    1.294076 A    
O2    Cu2   1.932487 S    
C25   C38   1.509373 S    
O14   C6    1.305558 A    
C14   C41   1.511569 S    
C42   H45   1.110628 S    
C9    C10   1.498879 S    
C44   H50   1.110053 S    
C30   H10   1.109463 S    
C4    C13   1.472919 S    
C34   H22   1.110189 S    
O10   Cu1   1.923708 S    
C19   C27   1.367825 D    
C29   H5    1.107549 S    
C48   H62   1.110658 S    
C21   C26   1.475428 S    
O10   C2    1.303013 A    
O7    C7    1.294073 A    
O8    C8    1.294077 A    
C32   H14   1.107547 S    
C14   C22   1.367803 D    
O4    C4    1.290647 A    
O5    C5    1.290643 A    
N3    C32   1.450933 S    
C40   H39   1.109448 S    
C31   H11   1.107549 S    
C11   C12   1.498879 S    
C46   H57   1.109985 S    
Cu3   N4    2.019942 S    
C21   C34   1.514235 S    
C40   H40   1.110179 S    
O5    Cu3   1.932486 S    
C37   H29   1.111174 S    
C42   H44   1.110643 S    
C22   C33   1.514200 S    
C18   C45   1.511873 S    
C9    N1    1.290914 D    
C43   H48   1.110794 S    
