data_mof_unit_13077.cif
_audit_creation_date              2012-10-26T18:59:54-0400
_audit_creation_method            fapswitch 2.2
_symmetry_space_group_name_H-M    P1
_symmetry_Int_Tables_number       1
_space_group_crystal_system       triclinic
_cell_length_a                    9.5262
_cell_length_b                    10.922654
_cell_length_c                    17.054378
_cell_angle_alpha                 88.02191
_cell_angle_beta                  92.430901
_cell_angle_gamma                 91.636586
_cell_volume                      1771.225769

loop_
_atom_site_label
_atom_site_type_symbol
_atom_type_description
_atom_site_fract_x
_atom_site_fract_y
_atom_site_fract_z
_atom_type_partial_charge
C1    C     C_R   0.497730 0.262661 0.502183 0.564583
C2    C     C_R   0.492764 0.130103 0.506956 0.013686
C3    C     C_R   0.367140 0.057964 0.514675 0.213821
C4    C     C_R   0.515385 0.498213 0.651153 0.589769
C5    C     C_R   0.373418 0.929638 0.516034 -0.113730
C6    C     C_R   0.501750 0.870131 0.508357 -0.033717
C7    C     C_R   0.622551 0.944538 0.506213 0.034773
C8    C     C_3   0.779010 0.950063 0.501506 0.122074
C9    C     C_3   0.770443 0.090023 0.499786 -0.177706
C10   C     C_R   0.071168 0.555693 0.439409 0.204904
C11   C     C_R   0.076533 0.433980 0.555038 0.065454
C12   C     C_R   0.638967 0.438336 0.776757 -0.131649
C13   C     C_R   0.927496 0.433502 0.554824 0.031147
C14   C     C_R   0.923337 0.557653 0.440452 0.127646
C15   C     C_3   0.925018 0.691657 0.422872 -0.244530
C16   C     C_R   0.501721 0.737479 0.502693 0.550922
C17   C     C_3   0.082215 0.687770 0.415642 0.132712
C18   C     C_R   0.483757 0.497607 0.348722 0.547897
C19   C     C_R   0.519603 0.487335 0.737509 -0.021691
C20   C     C_R   0.403952 0.518462 0.781559 0.201709
C21   C     C_R   0.408046 0.496429 0.862511 -0.077418
C22   C     C_R   0.526801 0.444995 0.901329 0.196437
C23   C     C_R   0.573249 0.427695 0.140253 -0.122995
C24   C     C_R   0.643043 0.418030 0.857963 0.256803
C25   C     C_3   0.789237 0.576286 0.243856 0.008953
C26   C     C_3   0.824249 0.614535 0.158998 -0.280013
C27   C     C_3   0.923399 0.726743 0.156654 -0.442603
C28   C     C_3   0.213440 0.803477 0.325399 -0.001873
C29   C     C_3   0.136652 0.925189 0.325444 -0.279867
C30   C     C_3   0.234640 0.033211 0.304187 -0.458788
C31   C     C_3   0.109553 0.348090 0.130295 0.017206
C32   C     C_3   0.155115 0.232825 0.090117 -0.249316
C33   C     C_3   0.051749 0.125593 0.103880 -0.465521
C34   C     C_R   0.591781 0.457348 0.218829 0.223454
C35   C     C_R   0.440639 0.433492 0.101168 0.186545
C36   C     C_R   0.473184 0.480155 0.262849 -0.041597
C37   C     C_R   0.338938 0.476883 0.224648 -0.192851
C38   C     C_R   0.322023 0.451244 0.144703 0.263065
C39   C     C_R   0.616906 0.067927 0.505119 -0.065269
Cl1   Cl    Cl    0.864192 0.892648 0.590252 -0.516052
Cl2   Cl    Cl    0.795760 0.358141 0.904694 -0.556464
Cl3   Cl    Cl    0.253807 0.590863 0.739863 -0.515786
Cl4   Cl    Cl    0.199241 0.119468 0.522806 -0.603095
Cu1   Cu    Cu3+1 0.640670 0.499980 0.500000 0.998529
Cu2   Cu    Cu3+1 0.359330 0.500020 0.500000 1.040633
H1    H     H_    0.276799 0.877311 0.523089 0.180331
H2    H     H_    0.140586 0.744059 0.459607 0.137088
H3    H     H_    0.728818 0.413969 0.744258 0.176522
H4    H     H_    0.246148 0.494839 0.256525 0.174722
H5    H     H_    0.319354 0.522759 0.895243 0.200392
H6    H     H_    0.889980 0.573636 0.278552 0.196168
H7    H     H_    0.722677 0.646324 0.268793 0.122914
H8    H     H_    0.874638 0.538259 0.130757 0.193265
H9    H     H_    0.726358 0.637736 0.124664 0.165741
H10   H     H_    0.877872 0.803643 0.187135 0.135707
H11   H     H_    0.939953 0.756161 0.094684 0.176582
H12   H     H_    0.815634 0.917051 0.445384 0.083639
H13   H     H_    0.026900 0.704258 0.185036 0.200958
H14   H     H_    0.259701 0.795027 0.267182 0.154227
H15   H     H_    0.303120 0.802309 0.369258 0.136334
H16   H     H_    0.046068 0.922667 0.282246 0.159609
H17   H     H_    0.095898 0.939113 0.384471 0.190905
H18   H     H_    0.327487 0.036402 0.345735 0.161291
H19   H     H_    0.177869 0.120209 0.307233 0.170722
H20   H     H_    0.270958 0.025034 0.243599 0.139900
H21   H     H_    0.998624 0.364697 0.111538 0.179397
H22   H     H_    0.111166 0.332705 0.195260 0.116911
H23   H     H_    0.817669 0.134788 0.552604 0.204180
H24   H     H_    0.160960 0.252278 0.025910 0.224833
H25   H     H_    0.260896 0.206437 0.113737 0.151082
H26   H     H_    0.041001 0.106443 0.167728 0.138516
H27   H     H_    0.090461 0.042355 0.077120 0.165860
H28   H     H_    0.946949 0.146738 0.076508 0.189812
H29   H     H_    0.798145 0.134243 0.442598 0.127017
H30   H     H_    0.134359 0.382596 0.600452 0.179750
H31   H     H_    0.873355 0.381295 0.599936 0.130918
H32   H     H_    0.865921 0.721041 0.368591 0.109421
H33   H     H_    0.896981 0.738043 0.475874 0.175084
H34   H     H_    0.665544 0.406614 0.108899 0.171693
N1    N     N_2   0.538358 0.431003 0.984252 -0.206738
N2    N     N_2   0.424630 0.432693 0.017885 -0.204317
N3    N     N_R   0.147870 0.500930 0.499500 -0.255831
N4    N     N_R   0.851960 0.500890 0.499500 -0.241878
O1    O     O_R   0.618810 0.319640 0.500000 -0.523883
O2    O     O_3   0.120108 0.701974 0.336369 -0.600628
O3    O     O_3   0.190488 0.452933 0.106881 -0.541722
O4    O     O_R   0.381230 0.319680 0.499990 -0.452968
O5    O     O_R   0.631790 0.498830 0.613930 -0.507557
O6    O     O_R   0.394210 0.498870 0.613920 -0.447876
O7    O     O_R   0.618770 0.680320 0.500010 -0.483486
O8    O     O_R   0.381190 0.680360 0.500000 -0.524452
O9    O     O_R   0.605790 0.501130 0.386080 -0.467239
O10   O     O_R   0.368210 0.501170 0.386070 -0.505238
O11   O     O_3   0.726876 0.457340 0.251601 -0.557871

loop_
_geom_bond_atom_site_label_1
_geom_bond_atom_site_label_2
_ccdc_geom_bond_type
C1    O4    A    
C31   H21   S    
C16   O7    A    
C30   H19   S    
Cu2   N3    S    
C12   H3    S    
Cu1   N4    S    
Cu2   O10   S    
C35   N2    S    
C7    C8    S    
C1    O1    A    
C31   H22   S    
C3    Cl4   S    
C26   C27   S    
C29   C30   S    
C38   O3    S    
C17   O2    S    
C28   C29   S    
Cu2   O4    S    
C5    C6    A    
C27   H10   S    
C15   H33   S    
C10   C17   S    
C9    C39   S    
C1    C2    S    
C33   H27   S    
C4    C19   S    
C2    C39   A    
C19   C20   A    
C8    C9    S    
Cu2   O6    S    
Cu1   O9    S    
C25   O11   S    
C31   O3    S    
C21   C22   A    
C24   Cl2   S    
C14   N4    A    
C26   H9    S    
C21   H5    S    
C28   H15   S    
C11   N3    A    
C29   H16   S    
C17   H2    S    
C35   C38   A    
C10   C14   A    
C27   H11   S    
C32   H25   S    
Cu1   O1    S    
C25   C26   S    
C10   N3    A    
C25   H6    S    
C37   C38   A    
C8    H12   S    
C37   H4    S    
C31   C32   S    
C13   H31   S    
C23   C34   A    
C6    C7    A    
C33   H28   S    
C23   C35   A    
C22   C24   A    
C9    H29   S    
C26   H8    S    
Cu1   O7    S    
Cu1   Cu2   S    
C4    O6    A    
C28   H14   S    
C15   C17   S    
C13   N4    A    
C29   H17   S    
C36   C37   A    
C34   O11   S    
N1    N2    D    
C3    C5    A    
C27   H13   S    
C20   Cl3   S    
C32   H24   S    
C4    O5    A    
C5    H1    S    
C12   C24   A    
C18   O9    A    
C32   C33   S    
C2    C3    A    
C25   H7    S    
C22   N1    S    
C11   H30   S    
C11   C13   A    
C15   H32   S    
C12   C19   A    
C34   C36   A    
Cu2   O8    S    
Cu1   O5    S    
C9    H23   S    
C30   H20   S    
C33   H26   S    
C6    C16   S    
C20   C21   A    
C16   O8    A    
C28   O2    S    
C18   O10   A    
C7    C39   A    
C14   C15   S    
C8    Cl1   S    
C23   H34   S    
C30   H18   S    
C18   C36   S    
