data_mof_unit_54393.cif
_audit_creation_date              2012-12-10T18:57:52-0500
_audit_creation_method            fapswitch 2.2
_symmetry_space_group_name_H-M    P1
_symmetry_Int_Tables_number       1
_space_group_crystal_system       triclinic
_cell_length_a                    10.855567
_cell_length_b                    9.941296
_cell_length_c                    8.914655
_cell_angle_alpha                 89.969815
_cell_angle_beta                  92.591626
_cell_angle_gamma                 89.882922
_cell_volume                      961.069155104

loop_
_atom_site_label
_atom_site_type_symbol
_atom_type_description
_atom_site_fract_x
_atom_site_fract_y
_atom_site_fract_z
_atom_type_partial_charge
C1    C     C_R   0.260424 0.500147 0.507432 0.923316
C2    C     C_R   0.739571 0.499868 0.492535 0.923259
C3    C     C_R   0.499501 0.500027 0.218903 0.899910
C4    C     C_R   0.500502 0.499974 0.781096 0.899934
C5    C     C_1   0.499816 0.500041 0.065425 -0.114589
C6    C     C_1   0.500186 0.499965 0.934575 -0.114449
C7    C     C_R   0.063910 0.376864 0.515223 0.031434
C8    C     C_R   0.936071 0.623228 0.484781 0.031461
C9    C     C_R   0.936922 0.376273 0.491030 0.030325
C10   C     C_R   0.063081 0.623816 0.508702 0.030396
C11   C     C_R   0.872418 0.499670 0.485649 -0.091199
C12   C     C_R   0.127573 0.500405 0.514248 -0.091252
C13   C     C_R   0.553775 0.071579 0.617815 -0.053087
C14   C     C_R   0.446236 0.928431 0.382160 -0.053281
C15   C     C_R   0.445972 0.072041 0.382382 -0.051187
C16   C     C_R   0.554010 0.927973 0.617638 -0.051273
N1    N     N_R   0.500000 0.857200 0.500000 -0.148072
N2    N     N_R   0.500000 0.142800 0.500000 -0.148536
O1    O     O_R   0.316770 0.614620 0.499990 -0.570836
O2    O     O_R   0.683230 0.385380 0.500010 -0.571630
O3    O     O_R   0.683230 0.614620 0.500010 -0.572483
O4    O     O_R   0.316770 0.385380 0.499990 -0.573108
O5    O     O_R   0.500010 0.614640 0.285340 -0.609907
O6    O     O_R   0.499990 0.385360 0.714660 -0.609691
O7    O     O_R   0.499990 0.614640 0.714660 -0.610381
O8    O     O_R   0.500010 0.385360 0.285340 -0.610131
Zn1   Zn    Zn3+2 0.500000 0.653120 0.500000 1.022807
Zn2   Zn    Zn3+2 0.500000 0.346880 0.500000 1.022860
N3    N     N_3   0.127343 0.252375 0.548516 -0.389819
H1    H     H_    0.095670 0.213455 0.648668 0.178159
H2    H     H_    0.108373 0.183190 0.462478 0.220824
N4    N     N_3   0.872578 0.747772 0.451960 -0.389766
H3    H     H_    0.904086 0.786974 0.351865 0.178018
H4    H     H_    0.891578 0.816745 0.538199 0.220609
N5    N     N_3   0.874435 0.250435 0.464394 -0.387769
H5    H     H_    0.906207 0.207738 0.366168 0.178556
H6    H     H_    0.894385 0.184718 0.553678 0.220000
N6    N     N_3   0.125617 0.749698 0.534848 -0.387590
H7    H     H_    0.093996 0.792676 0.632993 0.178474
H8    H     H_    0.105622 0.815189 0.445372 0.219637
C17   C     C_2   0.611641 0.143373 0.747304 0.966113
O9    O     O_2   0.563366 0.140081 0.868377 -0.534605
O10   O     O_R   0.722174 0.212240 0.732837 -0.810170
H9    H     H_    0.752300 0.257165 0.829727 0.327870
C18   C     C_2   0.388458 0.856663 0.252553 0.965190
O11   O     O_2   0.436082 0.861217 0.131128 -0.535222
O12   O     O_R   0.278753 0.786315 0.267327 -0.808778
H10   H     H_    0.248771 0.741315 0.170415 0.327662
C19   C     C_2   0.385883 0.144439 0.254499 0.966415
O13   O     O_2   0.433918 0.144857 0.133216 -0.535275
O14   O     O_R   0.273244 0.209193 0.270666 -0.813160
H11   H     H_    0.241584 0.255051 0.174854 0.328296
C20   C     C_2   0.613944 0.855613 0.745680 0.965559
O15   O     O_2   0.566301 0.856225 0.867201 -0.535976
O16   O     O_R   0.725994 0.789685 0.729378 -0.811999
H12   H     H_    0.757514 0.743862 0.825278 0.328138

loop_
_geom_bond_atom_site_label_1
_geom_bond_atom_site_label_2
_ccdc_geom_bond_type
C15   N2    A    
O16   H12   S    
N3    H1    S    
C7    N3    S    
O5    Zn1   S    
O7    Zn1   S    
O1    Zn1   S    
C17   O9    D    
N1    Zn1   S    
C3    O5    A    
N5    H5    S    
C10   N6    S    
N4    H3    S    
C2    O3    A    
C13   C17   S    
C4    O7    A    
O3    Zn1   S    
C1    O4    A    
N3    H2    S    
O4    Zn2   S    
C20   O15   D    
C16   C20   S    
C15   C19   S    
N6    H8    S    
C17   O10   S    
C14   N1    A    
C9    C11   A    
C5    C6    T    
C1    C12   S    
C10   C12   A    
C13   N2    A    
C8    C11   A    
C2    C11   S    
C4    C6    S    
N5    H6    S    
C14   C18   S    
C20   O16   S    
O10   H9    S    
C7    C12   A    
C4    O6    A    
C1    O1    A    
C2    O2    A    
O14   H11   S    
C8    N4    S    
O12   H10   S    
C7    C9    A    
N2    Zn2   S    
C8    C10   A    
C19   O13   D    
C18   O12   S    
C13   C16   A    
C9    N5    S    
C14   C15   A    
O2    Zn2   S    
C19   O14   S    
C18   O11   D    
O8    Zn2   S    
C3    O8    A    
O6    Zn2   S    
N4    H4    S    
C16   N1    A    
C3    C5    S    
N6    H7    S    
