data_mof_unit_20907.cif
_audit_creation_date              2013-03-05T16:23:27-0500
_audit_creation_method            fapswitch 2.2
_symmetry_space_group_name_H-M    P1
_symmetry_Int_Tables_number       1
_space_group_crystal_system       triclinic
_cell_length_a                    15.209463
_cell_length_b                    13.805266
_cell_length_c                    10.724038
_cell_angle_alpha                 90.166885
_cell_angle_beta                  90.403241
_cell_angle_gamma                 90.04494
_cell_volume                      2251.66753061

loop_
_atom_site_label
_atom_site_type_symbol
_atom_site_description
_atom_site_fract_x
_atom_site_fract_y
_atom_site_fract_z
_atom_type_partial_charge
O1    O     O_R   0.371460 0.581430 0.500010 -0.589890
O2    O     O_R   0.628540 0.418570 0.499990 -0.572251
O3    O     O_R   0.628540 0.581430 0.499990 -0.596821
O4    O     O_R   0.371460 0.418570 0.500010 -0.584345
C1    C     C_R   0.329445 0.499777 0.499921 0.762958
C2    C     C_R   0.670369 0.499932 0.499294 0.773700
O5    O     O_R   0.499980 0.581420 0.316850 -0.561116
O6    O     O_R   0.500020 0.418580 0.683150 -0.579694
O7    O     O_R   0.500020 0.581420 0.683150 -0.558429
O8    O     O_R   0.499980 0.418580 0.316850 -0.579089
C3    C     C_R   0.496030 0.500212 0.259659 0.883087
C4    C     C_R   0.506187 0.500467 0.740086 0.909367
Cu1   Cu    Cu3+1 0.500000 0.596430 0.500000 0.973568
Cu2   Cu    Cu3+1 0.500000 0.403570 0.500000 0.965913
C5    C     C_3   0.448991 0.573120 0.036353 0.285193
C6    C     C_3   0.556524 0.431794 0.963534 0.273267
C7    C     C_3   0.533768 0.587242 0.962729 0.299821
C8    C     C_3   0.471518 0.417123 0.037280 0.273013
C9    C     C_3   0.421655 0.488114 0.950646 -0.137839
C10   C     C_3   0.583050 0.516901 0.049827 -0.128686
C11   C     C_3   0.507714 0.502305 0.875796 -0.312276
C12   C     C_3   0.497200 0.501916 0.124050 -0.304632
C13   C     C_R   0.092166 0.574419 0.444953 -0.194070
C14   C     C_R   0.905535 0.422698 0.440307 -0.194445
C15   C     C_R   0.907530 0.572747 0.556238 -0.194779
C16   C     C_R   0.093141 0.420143 0.549682 -0.199062
H1    H     H_    0.054976 0.633179 0.403224 0.136076
H2    H     H_    0.941532 0.365018 0.394525 0.138623
H3    H     H_    0.945070 0.629910 0.601485 0.136638
H4    H     H_    0.056669 0.360760 0.590610 0.141569
C17   C     C_R   0.183798 0.575901 0.442120 0.046305
C18   C     C_R   0.813793 0.422913 0.437159 0.057035
C19   C     C_R   0.815932 0.574544 0.559432 0.052727
C20   C     C_R   0.184883 0.419895 0.553497 0.066303
C21   C     C_R   0.232108 0.498715 0.498893 -0.079744
C22   C     C_R   0.767354 0.499339 0.498316 -0.069656
C23   C     C_R   0.047419 0.497118 0.497402 0.062335
C24   C     C_R   0.951772 0.497305 0.498203 0.064826
C25   C     C_R   0.530002 0.107129 0.604029 -0.271667
C26   C     C_R   0.536315 0.892536 0.400466 -0.269883
C27   C     C_R   0.470476 0.106609 0.395796 -0.263104
C28   C     C_R   0.464098 0.893066 0.599433 -0.270667
H5    H     H_    0.554145 0.069933 0.686160 0.171588
H6    H     H_    0.565599 0.929766 0.322303 0.166609
H7    H     H_    0.446238 0.069019 0.313708 0.175152
H8    H     H_    0.434876 0.930714 0.677549 0.165448
C29   C     C_R   0.530129 0.209038 0.601707 0.074576
C30   C     C_R   0.536468 0.790645 0.402990 0.112645
C31   C     C_R   0.469903 0.208520 0.398423 0.081850
C32   C     C_R   0.463653 0.791160 0.596959 0.118954
H9    H     H_    0.554225 0.247888 0.682235 0.197610
H10   H     H_    0.566098 0.751243 0.326858 0.160318
H11   H     H_    0.445188 0.247124 0.318648 0.205197
H12   H     H_    0.433917 0.752142 0.673083 0.168194
N1    N     N_R   0.500000 0.258690 0.500000 -0.194194
N2    N     N_R   0.500000 0.741310 0.500000 -0.187853
C33   C     C_R   0.500340 0.054208 0.499859 0.099618
C34   C     C_R   0.500272 0.945428 0.499927 0.090626
C35   C     C_3   0.331208 0.467758 0.891935 -0.324830
C36   C     C_3   0.254732 0.489612 0.980407 -0.285733
C37   C     C_3   0.168573 0.447667 0.930362 -0.862502
H13   H     H_    0.153720 0.477342 0.836331 0.256393
H14   H     H_    0.172765 0.367455 0.924795 0.263926
H15   H     H_    0.114074 0.467258 0.993993 0.248373
H16   H     H_    0.267774 0.459496 0.074456 0.254930
H17   H     H_    0.246348 0.568978 0.990325 0.248704
H18   H     H_    0.323335 0.512250 0.806384 0.181804
H19   H     H_    0.329852 0.390120 0.864890 0.212662
C38   C     C_3   0.672919 0.534473 0.111134 -0.327305
C39   C     C_3   0.746064 0.549700 0.015594 -0.301398
C40   C     C_3   0.834820 0.563287 0.080628 -0.856020
H20   H     H_    0.833138 0.627652 0.142993 0.257258
H21   H     H_    0.851614 0.498150 0.136563 0.258567
H22   H     H_    0.886737 0.574331 0.009777 0.245392
H23   H     H_    0.750350 0.486101 0.952449 0.260501
H24   H     H_    0.731988 0.614769 0.958294 0.247314
H25   H     H_    0.668324 0.599076 0.172821 0.207424
H26   H     H_    0.688958 0.470913 0.169577 0.193634
N3    N     N_R   0.393642 0.655986 0.066824 0.129256
O9    O     O_R   0.357893 0.705141 0.976468 -0.367356
O10   O     O_R   0.398045 0.695012 0.176919 -0.378625
N4    N     N_R   0.618031 0.355911 0.927341 0.142652
O11   O     O_R   0.651836 0.300139 0.012606 -0.337624
O12   O     O_R   0.652760 0.356779 0.816934 -0.415411
N5    N     N_R   0.567699 0.683121 0.932090 0.146796
O13   O     O_R   0.580131 0.746381 0.020585 -0.340566
O14   O     O_R   0.592381 0.703735 0.819679 -0.407172
N6    N     N_R   0.435854 0.324193 0.077229 0.129440
O15   O     O_R   0.473542 0.243636 0.044544 -0.327368
O16   O     O_R   0.362424 0.321176 0.138370 -0.421964
C41   C     C_3   0.225099 0.659764 0.372869 -0.353162
C42   C     C_3   0.234335 0.748819 0.458073 -0.345247
C43   C     C_3   0.276297 0.833734 0.389808 -0.751219
H27   H     H_    0.343434 0.814351 0.358789 0.295092
H28   H     H_    0.235808 0.854243 0.307446 0.256541
H29   H     H_    0.281135 0.897106 0.453518 0.223441
H30   H     H_    0.168277 0.771361 0.491058 0.207799
H31   H     H_    0.275050 0.730965 0.541230 0.235035
H32   H     H_    0.288608 0.638874 0.331516 0.251462
H33   H     H_    0.183046 0.679131 0.291328 0.190628
C44   C     C_3   0.770294 0.341536 0.363571 -0.386404
C45   C     C_3   0.762501 0.249561 0.442770 -0.315996
C46   C     C_3   0.718924 0.167623 0.369105 -0.776625
H34   H     H_    0.653050 0.190324 0.335024 0.277340
H35   H     H_    0.760110 0.147217 0.288062 0.257774
H36   H     H_    0.711044 0.103274 0.429947 0.232420
H37   H     H_    0.828986 0.225578 0.473330 0.208762
H38   H     H_    0.723040 0.264552 0.527428 0.255287
H39   H     H_    0.705219 0.362636 0.325969 0.216435
H40   H     H_    0.810288 0.325200 0.279586 0.197434
C47   C     C_3   0.774805 0.657539 0.631332 -0.357109
C48   C     C_3   0.766636 0.747681 0.548407 -0.349932
C49   C     C_3   0.724339 0.832052 0.617768 -0.748471
H41   H     H_    0.656101 0.813414 0.644223 0.297001
H42   H     H_    0.762951 0.850306 0.702943 0.255960
H43   H     H_    0.722135 0.896631 0.556311 0.223328
H44   H     H_    0.833109 0.770382 0.517326 0.206816
H45   H     H_    0.726691 0.730915 0.463952 0.230321
H46   H     H_    0.710873 0.636719 0.671894 0.247406
H47   H     H_    0.816838 0.675562 0.713569 0.184728
C50   C     C_3   0.227228 0.334823 0.620190 -0.396809
C51   C     C_3   0.237269 0.247746 0.532178 -0.304517
C52   C     C_3   0.277743 0.161362 0.599938 -0.814427
H48   H     H_    0.342584 0.181352 0.640562 0.269876
H49   H     H_    0.233745 0.136785 0.675795 0.251827
H50   H     H_    0.287100 0.100591 0.533277 0.240513
H51   H     H_    0.171723 0.226164 0.494834 0.209879
H52   H     H_    0.279530 0.267248 0.452033 0.249900
H53   H     H_    0.290932 0.354576 0.663358 0.210004
H54   H     H_    0.185391 0.312937 0.699987 0.189241

loop_
_geom_bond_atom_site_label_1
_geom_bond_atom_site_label_2
_geom_bond_distance
_ccdc_geom_bond_type
C6    C11   1.542918 S    
C38   H25   1.111415 S    
C47   C48   1.536240 S    
C30   N2    1.365823 A    
C50   H54   1.112361 S    
O3    C2    1.292983 A    
C28   C34   1.405737 A    
C42   H31   1.110508 S    
C52   H48   1.109675 S    
N5    O13   1.300576 A    
O5    C3    1.277490 A    
C32   H12   1.080981 S    
O1    C1    1.295334 A    
C18   C22   1.430338 A    
C29   N1    1.366493 A    
C9    C11   1.552830 S    
C8    C9    1.547692 S    
C30   H10   1.080992 S    
C38   C39   1.532479 S    
C48   H44   1.111912 S    
C15   C24   1.388543 A    
C52   H49   1.110679 S    
C44   H39   1.105715 S    
C25   C33   1.404606 A    
C19   C22   1.428766 A    
C47   H46   1.106152 S    
C20   C21   1.432223 A    
C28   H8    1.082822 S    
C51   H51   1.111850 S    
C37   H14   1.110686 S    
O7    Cu1   1.975606 S    
C35   H18   1.111384 S    
C16   C20   1.395658 A    
C5    C12   1.544401 S    
C5    N3    1.458547 S    
C14   C24   1.389197 A    
C45   H38   1.110883 S    
C39   C40   1.526271 S    
C19   C47   1.517033 S    
C13   H1    1.085132 S    
C41   H33   1.113099 S    
C37   H13   1.111335 S    
O3    Cu1   1.966123 S    
O6    C4    1.286307 A    
C49   H43   1.110613 S    
Cu2   N1    2.000106 S    
C36   H17   1.108058 S    
C35   C36   1.535759 S    
C43   H28   1.110671 S    
Cu1   Cu2   2.662485 S    
O4    Cu2   1.966125 S    
C38   H26   1.106180 S    
O2    C2    1.290520 A    
C27   C31   1.407150 A    
C48   C49   1.525344 S    
C42   H30   1.111870 S    
N5    O14   1.297431 A    
C15   H3    1.085065 S    
C26   C34   1.405596 A    
C44   C45   1.534635 S    
O8    Cu2   1.975606 S    
C41   C42   1.535419 S    
C40   H21   1.111317 S    
C52   H50   1.110538 S    
C25   H5    1.082897 S    
C9    C35   1.534270 S    
C44   H40   1.113019 S    
C31   N1    1.365260 A    
C4    C11   1.455527 S    
C32   N2    1.365611 A    
C36   C37   1.525677 S    
C13   C17   1.394351 A    
C37   H15   1.110454 S    
C5    C9    1.543493 S    
C14   C18   1.395535 A    
C23   C24   1.454833 S    
C35   H19   1.109691 S    
C26   H6    1.082853 S    
C6    C10   1.545083 S    
C6    N4    1.458591 S    
C45   H37   1.111787 S    
C46   H35   1.110693 S    
C43   H27   1.108887 S    
C50   C51   1.534587 S    
C28   C32   1.407020 A    
N6    O16   1.299746 A    
C36   H16   1.108690 S    
C16   H4    1.085006 S    
C20   C50   1.518299 S    
N4    O12   1.299958 A    
C39   H24   1.109968 S    
C7    N5    1.459505 S    
C10   C38   1.531449 S    
O1    Cu1   1.965802 S    
C10   C12   1.548052 S    
C46   H34   1.109778 S    
C25   C29   1.407167 A    
C49   H41   1.108164 S    
C5    C7    1.529322 S    
C26   C30   1.406980 A    
O6    Cu2   1.974406 S    
C8    C12   1.541607 S    
C7    C10   1.540715 S    
C14   H2    1.084920 S    
C17   C41   1.515583 S    
C50   H53   1.104525 S    
O4    C1    1.290854 A    
C40   H22   1.110414 S    
C29   H9    1.077166 S    
C16   C23   1.387908 A    
C43   H29   1.110546 S    
C3    C12   1.454774 S    
N3    O10   1.297633 A    
Cu1   N2    2.000106 S    
C27   C33   1.404680 A    
C40   H20   1.111008 S    
C13   C23   1.387850 A    
C48   H45   1.110749 S    
C33   C34   1.501736 S    
C31   H11   1.075023 S    
C1    C21   1.480465 S    
C42   C43   1.525743 S    
C2    C22   1.475224 S    
C46   H36   1.110655 S    
C17   C21   1.429937 A    
C51   H52   1.110493 S    
C45   C46   1.526162 S    
O2    Cu2   1.965800 S    
O7    C4    1.278250 A    
C7    C11   1.545566 S    
C8    N6    1.459134 S    
O8    C3    1.285853 A    
N3    O9    1.300784 A    
O5    Cu1   1.974406 S    
N6    O15   1.299920 A    
C6    C8    1.533936 S    
N4    O11   1.300544 A    
C39   H23   1.109482 S    
C27   H7    1.082872 S    
C18   C44   1.519501 S    
C47   H47   1.113068 S    
C41   H32   1.103898 S    
C51   C52   1.526125 S    
C15   C19   1.394055 A    
C49   H42   1.110671 S    
