data_mof_unit_16343.cif
_audit_creation_date              2012-12-11T21:09:32-0500
_audit_creation_method            fapswitch 2.2
_symmetry_space_group_name_H-M    P1
_symmetry_Int_Tables_number       1
_space_group_crystal_system       triclinic
_cell_length_a                    8.32443
_cell_length_b                    19.09024
_cell_length_c                    26.790053
_cell_angle_alpha                 99.95701
_cell_angle_beta                  92.73478
_cell_angle_gamma                 87.515902
_cell_volume                      4185.78485399

loop_
_atom_site_label
_atom_site_type_symbol
_atom_type_description
_atom_site_fract_x
_atom_site_fract_y
_atom_site_fract_z
_atom_type_partial_charge
Ba1   Ba    Ba6+2 0.160260 0.465850 0.521400 1.678601
Ba2   Ba    Ba6+2 0.649930 0.534160 0.478640 1.682820
C1    C     C_3   0.404065 0.253442 0.699382 -0.350669
C2    C     C_3   0.451680 0.281271 0.652516 0.335453
C3    C     C_3   0.481195 0.315507 0.407245 0.292808
C4    C     C_3   0.515275 0.235657 0.394032 -0.406644
C5    C     C_3   0.878523 0.706922 0.362708 0.326490
C6    C     C_3   0.877100 0.773194 0.337769 -0.132475
C7    C     C_3   0.435167 0.741476 0.356051 0.702329
C8    C     C_3   0.406201 0.809872 0.333957 -0.339863
C9    C     C_R   0.953064 0.802056 0.525621 -0.164721
C10   C     C_R   0.989170 0.727741 0.518367 0.023096
C11   C     C_R   0.120277 0.810052 0.456367 -0.105552
C12   C     C_3   0.963023 0.276716 0.633272 0.399161
C13   C     C_R   0.191831 0.744159 0.462294 0.070940
C14   C     C_R   0.695178 0.190352 0.545690 -0.159620
C15   C     C_R   0.625547 0.257799 0.542692 -0.017927
C16   C     C_R   0.849618 0.199880 0.473596 -0.167816
C17   C     C_R   0.819756 0.274221 0.483117 0.046510
C18   C     C_R   0.008270 0.845094 0.491587 0.027936
C19   C     C_R   0.115175 0.700657 0.488681 -0.243283
C20   C     C_R   0.800322 0.156345 0.507848 0.009445
C21   C     C_R   0.701832 0.302151 0.516422 -0.228925
C22   C     C_R   0.217251 0.959165 0.464881 -0.086816
C23   C     C_3   0.998060 0.208325 0.654352 -0.372192
C24   C     C_R   0.307168 0.006566 0.444922 -0.080069
C25   C     C_R   0.263924 0.077955 0.454174 -0.063338
C26   C     C_R   0.126792 0.100021 0.480671 -0.086320
C27   C     C_R   0.010695 0.051417 0.488068 0.016632
C28   C     C_R   0.059139 0.977124 0.481749 0.039734
C29   C     C_R   0.853187 0.076526 0.502971 0.000247
C30   C     C_R   0.746084 0.024271 0.512306 0.033247
C31   C     C_R   0.794057 0.950195 0.507897 -0.043667
C32   C     C_R   0.953483 0.924676 0.493533 0.010113
C33   C     C_R   0.586198 0.043866 0.524911 -0.145795
C34   C     C_3   0.766629 0.704256 0.640656 0.720633
C35   C     C_R   0.491162 0.999813 0.545448 -0.142744
C36   C     C_R   0.533937 0.927523 0.541198 0.439643
C37   C     C_R   0.674606 0.903077 0.516192 -0.106024
C38   C     C_R   0.224512 0.415436 0.165696 0.600866
C39   C     C_R   0.161389 0.540640 0.175444 0.578996
C40   C     C_2   0.004738 0.494475 0.268381 -0.092911
C41   C     C_3   0.979375 0.496497 0.324640 -0.010874
C42   C     C_1   0.269615 0.472463 0.333430 -0.002363
C43   C     C_2   0.292691 0.467646 0.284463 -0.124886
C44   C     C_2   0.153237 0.480416 0.249286 0.217223
C45   C     C_3   0.724765 0.781081 0.633753 -0.296289
C46   C     C_R   0.249638 0.476773 0.093781 -0.083043
C47   C     C_R   0.258239 0.413513 0.114235 -0.073956
C48   C     C_R   0.293143 0.349123 0.082353 -0.033674
C49   C     C_R   0.199060 0.540681 0.124560 -0.020339
C50   C     C_2   0.138654 0.503365 0.354470 -0.249084
C51   C     C_2   0.655851 0.479576 0.638960 -0.262663
C52   C     C_R   0.408361 0.413894 0.964035 0.018872
C53   C     C_R   0.316173 0.539263 0.970466 0.019937
C54   C     C_R   0.386689 0.476661 0.942322 0.053165
C55   C     C_R   0.503660 0.357509 0.938133 -0.115083
C56   C     C_3   0.042995 0.291791 0.360866 0.436433
C57   C     C_R   0.553054 0.357862 0.889325 -0.062609
C58   C     C_R   0.517677 0.416604 0.865279 -0.024515
C59   C     C_R   0.438884 0.477057 0.892263 -0.081254
C60   C     C_R   0.413997 0.538019 0.869473 -0.033015
C61   C     C_R   0.466413 0.537371 0.819833 0.589896
C62   C     C_R   0.562978 0.416364 0.815182 0.583716
C63   C     C_2   0.723599 0.443892 0.722880 -0.107438
C64   C     C_3   0.745551 0.426670 0.666422 -0.073295
C65   C     C_1   0.518497 0.508879 0.656487 0.021357
C66   C     C_2   0.469791 0.504549 0.702518 -0.104292
C67   C     C_3   0.024307 0.297219 0.304559 -0.312070
C68   C     C_2   0.582053 0.474674 0.740057 0.191636
C69   C     C_R   0.343847 0.411229 0.012171 -0.000217
C70   C     C_R   0.290849 0.476070 0.042507 0.031113
C71   C     C_R   0.277432 0.540176 0.021956 0.027353
C72   C     C_R   0.327307 0.346635 0.031551 0.120776
C73   C     C_R   0.188333 0.603448 0.104032 -0.063739
C74   C     C_R   0.289670 0.599216 0.946138 -0.102393
C75   C     C_R   0.337559 0.598489 0.896860 -0.059312
C76   C     C_R   0.226877 0.603358 0.054024 -0.099302
C77   C     C_3   0.287566 0.686611 0.606376 0.285357
C78   C     C_3   0.207386 0.745954 0.643154 -0.314669
H1    H     H_    0.453130 0.340365 0.661150 0.029552
H2    H     H_    0.672417 0.784006 0.595422 0.105580
H3    H     H_    0.632137 0.804439 0.660910 0.094588
H4    H     H_    0.832966 0.813831 0.641551 0.077243
H5    H     H_    0.152142 0.320366 0.376019 0.041027
H6    H     H_    0.920085 0.266502 0.286628 0.127749
H7    H     H_    0.135116 0.276277 0.284726 0.104064
H8    H     H_    0.004007 0.353442 0.299957 0.086501
H9    H     H_    0.195214 0.651978 0.585521 0.044437
H10   H     H_    0.353486 0.710136 0.578662 0.040523
H11   H     H_    0.290280 0.280148 0.713762 0.151215
H12   H     H_    0.146783 0.723296 0.672478 0.174575
H13   H     H_    0.116904 0.775850 0.622633 0.043219
H14   H     H_    0.299359 0.782673 0.662701 0.096872
H15   H     H_    0.574168 0.258918 0.643709 -0.042660
H16   H     H_    0.499962 0.263740 0.729520 0.139735
H17   H     H_    0.591893 0.341490 0.424156 0.027548
H18   H     H_    0.385803 0.325252 0.435371 0.073208
H19   H     H_    0.624737 0.224804 0.371406 0.137380
H20   H     H_    0.534025 0.212577 0.429182 0.072397
H21   H     H_    0.412060 0.209519 0.371704 0.114077
H22   H     H_    0.389080 0.195042 0.690261 0.097064
H23   H     H_    0.918922 0.166091 0.634407 0.064965
H24   H     H_    0.775383 0.710891 0.387881 0.066705
H25   H     H_    0.991881 0.703363 0.385366 0.035548
H26   H     H_    0.989393 0.772727 0.316819 0.142890
H27   H     H_    0.773037 0.772474 0.310074 0.093983
H28   H     H_    0.532409 0.709462 0.334418 -0.003036
H29   H     H_    0.370223 0.797439 0.293067 0.071996
H30   H     H_    0.517407 0.840659 0.337889 0.069011
H31   H     H_    0.001035 0.268593 0.593371 0.062571
H32   H     H_    0.309578 0.843615 0.354173 0.109681
H33   H     H_    0.879967 0.825245 0.556607 0.045859
H34   H     H_    0.156271 0.833025 0.424849 0.085292
H35   H     H_    0.656359 0.163310 0.575005 0.067141
H36   H     H_    0.915896 0.176811 0.440906 0.080356
H37   H     H_    0.161458 0.646843 0.488948 0.056950
H38   H     H_    0.659684 0.356966 0.518545 0.061278
H39   H     H_    0.282735 0.911472 0.470095 0.096158
H40   H     H_    0.422429 0.989502 0.428963 0.076048
H41   H     H_    0.343945 0.116568 0.444876 0.084082
H42   H     H_    0.830871 0.286820 0.633888 -0.095704
H43   H     H_    0.113366 0.155550 0.495304 0.125529
H44   H     H_    0.527499 0.092421 0.517720 0.101622
H45   H     H_    0.375550 0.021310 0.558706 0.072811
H46   H     H_    0.686818 0.846789 0.503083 0.133134
H47   H     H_    0.412753 0.457515 0.270106 0.091352
H48   H     H_    0.286059 0.299269 0.096189 0.134274
H49   H     H_    0.812509 0.423686 0.748273 0.120493
H50   H     H_    0.621898 0.312052 0.870749 0.119403
H51   H     H_    0.546857 0.313333 0.955681 0.078991
H52   H     H_    0.124450 0.189577 0.648364 0.140438
H53   H     H_    0.901852 0.502315 0.243219 0.094594
H54   H     H_    0.151141 0.653532 0.126862 0.117737
H55   H     H_    0.229453 0.647553 0.963894 0.070921
H56   H     H_    0.314438 0.645999 0.880246 0.124101
H57   H     H_    0.350070 0.523924 0.713571 0.139510
H58   H     H_    0.219445 0.654441 0.042017 0.068688
H59   H     H_    0.146365 0.536570 0.391744 0.068592
H60   H     H_    0.702667 0.491227 0.604248 0.079304
H61   H     H_    0.975030 0.217157 0.695497 0.122786
H62   H     H_    0.663715 0.670903 0.626719 0.006180
N1    N     N_R   0.178528 0.478752 0.195810 -0.423305
N2    N     N_R   0.537576 0.476402 0.792563 -0.419774
O1    O     O_2   0.103290 0.325410 0.465600 -0.493159
O2    O     O_3   0.397419 0.650661 0.634745 -0.648513
O3    O     O_3   0.046307 0.333271 0.662731 -0.580843
O4    O     O_2   0.707020 0.674640 0.534420 -0.481728
O5    O     O_3   0.952550 0.585840 0.530020 -0.459925
O6    O     O_3   0.436140 0.628890 0.444040 -0.451175
O7    O     O_3   0.904711 0.675460 0.614961 -0.661243
O8    O     O_3   0.350480 0.462320 0.439870 -0.482098
O9    O     O_3   0.840680 0.592440 0.417430 -0.490152
O10   O     O_2   0.661849 0.555711 0.332641 -0.483669
O11   O     O_3   0.869937 0.646989 0.324440 -0.620534
O12   O     O_3   0.857760 0.414170 0.470020 -0.458898
O13   O     O_3   0.459840 0.537690 0.560170 -0.483991
O14   O     O_2   0.582520 0.462630 0.379680 -0.436933
O15   O     O_3   0.431369 0.341400 0.362956 -0.640981
O16   O     O_2   0.492736 0.749706 0.501673 -0.453350
O17   O     O_3   0.497786 0.760530 0.406562 -0.637947
O18   O     O_2   0.235097 0.360652 0.183648 -0.594328
O19   O     O_2   0.623323 0.361986 0.791486 -0.628234
O20   O     O_2   0.114545 0.595833 0.201725 -0.614902
O21   O     O_2   0.450432 0.591503 0.801248 -0.602591
O22   O     O_3   0.374170 0.371120 0.556000 -0.462802
O23   O     O_2   0.306244 0.243542 0.513159 -0.509859
O24   O     O_3   0.906276 0.325281 0.385032 -0.616082
O25   O     O_3   0.341050 0.259157 0.612186 -0.582134
O26   O     O_2   0.227790 0.537410 0.620340 -0.441947
O27   O     O_3   0.969630 0.407570 0.582610 -0.472875
O28   O     O_2   0.066957 0.472730 0.674790 -0.482967
P1    P     P_3+3 0.926760 0.336170 0.451740 0.991482
P2    P     P_3+3 0.399470 0.558680 0.614150 0.997744
P3    P     P_3+3 0.958907 0.412515 0.647925 0.977187
P4    P     P_3+3 0.883550 0.663840 0.548300 0.952442
P5    P     P_3+3 0.837995 0.571185 0.350793 0.975270
P6    P     P_3+3 0.414222 0.281432 0.557144 0.936446
P7    P     P_3+3 0.406737 0.434053 0.377282 0.967877
P8    P     P_3+3 0.403177 0.720867 0.451196 1.029514
N3    N     N_3   0.058174 0.216709 0.366694 -0.504286
H63   H     H_    0.128811 0.188267 0.338224 0.145549
H64   H     H_    0.124508 0.213433 0.400353 0.154631
N4    N     N_3   0.867249 0.837856 0.375683 -0.534184
H65   H     H_    0.756405 0.840451 0.392793 0.193946
H66   H     H_    0.868159 0.881393 0.356803 0.184084
O29   O     O_3   0.288783 0.704993 0.352333 -0.706801
C79   C     C_3   0.281901 0.653753 0.307682 0.074170
H67   H     H_    0.164439 0.628390 0.304766 0.132526
H68   H     H_    0.376920 0.611433 0.308980 0.069556
H69   H     H_    0.292079 0.678377 0.273349 0.086015
O30   O     O_3   0.435004 0.877384 0.554584 -0.635196
C80   C     C_3   0.326590 0.906946 0.592101 0.138665
H70   H     H_    0.223855 0.935413 0.575477 0.037269
H71   H     H_    0.387588 0.941627 0.624546 0.025776
H72   H     H_    0.275179 0.863259 0.607126 0.061218
N5    N     N_3   0.316354 0.278097 0.999788 -0.507205
H73   H     H_    0.277857 0.282309 0.962700 0.187656
H74   H     H_    0.426346 0.249843 0.001148 0.174933
O31   O     O_3   0.798858 0.706517 0.693272 -0.650199
C81   C     C_3   0.785125 0.638845 0.706465 0.195358
H75   H     H_    0.656327 0.627246 0.707820 0.042993
H76   H     H_    0.839958 0.639540 0.745089 0.085529
H77   H     H_    0.849664 0.596316 0.680378 0.034059

loop_
_geom_bond_atom_site_label_1
_geom_bond_atom_site_label_2
_ccdc_geom_bond_type
C15   P6    S    
Ba2   O6    S    
C53   C54   A    
C6    H27   S    
C57   H50   S    
C12   H42   S    
C51   H60   S    
C81   H75   S    
C60   C75   A    
Ba1   O1    S    
C47   C48   A    
C21   H38   S    
C25   H41   S    
C73   H54   S    
C5    C6    S    
C43   C44   S    
C7    H28   S    
Ba1   P1    S    
C24   C25   A    
C31   C37   A    
C8    H29   S    
C79   H69   S    
C79   H68   S    
C33   H44   S    
C33   C35   A    
C35   C36   A    
C22   C24   A    
Ba1   Ba2   S    
C48   C72   A    
C36   C37   A    
C4    H19   S    
O3    P3    S    
C41   C50   S    
C45   H2    S    
N5    H73   S    
C65   P2    S    
Ba2   O4    S    
C38   C47   A    
O2    P2    S    
Ba1   O26   S    
C50   H59   S    
N4    H65   S    
Ba1   O8    S    
C1    H11   S    
C16   C17   A    
C40   C44   D    
C4    H21   S    
N5    H74   S    
C34   H62   S    
O16   P8    D    
C77   H10   S    
C19   H37   S    
Ba2   P4    S    
C46   C49   A    
C41   P5    S    
C52   C69   A    
O31   C81   S    
C3    O15   S    
Ba2   O12   S    
C61   N2    Am   
C5    H25   S    
C8    H32   S    
C1    H16   S    
O22   P6    S    
C75   H56   S    
C45   H3    S    
C56   O24   S    
C7    C8    S    
C53   C71   A    
C11   H34   S    
C67   H7    S    
O28   P3    D    
Ba2   O14   S    
O13   P2    S    
C10   P4    S    
C18   C32   S    
C42   C50   D    
Ba2   O5    S    
C57   C58   A    
C37   H46   S    
C13   P8    S    
C81   H76   S    
C66   H57   S    
C12   H31   S    
C46   C70   A    
C62   O19   D    
C9    H33   S    
C76   H58   S    
C42   P7    S    
C74   H55   S    
C77   O2    S    
C35   H45   S    
N3    H64   S    
Ba2   O8    S    
O24   P1    S    
Ba1   P2    S    
O9    P5    S    
C9    C18   A    
C26   H43   S    
C2    O25   S    
C2    H1    S    
C65   C66   D    
C30   C33   A    
C74   C75   A    
C20   C29   S    
C16   H36   S    
C56   C67   S    
C28   C32   A    
C14   C15   A    
C62   N2    Am   
C80   H71   S    
N3    H63   S    
O27   P3    S    
O12   P1    S    
Ba1   O27   S    
C79   H67   S    
C4    H20   S    
C78   H12   S    
Ba1   O12   S    
C17   C21   A    
O14   P7    D    
C17   P1    S    
C38   O18   D    
C27   C28   A    
C2    H15   S    
C29   C30   A    
C72   N5    S    
C61   O21   D    
C71   C76   A    
C80   H72   S    
C60   C61   A    
C31   C32   A    
C23   H61   S    
C34   O7    S    
C15   C21   A    
C45   H4    S    
O17   P8    S    
C7    O17   S    
C51   C64   S    
C8    H30   S    
C67   H8    S    
C53   C74   A    
C1    H22   S    
C46   C47   A    
O1    P1    D    
C63   C64   S    
Ba2   O9    S    
C36   O30   S    
C5    H24   S    
C56   N3    S    
C81   H77   S    
C34   C45   S    
C39   O20   D    
C48   H48   S    
C40   C41   S    
C78   H14   S    
C1    C2    S    
O4    P4    D    
C56   H5    S    
O25   P6    S    
C49   C73   A    
C42   C43   D    
O6    P8    S    
O26   P2    D    
C64   P3    S    
C26   C27   A    
C22   H39   S    
C14   C20   A    
O7    P4    S    
C11   C18   A    
C16   C20   A    
C38   N1    Am   
C55   H51   S    
C23   H23   S    
C34   O31   S    
C24   H40   S    
C70   C71   A    
C7    O29   S    
C6    H26   S    
C69   C72   A    
C63   H49   S    
C9    C10   A    
C52   C54   A    
C39   N1    Am   
C44   N1    S    
C68   N2    S    
C40   H53   S    
C58   C62   A    
O5    P4    S    
C30   C31   A    
O8    P7    S    
C11   C13   A    
C14   H35   S    
C69   C70   A    
C27   C29   A    
O30   C80   S    
C6    N4    S    
C3    C4    S    
Ba1   O22   S    
C43   H47   S    
Ba2   O13   S    
C12   O3    S    
Ba1   O13   S    
C5    O11   S    
N4    H66   S    
C3    H17   S    
C12   C23   S    
C59   C60   A    
C51   C65   D    
C73   C76   A    
C22   C28   A    
C77   H9    S    
C55   C57   A    
C77   C78   S    
C10   C19   A    
O11   P5    S    
C13   C19   A    
O23   P6    D    
O15   P7    S    
C3    H18   S    
C66   C68   S    
C80   H70   S    
O10   P5    D    
C25   C26   A    
C54   C59   A    
C58   C59   A    
Ba1   O5    S    
O29   C79   S    
C78   H13   S    
C23   H52   S    
C39   C49   A    
C67   H6    S    
C63   C68   D    
C52   C55   A    
