data_mof_unit_29585.cif
_audit_creation_date              2012-12-10T18:45:05-0500
_audit_creation_method            fapswitch 2.2
_symmetry_space_group_name_H-M    P1
_symmetry_Int_Tables_number       1
_space_group_crystal_system       triclinic
_cell_length_a                    10.696371
_cell_length_b                    9.856346
_cell_length_c                    10.551104
_cell_angle_alpha                 88.028633
_cell_angle_beta                  90.895546
_cell_angle_gamma                 89.942491
_cell_volume                      1111.57716684

loop_
_atom_site_label
_atom_site_type_symbol
_atom_type_description
_atom_site_fract_x
_atom_site_fract_y
_atom_site_fract_z
_atom_type_partial_charge
C1    C     C_R   0.259949 0.500019 0.500127 0.885134
C2    C     C_R   0.739926 0.499906 0.497068 0.951227
C3    C     C_R   0.935325 0.619053 0.461554 -0.137293
C4    C     C_R   0.063412 0.619584 0.463940 -0.113986
C5    C     C_R   0.589010 0.074084 0.436247 0.036755
C6    C     C_R   0.411761 0.069604 0.564902 -0.037937
C7    C     C_R   0.588691 0.930341 0.435729 0.025034
C8    C     C_R   0.411834 0.925827 0.565002 -0.017943
C9    C     C_R   0.481943 0.502946 0.260561 0.909786
C10   C     C_R   0.507586 0.497538 0.741132 0.941676
C11   C     C_R   0.470502 0.763623 0.084831 0.334781
C12   C     C_R   0.657768 0.688930 0.914014 0.325752
C13   C     C_R   0.552578 0.863153 0.031562 0.153644
C14   C     C_R   0.661860 0.817987 0.971058 0.155516
C15   C     C_R   0.556131 0.602169 0.945229 -0.162903
C16   C     C_R   0.492522 0.627014 0.055232 -0.168630
C17   C     C_R   0.453853 0.511816 0.126482 -0.025753
C18   C     C_R   0.513084 0.490546 0.876892 0.007338
C19   C     C_R   0.422568 0.393265 0.065364 -0.076433
C20   C     C_R   0.443561 0.387315 0.937239 -0.103732
C21   C     C_R   0.064441 0.380256 0.531540 -0.178099
C22   C     C_R   0.936434 0.379944 0.529867 -0.116097
C23   C     C_R   0.872387 0.499473 0.495380 -0.000884
C24   C     C_R   0.127448 0.500107 0.498807 -0.036409
H1    H     H_    0.382541 0.307104 0.116504 0.224282
H2    H     H_    0.406648 0.302820 0.885710 0.192650
H3    H     H_    0.113743 0.287634 0.559585 0.166745
H4    H     H_    0.887983 0.287205 0.557155 0.179419
H5    H     H_    0.885854 0.711623 0.433665 0.156254
H6    H     H_    0.111901 0.712624 0.437801 0.196350
H7    H     H_    0.660211 0.130185 0.385116 0.153593
H8    H     H_    0.341239 0.122086 0.616983 0.122182
H9    H     H_    0.659269 0.877856 0.383707 0.111348
H10   H     H_    0.341333 0.869671 0.617106 0.133665
N1    N     N_R   0.500000 0.857200 0.500000 -0.081682
N2    N     N_R   0.500000 0.142810 0.500000 -0.092355
O1    O     O_R   0.316770 0.614620 0.499990 -0.605249
O2    O     O_R   0.683230 0.614620 0.500010 -0.603518
O3    O     O_R   0.316800 0.385290 0.500000 -0.640651
O4    O     O_R   0.683200 0.385290 0.500000 -0.629826
O5    O     O_R   0.500010 0.614690 0.316770 -0.603908
O6    O     O_R   0.499990 0.614690 0.683230 -0.618826
O7    O     O_R   0.500040 0.385360 0.316770 -0.604513
O8    O     O_R   0.499960 0.385360 0.683230 -0.610870
Zn1   Zn    Zn3+2 0.500000 0.653120 0.500000 1.031864
Zn2   Zn    Zn3+2 0.500000 0.346880 0.500000 1.013351
S1    S     S_3+6 0.325721 0.807376 0.155740 0.090315
O9    O     O_2   0.271161 0.691059 0.231863 -0.322372
O10   O     O_2   0.343549 0.925887 0.240040 -0.256171
O11   O     O_3   0.221740 0.848328 0.039476 -0.485876
H11   H     H_    0.152903 0.895042 0.082162 0.424596
S2    S     S_3+6 0.785353 0.629076 0.823940 0.079480
O12   O     O_2   0.765459 0.485920 0.783832 -0.329416
O13   O     O_2   0.799296 0.721399 0.708858 -0.292048
O14   O     O_3   0.919455 0.630262 0.908750 -0.438819
H12   H     H_    0.985897 0.613056 0.846897 0.385292
S3    S     S_3+6 0.514055 0.038772 0.021788 0.080313
O15   O     O_2   0.546302 0.101416 0.145767 -0.253573
O16   O     O_2   0.586566 0.109344 0.917885 -0.260185
O17   O     O_3   0.361449 0.063998 0.989533 -0.511647
H13   H     H_    0.350345 0.040068 0.899608 0.352024
S4    S     S_3+6 0.805534 0.908816 0.989370 0.140030
O18   O     O_2   0.863040 0.937498 0.862297 -0.176924
O19   O     O_2   0.789763 0.040649 0.054608 -0.212043
O20   O     O_3   0.904653 0.813477 0.079954 -0.482580
H14   H     H_    0.859149 0.793572 0.159514 0.328755

loop_
_geom_bond_atom_site_label_1
_geom_bond_atom_site_label_2
_ccdc_geom_bond_type
C5    H7    S    
C15   C18   A    
C6    H8    S    
O14   H12   S    
S2    O14   S    
N2    Zn2   S    
S4    O18   D    
C10   O6    A    
C11   C13   A    
C11   C16   A    
C2    O2    A    
C11   S1    S    
C19   C20   A    
C12   C15   A    
C1    O1    A    
C4    C24   A    
S2    O13   D    
S4    O19   D    
O11   H11   S    
C21   H3    S    
S1    O10   D    
C22   H4    S    
C21   C22   A    
O4    Zn2   S    
C7    H9    S    
S3    O15   D    
C20   H2    S    
C10   C18   S    
O3    Zn2   S    
C6    C8    A    
C10   O8    A    
C7    N1    A    
C17   C19   A    
C6    N2    A    
S1    O11   S    
C18   C20   A    
C19   H1    S    
O7    Zn2   S    
C9    O7    A    
S3    O16   D    
C1    O3    A    
O1    Zn1   S    
C15   C16   A    
N1    Zn1   S    
C5    N2    A    
C2    O4    A    
S1    O9    D    
C13   S3    S    
S2    O12   D    
C1    C24   S    
C3    H5    S    
O20   H14   S    
C21   C24   A    
C9    C17   S    
C2    C23   S    
C5    C7    A    
O5    Zn1   S    
C22   C23   A    
C16   C17   A    
S3    O17   S    
C8    H10   S    
O8    Zn2   S    
S4    O20   S    
C12   S2    S    
C3    C23   A    
C13   C14   A    
C9    O5    A    
C8    N1    A    
C4    H6    S    
C3    C4    A    
C12   C14   A    
O17   H13   S    
O2    Zn1   S    
O6    Zn1   S    
C14   S4    S    
