data_mof_unit_24484.cif
_audit_creation_date              2012-12-11T16:24:14-0500
_audit_creation_method            fapswitch 2.2
_symmetry_space_group_name_H-M    P1
_symmetry_Int_Tables_number       1
_space_group_crystal_system       triclinic
_cell_length_a                    14.736553
_cell_length_b                    14.758306
_cell_length_c                    33.229554
_cell_angle_alpha                 96.073342
_cell_angle_beta                  96.175463
_cell_angle_gamma                 61.248158
_cell_volume                      6287.08333239

loop_
_atom_site_label
_atom_site_type_symbol
_atom_type_description
_atom_site_fract_x
_atom_site_fract_y
_atom_site_fract_z
_atom_type_partial_charge
C1    C     C_R   0.390995 0.699948 0.446064 0.556232
C2    C     C_R   0.324019 0.347614 0.309132 0.050221
C3    C     C_R   0.417204 0.273437 0.326875 -0.158685
C4    C     C_R   0.440153 0.281684 0.368343 -0.136820
C5    C     C_R   0.385856 0.248361 0.167361 -0.110191
C6    C     C_R   0.379933 0.229561 0.125447 -0.122362
C7    C     C_R   0.211166 0.382339 0.120929 -0.129537
C8    C     C_R   0.217119 0.400783 0.162948 -0.109463
C9    C     C_R   0.303046 0.331807 0.186192 0.040715
C10   C     C_1   0.304578 0.341730 0.229467 -0.013261
C11   C     C_1   0.310163 0.345622 0.265829 0.019617
C12   C     C_R   0.405865 0.386217 0.434012 0.546375
C13   C     C_R   0.290620 0.294030 0.101995 0.023134
C14   C     C_R   0.763257 0.368959 0.411761 0.002719
C15   C     C_R   0.821123 0.414137 0.400052 0.280475
C16   C     C_R   0.855049 0.392811 0.360436 0.109317
C17   C     C_R   0.835265 0.322523 0.333559 -0.002678
C18   C     C_R   0.790829 0.267730 0.347655 -0.163963
C19   C     C_R   0.754648 0.291052 0.386246 -0.190143
C20   C     C_R   0.850155 0.302971 0.207972 0.344118
C21   C     C_R   0.847462 0.314122 0.289837 0.366019
C22   C     C_R   0.837147 0.385475 0.144478 -0.103084
C23   C     C_R   0.701794 0.409447 0.447809 0.550432
C24   C     C_R   0.865125 0.377971 0.104781 0.263885
C25   C     C_R   0.923045 0.192883 0.101604 -0.179800
C26   C     C_R   0.898358 0.200850 0.141572 -0.138313
C27   C     C_R   0.859373 0.296539 0.163892 -0.009270
C28   C     C_R   0.911209 0.280032 0.083357 0.032435
C29   C     C_R   0.371400 0.752221 0.408090 0.025761
C30   C     C_R   0.285455 0.762013 0.382243 -0.154501
C31   C     C_R   0.277554 0.783548 0.342020 -0.137513
C32   C     C_R   0.354706 0.796949 0.326591 0.013469
C33   C     C_R   0.434765 0.798473 0.353107 -0.090103
C34   C     C_R   0.393319 0.701668 0.561187 0.545186
C35   C     C_R   0.443680 0.776858 0.393740 0.081850
C36   C     C_R   0.354060 0.810384 0.201471 0.351690
C37   C     C_R   0.353986 0.803524 0.282672 0.355930
C38   C     C_R   0.266831 0.818316 0.132465 -0.119180
C39   C     C_R   0.243760 0.854455 0.093709 -0.130650
C40   C     C_R   0.384827 0.896675 0.103654 -0.129510
C41   C     C_R   0.407750 0.860758 0.142501 -0.119643
C42   C     C_R   0.345592 0.826117 0.157948 0.036563
C43   C     C_R   0.299330 0.898587 0.079771 0.023529
C44   C     C_R   0.370583 0.368131 0.584763 -0.025704
C45   C     C_R   0.407311 0.388819 0.549041 0.549249
C46   C     C_R   0.272423 0.437583 0.598504 -0.117002
C47   C     C_R   0.245891 0.429249 0.636550 0.068364
C48   C     C_R   0.318415 0.350923 0.661459 0.050159
C49   C     C_R   0.414683 0.277305 0.646582 0.073452
C50   C     C_R   0.439361 0.285805 0.608367 -0.112911
C51   C     C_R   0.294956 0.343709 0.784521 0.355355
C52   C     C_R   0.299530 0.351929 0.703939 0.380599
C53   C     C_R   0.212903 0.404599 0.849950 -0.142363
C54   C     C_R   0.206978 0.386460 0.889710 -0.136478
C55   C     C_R   0.377889 0.237031 0.887639 -0.106653
C56   C     C_R   0.701684 0.413430 0.562601 0.529538
C57   C     C_R   0.383723 0.254106 0.847775 0.093635
C58   C     C_R   0.298803 0.335765 0.828199 0.045865
C59   C     C_R   0.287536 0.299627 0.908218 -0.002048
C60   C     C_R   0.755261 0.379778 0.602687 0.014734
C61   C     C_R   0.783411 0.444873 0.628826 -0.120205
C62   C     C_R   0.812248 0.424376 0.669643 -0.100616
C63   C     C_R   0.813669 0.338578 0.684639 0.038042
C64   C     C_R   0.792271 0.269850 0.658361 -0.101173
C65   C     C_R   0.763619 0.290002 0.617563 -0.121056
C66   C     C_R   0.886869 0.212721 0.822595 -0.096624
C67   C     C_R   0.370499 0.365287 0.392603 -0.023258
C68   C     C_R   0.914009 0.201380 0.864051 -0.119008
C69   C     C_R   0.871721 0.382380 0.873479 -0.120832
C70   C     C_R   0.844495 0.393497 0.832084 -0.107608
C71   C     C_R   0.855046 0.308003 0.806459 0.043424
C72   C     C_1   0.840402 0.316716 0.763413 -0.007284
C73   C     C_1   0.829240 0.325517 0.727407 -0.008288
C74   C     C_R   0.910235 0.285284 0.889661 0.020673
C75   C     C_R   0.375653 0.756326 0.601732 0.018259
C76   C     C_R   0.280213 0.791465 0.618847 -0.115400
C77   C     C_R   0.270364 0.821733 0.660034 -0.099868
C78   C     C_R   0.273680 0.436036 0.375079 -0.107864
C79   C     C_R   0.355457 0.817621 0.684476 0.042124
C80   C     C_R   0.448698 0.789252 0.667286 -0.098047
C81   C     C_R   0.458751 0.759098 0.626038 -0.118464
C82   C     C_R   0.395676 0.887677 0.832413 -0.102146
C83   C     C_R   0.376260 0.914133 0.873338 -0.121787
C84   C     C_R   0.228637 0.881695 0.862643 -0.124228
C85   C     C_R   0.248413 0.855052 0.821760 -0.106522
C86   C     C_R   0.330122 0.860802 0.806436 0.038957
C87   C     C_1   0.342065 0.845721 0.763646 -0.006213
C88   C     C_1   0.349155 0.833996 0.727569 -0.004183
C89   C     C_R   0.250404 0.427867 0.333213 0.286440
C90   C     C_R   0.290427 0.914685 0.888583 0.017861
C91   C     C_R   0.963774 0.264175 0.045807 0.567813
C92   C     C_R   0.272712 0.259524 0.060046 0.543106
C93   C     C_R   0.259543 0.959102 0.043582 0.545632
C94   C     C_R   0.962532 0.267629 0.930726 0.547104
C95   C     C_R   0.270575 0.263550 0.945014 0.547129
C96   C     C_R   0.256165 0.965061 0.928927 0.543953
Cr1   Cr    Cr6+3 0.576280 0.580550 0.506370 1.068887
Cr2   Cr    Cr6+3 0.346780 0.572400 0.496520 1.021331
Cr3   Cr    Cr6+3 0.576960 0.347070 0.497150 1.021553
Cr4   Cr    Cr6+3 0.087320 0.083240 0.984860 1.018632
Cr5   Cr    Cr6+3 0.087720 0.316210 0.996740 1.021538
Cr6   Cr    Cr6+3 0.317350 0.090340 0.995890 1.017917
H1    H     H_    0.442489 0.161091 0.111816 0.129728
H2    H     H_    0.712983 0.253159 0.394856 0.148423
H3    H     H_    0.776147 0.212648 0.327628 0.146505
H4    H     H_    0.803017 0.460612 0.160739 0.139662
H5    H     H_    0.958433 0.116753 0.086034 0.143090
H6    H     H_    0.914509 0.131085 0.155507 0.148374
H7    H     H_    0.227266 0.745949 0.392170 0.135559
H8    H     H_    0.178431 0.853503 0.075676 0.129651
H9    H     H_    0.453005 0.195106 0.185258 0.114437
H10   H     H_    0.213266 0.784800 0.322592 0.128706
H11   H     H_    0.493050 0.812471 0.341978 0.161563
H12   H     H_    0.218744 0.790137 0.143230 0.132286
H13   H     H_    0.429758 0.929297 0.093498 0.129159
H14   H     H_    0.470006 0.866217 0.161213 0.133540
H15   H     H_    0.217668 0.500772 0.580402 0.151347
H16   H     H_    0.515691 0.231613 0.598410 0.159534
H17   H     H_    0.136548 0.436389 0.904892 0.136385
H18   H     H_    0.474240 0.211450 0.308341 0.125092
H19   H     H_    0.147471 0.468245 0.835285 0.131572
H20   H     H_    0.441795 0.170748 0.901535 0.150934
H21   H     H_    0.943900 0.125489 0.875509 0.133582
H22   H     H_    0.894984 0.146180 0.802920 0.126809
H23   H     H_    0.793404 0.203125 0.669735 0.136792
H24   H     H_    0.742368 0.238346 0.598281 0.136960
H25   H     H_    0.777677 0.514580 0.618337 0.141021
H26   H     H_    0.819495 0.467671 0.819816 0.117470
H27   H     H_    0.867892 0.448433 0.892375 0.132713
H28   H     H_    0.515255 0.225911 0.380885 0.147091
H29   H     H_    0.829075 0.477820 0.689836 0.131116
H30   H     H_    0.425067 0.939594 0.892447 0.136331
H31   H     H_    0.459226 0.892135 0.820751 0.136500
H32   H     H_    0.514923 0.785988 0.686061 0.128664
H33   H     H_    0.533365 0.732101 0.613819 0.137415
H34   H     H_    0.214824 0.790300 0.600953 0.141361
H35   H     H_    0.197480 0.833980 0.801784 0.125684
H36   H     H_    0.161891 0.881561 0.873397 0.132837
H37   H     H_    0.197804 0.843857 0.673158 0.127248
H38   H     H_    0.217835 0.499632 0.393419 0.133937
H39   H     H_    0.153088 0.466122 0.177382 0.107166
H40   H     H_    0.141965 0.433862 0.103606 0.107355
N1    N     N_R   0.817864 0.395163 0.229670 -0.223631
N2    N     N_R   0.284370 0.435144 0.729681 -0.183065
N3    N     N_R   0.309446 0.265641 0.719053 -0.176542
N4    N     N_R   0.307018 0.261704 0.758678 -0.178810
N5    N     N_R   0.815686 0.400732 0.269749 -0.175060
N6    N     N_R   0.878409 0.221938 0.268203 -0.227597
N7    N     N_R   0.880621 0.216342 0.228046 -0.227852
N8    N     N_R   0.284075 0.791455 0.217185 -0.239847
N9    N     N_R   0.284332 0.787681 0.256941 -0.246740
N10   N     N_R   0.424936 0.821244 0.266997 -0.219760
N11   N     N_R   0.424562 0.825220 0.227157 -0.225728
N12   N     N_R   0.281332 0.431438 0.769349 -0.211614
O1    O     O_R   0.679450 0.499830 0.463150 -0.447192
O2    O     O_R   0.356040 0.477400 0.534170 -0.498764
O3    O     O_R   0.495910 0.323070 0.537100 -0.512010
O4    O     O_R   0.663920 0.359620 0.542290 -0.503074
O5    O     O_3   0.500010 0.500010 0.500010 -0.248235
O6    O     O_R   0.170070 0.978950 0.027680 -0.519767
O7    O     O_R   0.001760 0.175230 0.026640 -0.511452
O8    O     O_R   0.984760 0.333570 0.037150 -0.478392
O9    O     O_R   0.183410 0.309240 0.041890 -0.509152
O10   O     O_R   0.340240 0.172500 0.045430 -0.517717
O11   O     O_R   0.309670 0.000990 0.032050 -0.501725
O12   O     O_R   0.480650 0.664000 0.464630 -0.460997
O13   O     O_R   0.168330 0.982130 0.939200 -0.518216
O14   O     O_R   0.000140 0.178170 0.944610 -0.500208
O15   O     O_R   0.983010 0.336750 0.948660 -0.515888
O16   O     O_R   0.181800 0.312190 0.959860 -0.501054
O17   O     O_R   0.338500 0.175680 0.956950 -0.517351
O18   O     O_R   0.308050 0.003930 0.950020 -0.500879
O19   O     O_3   0.164130 0.163270 0.992500 -0.242096
O20   O     O_R   0.323930 0.675950 0.455370 -0.526284
O21   O     O_R   0.354700 0.475360 0.451930 -0.504766
O22   O     O_R   0.494470 0.320860 0.448390 -0.511168
O23   O     O_R   0.662580 0.357570 0.460050 -0.517584
O24   O     O_R   0.680900 0.502040 0.551870 -0.526188
O25   O     O_R   0.481990 0.666040 0.546870 -0.497102
O26   O     O_R   0.325370 0.678160 0.544080 -0.514029
O27   O     O_3   0.845990 0.466483 0.086680 -0.550146
C97   C     C_3   0.909119 0.508775 0.106063 0.021291
H41   H     H_    0.956558 0.511302 0.082826 0.160590
H42   H     H_    0.964834 0.462497 0.130811 0.115075
C98   C     C_3   0.840816 0.619615 0.122732 -0.266006
H43   H     H_    0.791763 0.667601 0.097395 0.176363
H44   H     H_    0.788858 0.620050 0.144682 0.171346
C99   C     C_3   0.906370 0.667363 0.143980 -0.484875
H45   H     H_    0.953665 0.622340 0.170232 0.148282
H46   H     H_    0.854820 0.748100 0.155240 0.155468
H47   H     H_    0.958631 0.668572 0.122556 0.143531
I1    I     I_    0.935499 0.468491 0.342730 -0.268025
I2    I     I_    0.570270 0.781703 0.429551 -0.285088
I3    I     I_    0.095811 0.538548 0.654743 -0.381847
I4    I     I_    0.534115 0.159340 0.681672 -0.308920
I5    I     I_    0.522050 0.151873 0.818800 -0.321605
O28   O     O_3   0.154058 0.494598 0.316082 -0.537535
C100  C     C_3   0.152201 0.588098 0.309009 0.007934
H48   H     H_    0.221097 0.573628 0.292911 0.132493
H49   H     H_    0.150245 0.633151 0.338288 0.127636
C101  C     C_3   0.054440 0.651287 0.282355 -0.243756
H50   H     H_    0.056085 0.606180 0.253175 0.173567
H51   H     H_    0.984903 0.666137 0.297832 0.204921
C102  C     C_3   0.045874 0.754538 0.273524 -0.480885
H52   H     H_    0.039838 0.802729 0.302158 0.152523
H53   H     H_    0.975205 0.796972 0.253456 0.157347
H54   H     H_    0.114518 0.741613 0.257962 0.180101
O29   O     O_3   0.836175 0.486456 0.425860 -0.514516
C103  C     C_3   0.934358 0.437886 0.447477 0.021584
H55   H     H_    0.969488 0.489937 0.448197 0.175578
H56   H     H_    0.990564 0.362013 0.433019 0.121321
C104  C     C_3   0.921511 0.423823 0.491159 -0.258421
H57   H     H_    0.863623 0.498871 0.505076 0.205409
H58   H     H_    0.892967 0.366553 0.491152 0.154327
C105  C     C_3   0.023972 0.385658 0.516807 -0.473837
H59   H     H_    0.082813 0.309965 0.503772 0.155663
H60   H     H_    0.011984 0.375682 0.548133 0.170904
H61   H     H_    0.053237 0.442729 0.518220 0.157657

loop_
_geom_bond_atom_site_label_1
_geom_bond_atom_site_label_2
_ccdc_geom_bond_type
C66   C68   A    
C87   C88   T    
C51   N12   A    
C52   N3    A    
Cr2   O21   S    
C23   O1    A    
C93   O6    A    
C101  H50   S    
C74   C94   S    
C47   I3    S    
C36   C42   S    
C75   C76   A    
C49   C50   A    
N3    N4    A    
C98   H43   S    
C7    C8    A    
C56   O24   A    
C85   C86   A    
C25   C28   A    
N1    N5    A    
C26   C27   A    
C52   N2    A    
C59   C95   S    
C99   H47   S    
C5    C6    A    
Cr1   O5    S    
Cr5   O8    S    
C38   C42   A    
Cr3   O5    S    
C105  H60   S    
C94   O15   A    
C30   C31   A    
C38   H12   S    
Cr1   O25   S    
C40   H13   S    
O28   C100  S    
C68   C74   A    
Cr1   O12   S    
C103  C104  S    
C80   H32   S    
C20   N7    A    
C99   H46   S    
C18   C19   A    
C41   C42   A    
C65   H24   S    
C97   H41   S    
C56   O4    A    
C16   I1    S    
C103  H56   S    
Cr5   O19   S    
C39   H8    S    
Cr3   O22   S    
C47   C48   A    
C53   C54   A    
C16   C17   A    
C17   C18   A    
C31   H10   S    
C104  C105  S    
C91   O8    A    
Cr5   O15   S    
Cr4   O7    S    
C28   C91   S    
C9    C10   S    
C15   O29   S    
C34   C75   S    
C12   O22   A    
C92   O10   A    
C55   H20   S    
C93   O11   A    
C63   C64   A    
C54   H17   S    
C102  H52   S    
C101  H51   S    
C20   N1    A    
C34   O25   A    
C61   C62   A    
C67   C78   A    
C84   C90   A    
C37   N9    A    
C2    C11   S    
C14   C19   A    
C68   H21   S    
C79   C88   S    
C44   C46   A    
C36   N11   A    
C81   H33   S    
C54   C59   A    
C77   C79   A    
C78   C89   A    
Cr6   O18   S    
C100  H49   S    
C12   C67   S    
Cr2   O2    S    
C1    O20   A    
C32   C37   S    
C30   H7    S    
C21   N6    A    
C77   H37   S    
Cr5   O9    S    
C45   O3    A    
C84   C85   A    
C72   C73   T    
C10   C11   T    
C105  H61   S    
C94   O14   A    
C45   O2    A    
C86   C87   S    
C8    C9    A    
C98   C99   S    
C4    H28   S    
C63   C73   S    
C51   N4    A    
C25   C26   A    
O27   C97   S    
C17   C21   S    
C56   C60   S    
C46   H15   S    
C60   C61   A    
Cr6   O19   S    
C97   C98   S    
C14   C23   S    
C2    C89   A    
C5    H9    S    
C105  H59   S    
C66   C71   A    
C5    C9    A    
C29   C30   A    
C43   C93   S    
C19   H2    S    
Cr4   O6    S    
C31   C32   A    
C14   C15   A    
C102  H54   S    
C7    C13   A    
C40   C43   A    
C62   C63   A    
C1    C29   S    
C103  H55   S    
C96   O13   A    
Cr5   O16   S    
C61   H25   S    
C51   C58   S    
C6    H1    S    
N6    N7    A    
C90   C96   S    
C34   O26   A    
O29   C103  S    
C100  H48   S    
Cr1   O24   S    
C12   O21   A    
C92   O9    A    
C22   H4    S    
C40   C41   A    
C102  H53   S    
C60   C65   A    
C64   H23   S    
Cr6   O11   S    
C22   C27   A    
Cr3   O3    S    
C13   C92   S    
C57   I5    S    
C101  C102  S    
C66   H22   S    
Cr2   O5    S    
C37   N10   A    
Cr2   O26   S    
C3    C4    A    
C21   N5    A    
C70   C71   A    
C44   C45   S    
C25   H5    S    
C49   I4    S    
C85   H35   S    
C70   H26   S    
Cr6   O17   S    
C83   C90   A    
C46   C47   A    
C48   C49   A    
Cr6   O10   S    
C24   O27   S    
C50   H16   S    
C62   H29   S    
C75   C81   A    
C24   C28   A    
C104  H58   S    
C80   C81   A    
C78   H38   S    
C4    C67   A    
C39   C43   A    
C53   C58   A    
Cr3   O23   S    
C20   C27   S    
C55   C59   A    
C89   O28   S    
C29   C35   A    
C33   H11   S    
N8    N9    A    
Cr4   O14   S    
C32   C33   A    
C8    H39   S    
C82   H31   S    
C55   C57   A    
C2    C3    A    
C18   H3    S    
C83   H30   S    
C82   C86   A    
C64   C65   A    
C6    C13   A    
C76   C77   A    
C36   N8    A    
C57   C58   A    
C38   C39   A    
C1    O12   A    
C91   O7    A    
Cr2   O20   S    
Cr4   O13   S    
C33   C35   A    
C100  C101  S    
C22   C24   A    
Cr1   O1    S    
N2    N12   A    
C69   C70   A    
C95   O16   A    
C97   H42   S    
C23   O23   A    
C98   H44   S    
C3    H18   S    
C35   I2    S    
C84   H36   S    
C79   C80   A    
C76   H34   S    
C48   C52   S    
C71   C72   S    
C104  H57   S    
C44   C50   A    
C69   H27   S    
C82   C83   A    
C96   O18   A    
Cr3   O4    S    
Cr4   O19   S    
C69   C74   A    
C99   H45   S    
C53   H19   S    
N10   N11   A    
C41   H14   S    
C95   O17   A    
C7    H40   S    
C26   H6    S    
C15   C16   A    
