data_mof_unit_5754.cif
_audit_creation_date              2012-12-11T14:42:10-0500
_audit_creation_method            fapswitch 2.2
_symmetry_space_group_name_H-M    P1
_symmetry_Int_Tables_number       1
_space_group_crystal_system       triclinic
_cell_length_a                    18.996214
_cell_length_b                    10.919171
_cell_length_c                    18.791904
_cell_angle_alpha                 89.868561
_cell_angle_beta                  90.212127
_cell_angle_gamma                 90.045251
_cell_volume                      3897.83323327

loop_
_atom_site_label
_atom_site_type_symbol
_atom_type_description
_atom_site_fract_x
_atom_site_fract_y
_atom_site_fract_z
_atom_type_partial_charge
C1    C     C_R   0.725477 0.959274 0.855256 0.559277
C2    C     C_R   0.272605 0.955875 0.146650 0.562031
C3    C     C_R   0.225479 0.459270 0.855255 0.558384
C4    C     C_R   0.772605 0.455875 0.146651 0.561945
C5    C     C_R   0.703773 0.486309 0.036155 -0.133273
C6    C     C_R   0.302637 0.461551 0.962267 -0.147156
C7    C     C_R   0.203769 0.986302 0.036155 -0.133256
C8    C     C_R   0.802638 0.961535 0.962266 -0.147355
C9    C     C_R   0.751897 0.416056 0.076273 0.028735
C10   C     C_R   0.238190 0.432969 0.929804 0.033380
C11   C     C_R   0.251902 0.916060 0.076271 0.028793
C12   C     C_R   0.738185 0.932980 0.929806 0.033447
C13   C     C_R   0.791183 0.324306 0.043884 -0.138200
C14   C     C_R   0.180082 0.400291 0.971519 -0.131521
C15   C     C_R   0.291200 0.824332 0.043876 -0.138201
C16   C     C_R   0.680074 0.900331 0.971525 -0.131306
C17   C     C_R   0.787466 0.309996 0.971404 -0.124651
C18   C     C_R   0.185995 0.395106 0.044262 -0.131559
C19   C     C_R   0.287487 0.810033 0.971396 -0.125214
C20   C     C_R   0.685991 0.895139 0.044268 -0.131552
C21   C     C_R   0.742868 0.384961 0.930127 0.034190
C22   C     C_R   0.251384 0.414412 0.076690 0.031353
C23   C     C_R   0.242877 0.884981 0.930123 0.034079
C24   C     C_R   0.751385 0.914417 0.076692 0.031316
C25   C     C_R   0.493024 0.285965 0.535696 0.008204
C26   C     C_R   0.509045 0.285582 0.463240 0.009137
C27   C     C_R   0.995975 0.786490 0.534501 0.011915
C28   C     C_R   0.011875 0.784947 0.462031 0.010595
C29   C     C_R   0.501775 0.173274 0.426022 0.008311
C30   C     C_R   0.499303 0.173706 0.573439 0.007558
C31   C     C_R   0.003165 0.672699 0.425231 0.009019
C32   C     C_R   0.000851 0.674278 0.572640 0.004577
C33   C     C_R   0.498776 0.063027 0.463350 -0.166503
C34   C     C_R   0.501958 0.063228 0.536571 -0.166605
C35   C     C_R   0.999606 0.562790 0.462849 -0.167481
C36   C     C_R   0.002920 0.563509 0.536055 -0.167355
C37   C     C_R   0.825731 0.407846 0.548262 0.050455
C38   C     C_R   0.174563 0.405883 0.452075 0.047179
C39   C     C_R   0.325667 0.906944 0.548140 0.047045
C40   C     C_R   0.674516 0.906293 0.451992 0.046665
C41   C     C_R   0.833197 0.429794 0.476004 -0.131650
C42   C     C_R   0.167112 0.428354 0.524267 -0.136519
C43   C     C_R   0.333162 0.929296 0.475882 -0.135350
C44   C     C_R   0.667017 0.928799 0.524186 -0.135516
C45   C     C_R   0.529418 0.177558 0.850599 0.562731
C46   C     C_R   0.469830 0.177559 0.148897 0.563207
C47   C     C_R   0.029424 0.677559 0.850604 0.562283
C48   C     C_R   0.969834 0.677559 0.148899 0.563211
C49   C     C_R   0.778947 0.482444 0.436330 -0.005618
C50   C     C_R   0.221204 0.482085 0.563631 -0.003967
C51   C     C_R   0.278969 0.982333 0.436302 -0.003736
C52   C     C_R   0.721145 0.982313 0.563602 -0.005301
C53   C     C_R   0.716986 0.519443 0.470532 -0.105437
C54   C     C_R   0.282991 0.519626 0.529175 -0.105035
C55   C     C_R   0.217093 0.019551 0.470565 -0.106449
C56   C     C_R   0.782959 0.019786 0.529166 -0.103331
C57   C     C_R   0.706499 0.490108 0.541960 -0.134208
C58   C     C_R   0.293457 0.490067 0.457832 -0.133076
C59   C     C_R   0.206695 0.990367 0.542022 -0.135811
C60   C     C_R   0.793480 0.990122 0.457842 -0.131254
C61   C     C_R   0.759252 0.428903 0.580691 -0.001986
C62   C     C_R   0.240826 0.428079 0.419400 0.003049
C63   C     C_R   0.259326 0.928699 0.580652 0.002452
C64   C     C_R   0.740834 0.928218 0.419378 0.002480
C65   C     C_R   0.736734 0.357652 0.855004 0.555151
C66   C     C_R   0.261634 0.365269 0.147649 0.553905
C67   C     C_R   0.236737 0.857663 0.855001 0.555969
C68   C     C_R   0.761634 0.865269 0.147649 0.553885
C69   C     C_R   0.709836 0.001436 0.639795 0.565755
C70   C     C_R   0.290236 0.001396 0.360104 0.567132
C71   C     C_R   0.209862 0.501364 0.639791 0.564191
C72   C     C_R   0.790233 0.501407 0.360110 0.566434
C73   C     C_R   0.528200 0.176979 0.645180 0.575476
C74   C     C_R   0.472046 0.176843 0.354625 0.575334
C75   C     C_R   0.028559 0.677104 0.644884 0.575432
C76   C     C_R   0.972349 0.676733 0.354348 0.575416
C77   C     C_R   0.740962 0.366199 0.647583 0.553135
C78   C     C_R   0.259069 0.365980 0.352457 0.555608
C79   C     C_R   0.240978 0.866185 0.647585 0.557624
C80   C     C_R   0.759072 0.865996 0.352458 0.555641
C81   C     C_2   0.496052 0.169263 0.920364 -0.102073
C82   C     C_2   0.500982 0.167723 0.078132 -0.109027
C83   C     C_2   0.996066 0.669262 0.920372 -0.102071
C84   C     C_2   0.000994 0.667725 0.078140 -0.109103
C85   C     C_2   0.487494 0.069403 0.037164 -0.163233
C86   C     C_2   0.502880 0.068342 0.960639 -0.159844
C87   C     C_2   0.987517 0.569400 0.037172 -0.163378
C88   C     C_2   0.002906 0.568345 0.960648 -0.159379
C89   C     C_R   0.699061 0.470264 0.962985 -0.140125
C90   C     C_R   0.309469 0.451178 0.035762 -0.142778
C91   C     C_R   0.199059 0.970264 0.962985 -0.140063
C92   C     C_R   0.809473 0.951161 0.035761 -0.142797
Cr1   Cr    Cr6+3 0.769270 0.163730 0.750710 1.049881
Cr2   Cr    Cr6+3 0.230730 0.163730 0.249290 1.042348
Cr3   Cr    Cr6+3 0.269270 0.663730 0.750710 1.042431
Cr4   Cr    Cr6+3 0.730730 0.663730 0.249290 1.042411
Cr5   Cr    Cr6+3 0.612620 0.009790 0.748780 1.026542
Cr6   Cr    Cr6+3 0.387380 0.009790 0.251220 1.026862
Cr7   Cr    Cr6+3 0.112620 0.509790 0.748780 1.047190
Cr8   Cr    Cr6+3 0.887380 0.509790 0.251220 1.027338
Cr9   Cr    Cr6+3 0.614160 0.322500 0.747710 1.053120
Cr10  Cr    Cr6+3 0.385840 0.322500 0.252290 1.050854
Cr11  Cr    Cr6+3 0.114160 0.822500 0.747710 1.051956
Cr12  Cr    Cr6+3 0.885840 0.822500 0.252290 1.051106
H1    H     H_    0.463583 0.987622 0.059579 0.156706
H2    H     H_    0.520794 0.982991 0.937545 0.143194
H3    H     H_    0.963611 0.487615 0.059586 0.156932
H4    H     H_    0.020829 0.482999 0.937556 0.144324
H5    H     H_    0.881956 0.405224 0.450301 0.165566
H6    H     H_    0.118453 0.403222 0.550120 0.152959
H7    H     H_    0.381875 0.904537 0.450135 0.159837
H8    H     H_    0.618304 0.903880 0.549998 0.160361
H9    H     H_    0.675509 0.565892 0.441565 0.187252
H10   H     H_    0.324318 0.566820 0.557885 0.185882
H11   H     H_    0.175614 0.066083 0.441631 0.187779
H12   H     H_    0.824253 0.067038 0.557881 0.185697
H13   H     H_    0.655922 0.509749 0.565727 0.189134
H14   H     H_    0.343918 0.510335 0.433879 0.186924
H15   H     H_    0.156275 0.010533 0.565927 0.189452
H16   H     H_    0.843991 0.010245 0.433939 0.186132
H17   H     H_    0.526472 0.248202 0.055880 0.109970
H18   H     H_    0.474743 0.252834 0.943022 0.107948
H19   H     H_    0.026480 0.748208 0.055889 0.109995
H20   H     H_    0.974750 0.752829 0.943029 0.108027
H21   H     H_    0.662706 0.525618 0.932177 0.127152
H22   H     H_    0.360657 0.465733 0.059892 0.131148
H23   H     H_    0.162695 0.025604 0.932179 0.127551
H24   H     H_    0.860663 0.965694 0.059887 0.131297
H25   H     H_    0.672847 0.558143 0.060470 0.137656
H26   H     H_    0.347428 0.490549 0.930932 0.121239
H27   H     H_    0.172833 0.058119 0.060474 0.137735
H28   H     H_    0.847432 0.990511 0.930928 0.121696
H29   H     H_    0.827844 0.268197 0.073912 0.131680
H30   H     H_    0.129171 0.380643 0.948237 0.128504
H31   H     H_    0.327868 0.768233 0.073901 0.131593
H32   H     H_    0.629159 0.880710 0.948245 0.128223
H33   H     H_    0.819678 0.239052 0.947937 0.140753
H34   H     H_    0.140214 0.367669 0.074670 0.135185
H35   H     H_    0.319711 0.739106 0.947928 0.140209
H36   H     H_    0.640209 0.867720 0.074679 0.135073
H37   H     H_    0.492637 0.977065 0.435919 0.181383
H38   H     H_    0.507672 0.977340 0.564375 0.181666
H39   H     H_    0.992674 0.476759 0.435680 0.182260
H40   H     H_    0.008001 0.477766 0.564101 0.180248
O1    O     O_R   0.784320 0.290430 0.830510 -0.515683
O2    O     O_R   0.215680 0.290430 0.169490 -0.518047
O3    O     O_R   0.284320 0.790430 0.830510 -0.518271
O4    O     O_R   0.715680 0.790430 0.169490 -0.518119
O5    O     O_R   0.554640 0.080370 0.673500 -0.524809
O6    O     O_R   0.445360 0.080370 0.326500 -0.524999
O7    O     O_R   0.054640 0.580370 0.673500 -0.510133
O8    O     O_R   0.945360 0.580370 0.326500 -0.525165
O9    O     O_R   0.543920 0.282180 0.666790 -0.488428
O10   O     O_R   0.456080 0.282180 0.333210 -0.488474
O11   O     O_R   0.043920 0.782180 0.666790 -0.489954
O12   O     O_R   0.956080 0.782180 0.333210 -0.488792
O13   O     O_R   0.679040 0.374160 0.674430 -0.502997
O14   O     O_R   0.320960 0.374160 0.325570 -0.504404
O15   O     O_R   0.179040 0.874160 0.674430 -0.503623
O16   O     O_R   0.820960 0.874160 0.325570 -0.504344
O17   O     O_3   0.665350 0.165340 0.749070 -0.285661
O18   O     O_3   0.334650 0.165340 0.250930 -0.281613
O19   O     O_3   0.165350 0.665340 0.749070 -0.287909
O20   O     O_3   0.834650 0.665340 0.250930 -0.281630
O21   O     O_R   0.762640 0.040960 0.825200 -0.502467
O22   O     O_R   0.237360 0.040960 0.174800 -0.501661
O23   O     O_R   0.262640 0.540960 0.825200 -0.503300
O24   O     O_R   0.737360 0.540960 0.174800 -0.501556
O25   O     O_R   0.667400 0.923970 0.829950 -0.520671
O26   O     O_R   0.332600 0.923970 0.170050 -0.519871
O27   O     O_R   0.167400 0.423970 0.829950 -0.519458
O28   O     O_R   0.832600 0.423970 0.170050 -0.519829
O29   O     O_R   0.553960 0.081340 0.821780 -0.497095
O30   O     O_R   0.446040 0.081340 0.178220 -0.495146
O31   O     O_R   0.053960 0.581340 0.821780 -0.492241
O32   O     O_R   0.946040 0.581340 0.178220 -0.495196
O33   O     O_R   0.543180 0.283240 0.826740 -0.510221
O34   O     O_R   0.456820 0.283240 0.173260 -0.510851
O35   O     O_R   0.043180 0.783240 0.826740 -0.511155
O36   O     O_R   0.956820 0.783240 0.173260 -0.510804
O37   O     O_R   0.678360 0.375140 0.822710 -0.501522
O38   O     O_R   0.321640 0.375140 0.177290 -0.504603
O39   O     O_R   0.178360 0.875140 0.822710 -0.500976
O40   O     O_R   0.821640 0.875140 0.177290 -0.504576
O41   O     O_R   0.785050 0.289380 0.670560 -0.485552
O42   O     O_R   0.214950 0.289380 0.329440 -0.487440
O43   O     O_R   0.285050 0.789380 0.670560 -0.486713
O44   O     O_R   0.714950 0.789380 0.329440 -0.487930
O45   O     O_R   0.763320 0.039990 0.676930 -0.493966
O46   O     O_R   0.236680 0.039990 0.323070 -0.498384
O47   O     O_R   0.263320 0.539990 0.676930 -0.495435
O48   O     O_R   0.736680 0.539990 0.323070 -0.497070
O49   O     O_R   0.668130 0.922920 0.670000 -0.501079
O50   O     O_R   0.331870 0.922920 0.330000 -0.501942
O51   O     O_R   0.168130 0.422920 0.670000 -0.500958
O52   O     O_R   0.831870 0.422920 0.330000 -0.501673
C93   C     C_2   0.471097 0.400280 0.572947 0.619658
O53   O     O_2   0.505828 0.494232 0.568007 -0.454449
O54   O     O_R   0.413507 0.395822 0.618997 -0.683947
H41   H     H_    0.405970 0.475951 0.645018 0.344702
C94   C     C_2   0.531457 0.399282 0.425274 0.617557
O55   O     O_2   0.497472 0.493925 0.430114 -0.453496
O56   O     O_R   0.588515 0.393437 0.378649 -0.684442
H42   H     H_    0.596362 0.473256 0.352174 0.344667
C95   C     C_2   0.975133 0.901996 0.571079 0.622418
O57   O     O_2   0.011432 0.994164 0.566572 -0.485793
O58   O     O_R   0.916671 0.900663 0.616027 -0.684215
H43   H     H_    0.909906 0.981360 0.641681 0.340583
C96   C     C_2   0.034985 0.897573 0.423410 0.615469
O59   O     O_2   0.002214 0.993455 0.428557 -0.452318
O60   O     O_R   0.091241 0.889388 0.375929 -0.684612
H44   H     H_    0.099601 0.968745 0.349162 0.345315
C97   C     C_2   0.888331 0.359985 0.586691 0.559501
O61   O     O_2   0.904230 0.401166 0.645097 -0.504189
O62   O     O_R   0.930508 0.270675 0.554902 -0.679115
H45   H     H_    0.972117 0.246567 0.585814 0.363374
C98   C     C_2   0.112224 0.357136 0.413521 0.570816
O63   O     O_2   0.075805 0.277454 0.440767 -0.496140
O64   O     O_R   0.094107 0.404905 0.346759 -0.677440
H46   H     H_    0.050489 0.364879 0.325972 0.334718
C99   C     C_2   0.387990 0.858660 0.586957 0.569392
O65   O     O_2   0.424553 0.779160 0.560035 -0.491020
O66   O     O_R   0.405855 0.906515 0.653650 -0.676467
H47   H     H_    0.449459 0.866751 0.674668 0.334600
C100  C     C_2   0.612166 0.857832 0.413347 0.570014
O67   O     O_2   0.575644 0.778186 0.440494 -0.488493
O68   O     O_R   0.594179 0.905792 0.346592 -0.678478
H48   H     H_    0.550536 0.865956 0.325731 0.334073

loop_
_geom_bond_atom_site_label_1
_geom_bond_atom_site_label_2
_ccdc_geom_bond_type
Cr2   O2    S    
C2    O22   A    
O56   H42   S    
C49   C53   A    
C58   C62   A    
C23   C91   A    
C55   C59   A    
Cr8   O28   S    
C77   O41   A    
C94   O55   D    
C14   C18   A    
C19   C23   A    
C35   C36   A    
C84   C87   D    
C6    H26   S    
C3    O27   A    
Cr2   O22   S    
C32   C75   S    
C31   C76   S    
Cr3   O43   S    
C63   C79   S    
C97   O61   D    
Cr8   O8    S    
C84   H19   S    
C7    C11   A    
C74   O10   A    
C50   C54   A    
C79   O43   A    
C82   C85   D    
Cr11  O39   S    
C74   O6    A    
C32   C36   A    
C38   C42   A    
Cr3   O19   S    
C79   O15   A    
Cr6   O30   S    
C85   H1    S    
C80   O16   A    
C15   H31   S    
C76   O8    A    
C23   C67   S    
Cr7   O51   S    
C8    H28   S    
C58   H14   S    
Cr5   O25   S    
Cr6   O50   S    
C18   H34   S    
Cr5   O49   S    
C40   C100  S    
C93   O54   S    
C46   O34   A    
C22   C66   S    
C9    C13   A    
C52   C69   S    
C96   O60   S    
C69   O49   A    
C46   C82   S    
C80   O44   A    
C11   C15   A    
C78   O14   A    
C89   H21   S    
C34   H38   S    
O66   H47   S    
C29   C33   A    
C61   C77   S    
C49   C72   S    
Cr8   O32   S    
C47   O35   A    
Cr4   O24   S    
Cr1   O1    S    
C26   C29   A    
C78   O42   A    
C51   C70   S    
C1    O21   A    
C83   H20   S    
C93   O53   D    
Cr10  O10   S    
C82   H17   S    
C7    H27   S    
C81   C86   D    
C68   O4    A    
C45   O33   A    
C25   C26   A    
C73   O5    A    
C70   O50   A    
C44   C52   A    
C42   H6    S    
C5    H25   S    
C83   C88   D    
C66   O38   A    
Cr1   O21   S    
O54   H41   S    
C41   H5    S    
C94   O56   S    
C38   C98   S    
Cr10  O14   S    
C86   H2    S    
C1    C12   S    
C43   H7    S    
Cr12  O16   S    
C64   C80   S    
C2    C11   S    
C24   C92   A    
C37   C97   S    
Cr2   O42   S    
Cr6   O18   S    
C53   H9    S    
C96   O59   D    
Cr8   O52   S    
C56   H12   S    
Cr4   O4    S    
C92   H24   S    
Cr5   O29   S    
C30   C34   A    
C3    O23   A    
O58   H43   S    
Cr10  O38   S    
C12   C16   A    
C26   C94   S    
Cr3   O3    S    
C10   C14   A    
C75   O7    A    
O64   H46   S    
C30   C73   S    
C53   C57   A    
C65   O37   A    
C29   C74   S    
C14   H30   S    
C51   C55   A    
C33   H37   S    
C28   C96   S    
C95   O57   D    
Cr7   O7    S    
C76   O12   A    
C17   C21   A    
Cr4   O20   S    
C27   C95   S    
C15   C19   A    
O62   H45   S    
Cr2   O46   S    
O60   H44   S    
C5    C9    A    
C99   O65   D    
C45   O29   A    
C48   C84   S    
C71   O51   A    
O68   H48   S    
Cr1   O17   S    
C16   C20   A    
C7    C91   A    
C46   O30   A    
C100  O67   D    
C22   C90   A    
Cr7   O31   S    
Cr8   O20   S    
C50   C71   S    
Cr12  O12   S    
C85   C86   S    
C91   H23   S    
C2    O26   A    
C8    C92   A    
C44   H8    S    
Cr11  O11   S    
Cr12  O40   S    
C42   C50   A    
C73   O9    A    
Cr5   O17   S    
C67   O3    A    
Cr10  O34   S    
Cr7   O19   S    
C59   C63   A    
Cr9   O9    S    
C65   O1    A    
C16   H32   S    
C48   O36   A    
Cr9   O37   S    
Cr10  O18   S    
C70   O46   A    
C57   H13   S    
Cr6   O6    S    
C25   C30   A    
Cr2   O18   S    
C68   O40   A    
C59   H15   S    
Cr3   O47   S    
C4    O28   A    
C21   C65   S    
C27   C32   A    
C18   C22   A    
C4    O24   A    
C13   H29   S    
C62   C78   S    
C28   C31   A    
C45   C81   S    
C21   C89   A    
C69   O45   A    
Cr3   O23   S    
C72   O52   A    
C39   C43   A    
C75   O11   A    
C57   C61   A    
Cr1   O45   S    
C98   O64   S    
C41   C49   A    
C39   C63   A    
C35   H39   S    
Cr11  O19   S    
C40   C64   A    
C13   C17   A    
C81   H18   S    
C60   C64   A    
C20   H36   S    
Cr9   O17   S    
C98   O63   D    
C97   O62   S    
C99   O66   S    
C3    C10   S    
C6    C90   A    
C72   O48   A    
Cr11  O15   S    
Cr12  O20   S    
Cr12  O36   S    
C55   H11   S    
C43   C51   A    
C88   H4    S    
C52   C56   A    
C54   H10   S    
C31   C35   A    
C1    O25   A    
C100  O68   S    
C33   C34   A    
C60   H16   S    
Cr11  O35   S    
C37   C41   A    
Cr4   O48   S    
C47   O31   A    
C66   O2    A    
C25   C93   S    
C6    C10   A    
C24   C68   S    
Cr9   O13   S    
C47   C83   S    
Cr6   O26   S    
C56   C60   A    
C90   H22   S    
C40   C44   A    
C37   C61   A    
C87   H3    S    
C87   C88   S    
C19   H35   S    
C54   C58   A    
C27   C28   A    
Cr5   O5    S    
C39   C99   S    
C67   O39   A    
C17   H33   S    
C71   O47   A    
C4    C9    S    
C36   H40   S    
C95   O58   S    
Cr4   O44   S    
C20   C24   A    
Cr9   O33   S    
C5    C89   A    
C8    C12   A    
Cr7   O27   S    
C77   O13   A    
C48   O32   A    
C38   C62   A    
Cr1   O41   S    
