data_mof_unit_26509.cif
_audit_creation_date              2013-03-05T16:44:36-0500
_audit_creation_method            fapswitch 2.2
_symmetry_space_group_name_H-M    P1
_symmetry_Int_Tables_number       1
_space_group_crystal_system       triclinic
_cell_length_a                    27.660027
_cell_length_b                    10.681305
_cell_length_c                    9.880763
_cell_angle_alpha                 90.53534
_cell_angle_beta                  91.073385
_cell_angle_gamma                 90.67287
_cell_volume                      2918.37679508

loop_
_atom_site_label
_atom_site_type_symbol
_atom_site_description
_atom_site_fract_x
_atom_site_fract_y
_atom_site_fract_z
_atom_type_partial_charge
O1    O     O_R   0.500010 0.316790 0.614690 -0.608764
O2    O     O_R   0.500000 0.316760 0.385350 -0.620884
C1    C     C_R   0.498979 0.260005 0.499526 0.918845
O3    O     O_R   0.428760 0.500040 0.614660 -0.602195
O4    O     O_R   0.428750 0.500000 0.385310 -0.619620
C2    C     C_R   0.406344 0.500965 0.498717 0.962875
Zn1   Zn    Zn3+2 0.500000 0.500020 0.653130 0.946929
Zn2   Zn    Zn3+2 0.500000 0.499980 0.346870 0.949282
O5    O     O_R   0.500000 0.683240 0.614650 -0.631914
O6    O     O_R   0.499990 0.683210 0.385310 -0.624705
O7    O     O_R   0.571250 0.500000 0.614690 -0.631588
O8    O     O_R   0.571240 0.499960 0.385340 -0.619110
C3    C     C_R   0.498078 0.739913 0.500495 0.869964
C4    C     C_R   0.593857 0.499502 0.501165 0.865813
C5    C     C_R   0.177597 0.445359 0.390570 0.560841
O9    O     O_2   0.202227 0.373390 0.303174 -0.523707
N1    N     N_R   0.202074 0.520430 0.481839 -0.336652
C6    C     C_R   0.178547 0.595769 0.570911 0.603344
C7    C     C_R   0.280534 0.619307 0.434030 0.345621
C8    C     C_R   0.331423 0.616324 0.441249 0.034249
C9    C     C_R   0.326566 0.408112 0.543495 0.198932
C10   C     C_R   0.276585 0.414371 0.539915 -0.153465
C11   C     C_R   0.253630 0.518586 0.485525 0.141586
C12   C     C_R   0.101934 0.519612 0.478736 -0.050557
C13   C     C_R   0.127032 0.443181 0.387513 -0.021232
C14   C     C_R   0.101301 0.366122 0.296026 -0.106749
C15   C     C_R   0.128006 0.598302 0.569519 -0.092578
C16   C     C_R   0.354041 0.508853 0.495057 -0.165952
H1    H     H_    0.255203 0.337022 0.577588 0.198078
H2    H     H_    0.119848 0.305527 0.225950 0.200643
C17   C     C_R   0.646381 0.496504 0.503557 -0.034068
C18   C     C_R   0.973761 0.442905 0.381258 0.050857
C19   C     C_R   0.975964 0.569826 0.590875 0.059058
C20   C     C_R   0.949629 0.502567 0.488949 0.077334
C21   C     C_R   0.945741 0.385230 0.276490 -0.205663
C22   C     C_R   0.895624 0.380959 0.281672 -0.123039
C23   C     C_R   0.871793 0.433474 0.391592 -0.018849
C24   C     C_R   0.898714 0.493523 0.496051 -0.054742
C25   C     C_R   0.874729 0.544222 0.607997 -0.023742
C26   C     C_R   0.824207 0.539781 0.609965 0.514204
N2    N     N_R   0.798646 0.483844 0.505566 -0.355428
C27   C     C_R   0.821367 0.428732 0.398964 0.509785
C28   C     C_R   0.721257 0.432141 0.610218 -0.082342
C29   C     C_R   0.671079 0.437785 0.610189 -0.232349
C30   C     C_R   0.672122 0.550558 0.397797 -0.216671
C31   C     C_R   0.722272 0.547080 0.399369 -0.093322
C32   C     C_R   0.746997 0.487221 0.505039 0.296440
O10   O     O_2   0.795156 0.369479 0.300557 -0.556750
C33   C     C_R   0.024914 0.441338 0.383301 0.064138
C34   C     C_R   0.050852 0.517100 0.479474 0.050023
C35   C     C_R   0.026172 0.590591 0.576159 -0.032665
C36   C     C_R   0.051141 0.365141 0.293648 -0.195354
H3    H     H_    0.651574 0.394283 0.691731 0.153372
H4    H     H_    0.740168 0.384998 0.691667 0.156958
H5    H     H_    0.875626 0.336063 0.198902 0.193795
H6    H     H_    0.961486 0.345199 0.187218 0.150594
H7    H     H_    0.033893 0.300420 0.223126 0.153924
O11   O     O_2   0.204096 0.667622 0.660485 -0.514158
C37   C     C_R   0.103316 0.681449 0.652468 -0.126535
H8    H     H_    0.123056 0.750242 0.713738 0.225024
C38   C     C_R   0.951634 0.606303 0.708624 -0.151530
C39   C     C_R   0.901667 0.596600 0.715847 -0.129156
O12   O     O_2   0.800760 0.593214 0.713845 -0.558117
C40   C     C_R   0.053040 0.682316 0.652411 0.233049
H9    H     H_    0.970998 0.638020 0.798566 0.190663
H10   H     H_    0.653494 0.596731 0.315096 0.152352
H11   H     H_    0.884321 0.629381 0.806763 0.195979
H12   H     H_    0.742021 0.590860 0.318491 0.154156
C41   C     C_R   0.491899 0.064872 0.621735 0.113897
C42   C     C_R   0.492100 0.128338 0.499341 -0.087028
C43   C     C_R   0.482230 0.063049 0.378063 -0.192497
H13   H     H_    0.478541 0.110822 0.282243 0.172208
C44   C     C_R   0.481248 0.933522 0.378943 -0.207995
H14   H     H_    0.477380 0.883502 0.283382 0.175868
C45   C     C_R   0.489652 0.870919 0.501395 -0.135991
C46   C     C_R   0.488992 0.937334 0.623472 0.106929
C47   C     C_3   0.520264 0.929637 0.748842 -0.054524
C48   C     C_3   0.524268 0.072394 0.745500 -0.040165
H15   H     H_    0.554816 0.880540 0.731161 0.176461
H16   H     H_    0.506938 0.121450 0.831477 0.189595
C49   C     C_R   0.465677 0.433654 0.068672 0.178536
N3    N     N_R   0.499670 0.499140 0.142800 -0.126119
C50   C     C_R   0.536172 0.555943 0.076038 -0.119815
H17   H     H_    0.564675 0.602726 0.134368 0.154195
C51   C     C_R   0.536571 0.556537 0.932495 0.192426
N4    N     N_R   0.499670 0.499180 0.857150 -0.116789
C52   C     C_R   0.465638 0.433661 0.926234 0.166671
C53   C     C_3   0.412372 0.453524 0.918792 -0.443071
C54   C     C_3   0.412479 0.453196 0.072274 -0.467499
H18   H     H_    0.402702 0.545722 0.875170 0.223598
H19   H     H_    0.392738 0.371805 0.873151 0.246519
H20   H     H_    0.402912 0.545225 0.117199 0.219182
H21   H     H_    0.393033 0.371274 0.114773 0.223641
Br1   Br    Br    0.355754 0.257265 0.608815 -0.507345
Br2   Br    Br    0.246417 0.755281 0.349109 -0.415801
Br3   Br    Br    0.025616 0.830383 0.732047 -0.487831
C55   C     C_3   0.492538 0.880648 0.870683 -0.879385
H22   H     H_    0.515510 0.890884 0.963564 0.239943
H23   H     H_    0.458459 0.932868 0.885138 0.252367
H24   H     H_    0.483255 0.780151 0.855710 0.271036
C56   C     C_3   0.575957 0.118916 0.719372 -0.919240
H25   H     H_    0.590193 0.077463 0.624714 0.245353
H26   H     H_    0.576921 0.222381 0.711561 0.263899
H27   H     H_    0.599960 0.092358 0.805459 0.254099
C57   C     C_3   0.578199 0.621967 0.867457 -0.821515
H28   H     H_    0.566185 0.673137 0.777074 0.272269
H29   H     H_    0.595278 0.692384 0.937280 0.201988
H30   H     H_    0.606140 0.552685 0.841310 0.246900
C58   C     C_3   0.361962 0.726281 0.395573 -0.766164
H31   H     H_    0.340687 0.809769 0.368888 0.282418
H32   H     H_    0.387376 0.755537 0.478571 0.220702
H33   H     H_    0.382967 0.699211 0.305578 0.233518

loop_
_geom_bond_atom_site_label_1
_geom_bond_atom_site_label_2
_geom_bond_distance
_ccdc_geom_bond_type
C52   C53   1.491563 S    
C56   H25   1.111761 S    
C10   H1    1.083254 S    
N2    C27   1.368518 A    
C21   C22   1.388369 A    
C12   C15   1.406618 A    
C4    C17   1.453301 S    
C28   C29   1.389949 A    
C49   N3    1.363438 A    
C47   C48   1.528258 S    
Zn1   O7    2.014020 S    
C57   H29   1.111123 S    
C37   C40   1.390748 A    
N1    C11   1.426173 S    
C26   O12   1.350028 S    
C39   H11   1.083513 S    
Zn2   N3    2.016153 S    
C22   C23   1.397438 A    
C58   H32   1.110304 S    
C24   C25   1.407714 A    
O7    C4    1.294422 A    
C48   H16   1.113034 S    
C5    C13   1.398308 A    
Zn1   N4    2.016168 S    
C9    Br1   1.922218 S    
C5    O9    1.350077 S    
C41   C46   1.363987 A    
N1    C6    1.366088 A    
C44   H14   1.083454 S    
C23   C27   1.398421 A    
O5    C3    1.285603 A    
C29   H3    1.083285 S    
C6    O11   1.350150 S    
C2    C16   1.449933 S    
C3    C45   1.421261 S    
C47   C55   1.532373 S    
C42   C43   1.401601 A    
C49   C54   1.489641 S    
C37   H8    1.083708 S    
C56   H26   1.108597 S    
O1    Zn1   1.990169 S    
C9    C10   1.384676 A    
C48   C56   1.535323 S    
C44   C45   1.404740 A    
C41   C48   1.502996 S    
C38   C39   1.387955 A    
O3    Zn1   1.999827 S    
C51   C57   1.498131 S    
C55   H23   1.111748 S    
C55   H22   1.110211 S    
C47   H15   1.111425 S    
C12   C34   1.413040 A    
C57   H30   1.108601 S    
C17   C29   1.401995 A    
C6    C15   1.398335 A    
C18   C21   1.413724 A    
C1    C42   1.416954 S    
C46   C47   1.500965 S    
C40   Br3   1.929556 S    
O3    C2    1.292543 A    
C58   H33   1.109216 S    
C25   C26   1.398182 A    
C43   C44   1.383585 A    
N4    C52   1.363564 A    
C8    C16   1.416898 A    
C34   C35   1.420513 A    
C13   C14   1.396208 A    
C51   N4    1.385525 A    
N3    C50   1.356726 A    
O1    C1    1.284133 A    
C18   C20   1.416972 A    
C7    C11   1.405605 A    
C45   C46   1.394159 A    
C31   H12   1.083080 S    
C23   C24   1.406696 A    
C14   C36   1.387092 A    
C28   H4    1.082966 S    
C50   H17   1.082485 S    
C53   H19   1.110181 S    
Zn2   O8    1.999827 S    
C33   C36   1.413459 A    
C19   C20   1.416917 A    
N2    C32   1.429396 S    
C27   O10   1.350164 S    
C12   C13   1.408483 A    
C54   H20   1.111612 S    
C49   C52   1.407381 A    
C19   C38   1.409020 A    
C26   N2    1.368276 A    
C50   C51   1.418642 A    
C9    C16   1.403047 A    
O8    C4    1.294016 A    
C14   H2    1.083631 S    
C56   H27   1.110204 S    
C55   H24   1.108700 S    
C7    Br2   1.931145 S    
Zn1   O5    1.997104 S    
C25   C39   1.397538 A    
C31   C32   1.400951 A    
C21   H6    1.078092 S    
C20   C24   1.413587 A    
O2    Zn2   1.997105 S    
C35   C40   1.424079 A    
C53   H18   1.112176 S    
O6    C3    1.286496 A    
O4    Zn2   2.014022 S    
C5    N1    1.365826 A    
C19   C35   1.414183 A    
C57   H28   1.099532 S    
C7    C8    1.408814 A    
O2    C1    1.286308 A    
C43   H13   1.083420 S    
C22   H5    1.083633 S    
C15   C37   1.395898 A    
C58   H31   1.105428 S    
O4    C2    1.290651 A    
C38   H9    1.078751 S    
C54   H21   1.111592 S    
C41   C42   1.391969 A    
C18   C33   1.414954 A    
C36   H7    1.077902 S    
C8    C58   1.515751 S    
C30   C31   1.387881 A    
C53   C54   1.516502 S    
Zn2   O6    1.990167 S    
C33   C34   1.420936 A    
C17   C30   1.400632 A    
C30   H10   1.083589 S    
C10   C11   1.395016 A    
C28   C32   1.400837 A    
