data_mof_unit_31321.cif
_audit_creation_date              2013-03-05T15:46:01-0500
_audit_creation_method            fapswitch 2.2
_symmetry_space_group_name_H-M    P1
_symmetry_Int_Tables_number       1
_space_group_crystal_system       triclinic
_cell_length_a                    14.319065
_cell_length_b                    10.971686
_cell_length_c                    10.021144
_cell_angle_alpha                 113.568223
_cell_angle_beta                  97.575185
_cell_angle_gamma                 91.656591
_cell_volume                      1424.66145426

loop_
_atom_site_label
_atom_site_type_symbol
_atom_site_description
_atom_site_fract_x
_atom_site_fract_y
_atom_site_fract_z
_atom_type_partial_charge
O1    O     O_R   0.508040 0.332330 0.577400 -0.556576
O2    O     O_R   0.491960 0.667670 0.422600 -0.563128
O3    O     O_R   0.482600 0.295500 0.332650 -0.578594
O4    O     O_R   0.517400 0.704500 0.667350 -0.535571
C1    C     C_R   0.492797 0.252221 0.437092 0.819068
C2    C     C_R   0.506974 0.747925 0.562974 0.921618
O5    O     O_R   0.388780 0.518420 0.622400 -0.577623
O6    O     O_R   0.611220 0.481580 0.377600 -0.578401
O7    O     O_R   0.363340 0.481590 0.377660 -0.507367
O8    O     O_R   0.636660 0.518410 0.622340 -0.502389
C3    C     C_R   0.331434 0.500127 0.500672 0.826015
C4    C     C_R   0.668563 0.499800 0.499326 0.844495
Cu1   Cu    Cu3+1 0.515060 0.521810 0.644910 1.023783
Cu2   Cu    Cu3+1 0.484940 0.478190 0.355090 1.009063
C5    C     C_1   0.229144 0.500804 0.501546 -0.120035
C6    C     C_1   0.770854 0.498964 0.498511 -0.113135
C7    C     C_1   0.143597 0.500791 0.501105 0.001662
C8    C     C_1   0.856407 0.498878 0.499043 0.005483
C9    C     C_1   0.042793 0.500148 0.500425 -0.000449
C10   C     C_1   0.957215 0.499469 0.499774 0.000744
C11   C     C_2   0.482381 0.107113 0.394902 -0.185139
C12   C     C_2   0.515873 0.893433 0.604627 -0.226903
C13   C     C_2   0.524165 0.055585 0.487995 -0.082707
C14   C     C_2   0.474173 0.942993 0.509904 -0.140016
N1    N     N_2   0.462290 0.445430 0.137370 -0.219832
N2    N     N_2   0.537710 0.554570 0.862630 -0.241752
C15   C     C_2   0.515546 0.502202 0.077493 -0.029080
C16   C     C_2   0.484319 0.500383 0.924824 -0.049155
C17   C     C_2   0.588896 0.680553 0.949838 0.656080
H1    H     H_    0.561930 0.752407 0.043477 0.055380
O9    O     O_2   0.662138 0.711002 0.916160 -0.496443
C18   C     C_2   0.419386 0.314244 0.048810 0.642113
H2    H     H_    0.450373 0.247861 0.956111 -0.049875
O10   O     O_2   0.348987 0.273247 0.080166 -0.552983
C19   C     C_2   0.370677 0.902946 0.451670 0.470218
H3    H     H_    0.328836 0.961099 0.405092 0.056359
O11   O     O_2   0.329242 0.809064 0.462210 -0.562330
C20   C     C_2   0.627385 0.096734 0.548664 0.365781
H4    H     H_    0.668815 0.039818 0.597484 0.074020
O12   O     O_2   0.669303 0.189763 0.537141 -0.543415
C21   C     C_2   0.564650 0.985374 0.753993 0.316277
H5    H     H_    0.557232 0.091775 0.794152 0.060641
O13   O     O_2   0.613723 0.943807 0.833020 -0.489142
C22   C     C_2   0.429253 0.021577 0.246331 0.306116
H6    H     H_    0.383510 0.065824 0.186136 0.128232
O14   O     O_2   0.438262 0.902226 0.188048 -0.574625
C23   C     C_R   0.386148 0.445955 0.851303 0.173357
C24   C     C_R   0.364753 0.313294 0.746750 -0.133359
C25   C     C_R   0.270863 0.263124 0.686306 -0.164228
C26   C     C_R   0.197558 0.344128 0.730915 -0.090855
C27   C     C_R   0.218052 0.475625 0.835707 -0.126740
C28   C     C_R   0.311906 0.526405 0.895917 -0.115222
H7    H     H_    0.420031 0.246934 0.716829 0.122001
H8    H     H_    0.254870 0.160807 0.606518 0.131402
H9    H     H_    0.124856 0.305004 0.684441 0.141074
H10   H     H_    0.161171 0.538185 0.870337 0.145238
H11   H     H_    0.326817 0.628107 0.978067 0.160000
C29   C     C_R   0.613929 0.555112 0.151095 0.147262
C30   C     C_R   0.687601 0.473712 0.105675 -0.119942
C31   C     C_R   0.781710 0.523391 0.165236 -0.114009
C32   C     C_R   0.803036 0.654676 0.270255 -0.093646
C33   C     C_R   0.730308 0.736552 0.315826 -0.154562
C34   C     C_R   0.636169 0.687520 0.255974 -0.140344
H12   H     H_    0.672038 0.372213 0.023213 0.125215
H13   H     H_    0.838148 0.460160 0.129887 0.143928
H14   H     H_    0.875938 0.692952 0.316182 0.141530
H15   H     H_    0.746942 0.838719 0.395757 0.144572
H16   H     H_    0.581389 0.754686 0.286147 0.170845

loop_
_geom_bond_atom_site_label_1
_geom_bond_atom_site_label_2
_geom_bond_distance
_ccdc_geom_bond_type
C23   C28   1.404675 A    
O5    C3    1.316502 A    
O7    Cu2   1.784701 S    
C16   C23   1.483931 S    
C17   H1    1.082900 S    
C27   C28   1.398082 A    
N1    C15   1.312096 D    
C11   C22   1.489597 S    
O7    C3    1.312656 A    
C21   H5    1.085730 S    
N2    C16   1.312258 D    
C9    C10   1.224338 T    
O6    C4    1.316662 A    
C26   H9    1.082284 S    
C15   C16   1.528302 S    
C18   H2    1.084714 S    
C32   C33   1.396940 A    
N1    C18   1.421388 S    
C26   C27   1.397528 A    
C1    C11   1.472104 S    
C30   C31   1.398063 A    
C17   O9    1.220103 D    
Cu1   Cu2   2.719641 S    
C20   O12   1.221685 D    
C21   O13   1.220480 D    
C30   H12   1.083454 S    
O2    C2    1.311170 A    
O3    Cu2   1.924333 S    
O8    C4    1.312484 A    
C33   H15   1.082170 S    
O1    C1    1.310294 A    
O4    C2    1.305684 A    
C24   C25   1.397583 A    
C7    C9    1.442344 S    
C22   O14   1.220874 D    
C31   H13   1.082239 S    
C27   H10   1.082267 S    
C8    C10   1.442344 S    
C11   C13   1.357219 D    
Cu2   N1    2.043092 S    
C24   H7    1.080668 S    
O2    Cu2   1.906559 S    
C12   C14   1.354741 D    
Cu1   N2    2.043092 S    
C12   C21   1.490649 S    
O1    Cu1   1.906559 S    
C28   H11   1.083376 S    
C13   C14   1.514555 S    
C25   H8    1.082139 S    
C13   C20   1.504320 S    
C23   C24   1.407201 A    
C4    C6    1.466078 S    
O5    Cu1   1.789904 S    
C20   H4    1.081865 S    
C22   H6    1.084877 S    
N2    C17   1.420594 S    
C6    C8    1.224381 T    
C25   C26   1.396944 A    
C29   C34   1.407301 A    
C5    C7    1.224372 T    
C34   H16   1.080516 S    
O6    Cu2   1.789904 S    
C19   O11   1.221627 D    
C29   C30   1.404852 A    
C3    C5    1.466090 S    
C32   H14   1.082269 S    
O8    Cu1   1.784701 S    
C14   C19   1.503035 S    
C33   C34   1.397537 A    
C19   H3    1.081863 S    
O4    Cu1   1.924333 S    
C18   O10   1.219648 D    
C31   C32   1.397565 A    
O3    C1    1.305130 A    
C15   C29   1.483907 S    
C2    C12   1.476646 S    
