data_mof_unit_67577.cif
_audit_creation_date              2013-03-05T15:41:32-0500
_audit_creation_method            fapswitch 2.2
_symmetry_space_group_name_H-M    P1
_symmetry_Int_Tables_number       1
_space_group_crystal_system       triclinic
_cell_length_a                    15.993033
_cell_length_b                    8.87782
_cell_length_c                    7.612638
_cell_angle_alpha                 102.278934
_cell_angle_beta                  95.753096
_cell_angle_gamma                 96.954272
_cell_volume                      1039.48890096

loop_
_atom_site_label
_atom_site_type_symbol
_atom_site_description
_atom_site_fract_x
_atom_site_fract_y
_atom_site_fract_z
_atom_type_partial_charge
O1    O     O_R   0.506070 0.286130 0.619780 -0.563233
O2    O     O_R   0.493930 0.713870 0.380220 -0.482926
O3    O     O_R   0.490300 0.256770 0.308360 -0.625733
O4    O     O_R   0.509700 0.743230 0.691640 -0.595814
C1    C     C_R   0.491158 0.198917 0.453863 0.697381
C2    C     C_R   0.502228 0.798939 0.546421 0.790756
O5    O     O_R   0.386960 0.514660 0.655680 -0.560580
O6    O     O_R   0.613040 0.485340 0.344320 -0.566880
O7    O     O_R   0.371190 0.485310 0.344260 -0.548965
O8    O     O_R   0.628810 0.514690 0.655740 -0.622964
C3    C     C_R   0.340093 0.492446 0.498356 0.779477
C4    C     C_R   0.660395 0.507727 0.501170 0.777840
Cu1   Cu    Cu3+1 0.509330 0.517380 0.684380 0.982160
Cu2   Cu    Cu3+1 0.490670 0.482620 0.315620 1.031281
C5    C     C_2   0.477381 0.027146 0.433076 0.142242
C6    C     C_2   0.505970 0.966862 0.572668 0.159606
C7    C     C_3   0.964142 0.418599 0.576644 0.319273
C8    C     C_3   0.044144 0.628666 0.422505 0.229105
C9    C     C_3   0.009426 0.379482 0.407967 0.308789
C10   C     C_3   0.996561 0.668134 0.593289 0.265202
C11   C     C_1   0.250259 0.482831 0.496005 -0.216028
C12   C     C_1   0.751405 0.526607 0.501929 -0.201015
C13   C     C_3   0.039284 0.544292 0.669791 0.356502
C14   C     C_3   0.966858 0.503626 0.330431 0.277431
C15   C     C_3   0.085822 0.502704 0.500358 -0.214231
C16   C     C_3   0.920154 0.541367 0.501020 -0.234234
N1    N     N_2   0.476600 0.456420 0.038510 0.127353
N2    N     N_2   0.523400 0.543580 0.961490 0.091027
C17   C     C_1   0.175179 0.483209 0.496729 0.031195
C18   C     C_1   0.827588 0.539703 0.500432 0.035934
O9    O     O_3   0.018802 0.225786 0.324704 -0.578838
C19   C     C_3   0.953160 0.164370 0.180514 0.093494
H1    H     H_    0.966999 0.214210 0.064423 0.234996
H2    H     H_    0.889796 0.191868 0.212931 0.130644
C20   C     C_3   0.947676 0.988614 0.129935 -0.837496
H3    H     H_    0.924559 0.939015 0.240650 0.216611
H4    H     H_    0.902790 0.939855 0.004194 0.230226
H5    H     H_    0.010986 0.954238 0.109711 0.293620
O10   O     O_3   0.988478 0.815206 0.703433 -0.573262
C21   C     C_3   0.051811 0.929588 0.675126 0.049656
H6    H     H_    0.038435 0.947184 0.535604 0.231751
H7    H     H_    0.115490 0.898754 0.706520 0.140953
C22   C     C_3   0.052836 0.086416 0.799655 -0.776395
H8    H     H_    0.987407 0.109743 0.800221 0.297125
H9    H     H_    0.083324 0.089440 0.937938 0.240804
H10   H     H_    0.089246 0.178571 0.747681 0.241322
O11   O     O_3   0.929275 0.315322 0.676903 -0.549646
C23   C     C_3   0.870163 0.194205 0.564732 0.082259
H11   H     H_    0.904086 0.101976 0.496153 0.196070
H12   H     H_    0.828625 0.235547 0.464583 0.134812
C24   C     C_3   0.812654 0.122293 0.680197 -0.859366
H13   H     H_    0.785795 0.216546 0.766016 0.261635
H14   H     H_    0.761394 0.036627 0.590681 0.190976
H15   H     H_    0.847450 0.060521 0.768908 0.252982
O12   O     O_3   0.080233 0.737728 0.328310 -0.592014
C25   C     C_3   0.168582 0.785977 0.384534 0.072822
H16   H     H_    0.204614 0.707390 0.300091 0.183412
H17   H     H_    0.189697 0.783134 0.526459 0.112620
C26   C     C_3   0.194909 0.951677 0.362432 -0.831195
H18   H     H_    0.170765 0.038044 0.465361 0.245784
H19   H     H_    0.265271 0.978822 0.381407 0.229135
H20   H     H_    0.170472 0.965367 0.226083 0.249370
O13   O     O_3   0.928231 0.474948 0.149883 -0.565052
C27   C     C_3   0.901871 0.611780 0.113962 0.173131
H21   H     H_    0.956191 0.682902 0.076772 0.237387
H22   H     H_    0.875287 0.680970 0.229464 0.126379
C28   C     C_3   0.832943 0.567823 0.954259 -0.778882
H23   H     H_    0.781663 0.482457 0.979706 0.231458
H24   H     H_    0.808300 0.673313 0.927276 0.188365
H25   H     H_    0.859515 0.512711 0.834226 0.308357
O14   O     O_3   0.066230 0.554515 0.853820 -0.519160
C29   C     C_3   0.148108 0.639363 0.907360 0.079730
H26   H     H_    0.144089 0.736197 0.021520 0.195881
H27   H     H_    0.175474 0.694675 0.803829 0.088418
C30   C     C_3   0.206922 0.532310 0.967190 -0.727634
H28   H     H_    0.227482 0.463214 0.845493 0.254671
H29   H     H_    0.264386 0.598569 0.055803 0.234110
H30   H     H_    0.173819 0.453618 0.042229 0.270719
O15   O     O_3   0.424588 0.922944 0.288555 -0.595025
C31   C     C_3   0.420005 0.971115 0.125141 0.096499
H31   H     H_    0.484515 0.002543 0.089860 0.197804
H32   H     H_    0.381646 0.067105 0.137632 0.163738
C32   C     C_3   0.373220 0.840289 0.973169 -0.697398
H33   H     H_    0.304899 0.827639 0.988054 0.188068
H34   H     H_    0.380640 0.869082 0.840170 0.205182
H35   H     H_    0.398017 0.729839 0.977147 0.320374
O16   O     O_3   0.528947 0.057457 0.747368 -0.610485
C33   C     C_3   0.618015 0.090063 0.783718 0.059115
H36   H     H_    0.643138 0.154076 0.684974 0.150987
H37   H     H_    0.646547 0.981117 0.776853 0.130275
C34   C     C_3   0.643319 0.193655 0.973417 -0.738167
H38   H     H_    0.612288 0.141372 0.074356 0.236360
H39   H     H_    0.713030 0.207678 0.012115 0.188230
H40   H     H_    0.624181 0.310185 0.977588 0.248970
O17   O     O_3   0.395664 0.419510 0.956179 -0.477745
C35   C     C_3   0.378658 0.257127 0.883963 0.229385
H41   H     H_    0.427020 0.193221 0.937195 0.157950
H42   H     H_    0.377194 0.233867 0.735177 0.160990
C36   C     C_3   0.290298 0.191762 0.916523 -0.957163
H43   H     H_    0.241094 0.222314 0.823252 0.243180
H44   H     H_    0.281941 0.062903 0.884028 0.205726
H45   H     H_    0.279911 0.235367 0.059393 0.277385
O18   O     O_3   0.560143 0.677296 0.077101 -0.456410
C37   C     C_3   0.641315 0.716331 0.032188 0.212133
H46   H     H_    0.637788 0.762504 0.908074 0.160158
H47   H     H_    0.674465 0.613064 0.013296 0.131899
C38   C     C_3   0.691964 0.841259 0.187675 -0.909098
H48   H     H_    0.701972 0.793656 0.310601 0.245399
H49   H     H_    0.754764 0.881163 0.149887 0.205365
H50   H     H_    0.657195 0.942587 0.219577 0.243622

loop_
_geom_bond_atom_site_label_1
_geom_bond_atom_site_label_2
_geom_bond_distance
_ccdc_geom_bond_type
O12   C25   1.420345 S    
N1    O17   1.350177 S    
O17   C35   1.411532 S    
C22   H8    1.091275 S    
C9    O9    1.409537 S    
C37   H47   1.104154 S    
O5    C3    1.311046 A    
C7    C13   1.536253 S    
C32   H33   1.104480 S    
O1    C1    1.315531 A    
C7    C16   1.544540 S    
C20   H4    1.108927 S    
C14   C16   1.557760 S    
C29   C30   1.519918 S    
C5    C6    1.352215 D    
C35   C36   1.525765 S    
C4    C12   1.444131 S    
C25   H16   1.101335 S    
O4    Cu1   1.993305 S    
C21   C22   1.505785 S    
C5    O15   1.403852 S    
C36   H43   1.103880 S    
C35   H42   1.104593 S    
C6    O16   1.387842 S    
C38   H48   1.111074 S    
C10   C13   1.545735 S    
Cu1   N2    2.058723 S    
Cu2   N1    2.058722 S    
C23   H12   1.110758 S    
C26   H18   1.108047 S    
Cu1   Cu2   2.739734 S    
C38   H49   1.110004 S    
O2    C2    1.313173 A    
C8    C15   1.558610 S    
C31   C32   1.513848 S    
O2    Cu2   1.999716 S    
C37   H46   1.106160 S    
C22   H10   1.110621 S    
C23   C24   1.511527 S    
C15   C17   1.462465 S    
C26   H19   1.110045 S    
C28   H23   1.108278 S    
C19   C20   1.514966 S    
C13   O14   1.404287 S    
C20   H5    1.108207 S    
C29   H27   1.111565 S    
C34   H38   1.106599 S    
C10   O10   1.421795 S    
C29   H26   1.097829 S    
O13   C27   1.403701 S    
C11   C17   1.201717 T    
C3    C11   1.426988 S    
C24   H13   1.105578 S    
C24   H14   1.109704 S    
C20   H3    1.105377 S    
C27   H22   1.113393 S    
C30   H28   1.100403 S    
C27   C28   1.506947 S    
C34   H39   1.109149 S    
C30   H29   1.105301 S    
O11   C23   1.407325 S    
C33   C34   1.524085 S    
O6    C4    1.311537 A    
C35   H41   1.107045 S    
C36   H45   1.110445 S    
O7    Cu2   1.947254 S    
C22   H9    1.108398 S    
O3    Cu2   1.993304 S    
O8    C4    1.318846 A    
C8    O12   1.423993 S    
O4    C2    1.304373 A    
C23   H11   1.104469 S    
C32   H34   1.109658 S    
C33   H37   1.112024 S    
C16   C18   1.478235 S    
C14   O13   1.406556 S    
O7    C3    1.311655 A    
C38   H50   1.110263 S    
C8    C14   1.553859 S    
O1    Cu1   1.999716 S    
O10   C21   1.411133 S    
C21   H6    1.109686 S    
C26   H20   1.108482 S    
O6    Cu2   1.943972 S    
C12   C18   1.211277 T    
C36   H44   1.106224 S    
O9    C19   1.407148 S    
C7    O11   1.411846 S    
C31   H31   1.110008 S    
O3    C1    1.315881 A    
O8    Cu1   1.947254 S    
C25   C26   1.529403 S    
C24   H15   1.105697 S    
C27   H21   1.107276 S    
C28   H25   1.092240 S    
C9    C14   1.550622 S    
O14   C29   1.404224 S    
C19   H1    1.098919 S    
C34   H40   1.108868 S    
N2    O18   1.346152 S    
C10   C16   1.553016 S    
C21   H7    1.102618 S    
C7    C9    1.533511 S    
C31   H32   1.102479 S    
C25   H17   1.105669 S    
C8    C10   1.568877 S    
C13   C15   1.552544 S    
C9    C15   1.536553 S    
C30   H30   1.111519 S    
C1    C5    1.485957 S    
C2    C6    1.454393 S    
O15   C31   1.396929 S    
O5    Cu1   1.943971 S    
C32   H35   1.106378 S    
C33   H36   1.111944 S    
O16   C33   1.405889 S    
O18   C37   1.397395 S    
C28   H24   1.108865 S    
C37   C38   1.522874 S    
C19   H2    1.109894 S    
N1    N2    1.281973 D    
