data_mof_unit_67816.cif
_audit_creation_date              2013-03-05T15:41:23-0500
_audit_creation_method            fapswitch 2.2
_symmetry_space_group_name_H-M    P1
_symmetry_Int_Tables_number       1
_space_group_crystal_system       triclinic
_cell_length_a                    8.272796
_cell_length_b                    8.805803
_cell_length_c                    10.996748
_cell_angle_alpha                 93.406161
_cell_angle_beta                  84.515508
_cell_angle_gamma                 92.251857
_cell_volume                      795.566191476

loop_
_atom_site_label
_atom_site_type_symbol
_atom_site_description
_atom_site_fract_x
_atom_site_fract_y
_atom_site_fract_z
_atom_type_partial_charge
O1    O     O_R   0.389250 0.738570 0.508370 -0.691689
O2    O     O_R   0.678390 0.711620 0.486510 -0.535570
C1    C     C_R   0.541918 0.791246 0.498381 0.913495
O3    O     O_R   0.355430 0.513500 0.696140 -0.612061
O4    O     O_R   0.644580 0.486550 0.674270 -0.521598
C2    C     C_R   0.498363 0.494822 0.740706 0.976880
Zn1   Zn    Zn3+2 0.306940 0.517990 0.514600 1.096434
Zn2   Zn    Zn3+2 0.693060 0.482010 0.485400 1.238907
O5    O     O_R   0.321610 0.288380 0.513490 -0.579623
O6    O     O_R   0.610750 0.261430 0.491630 -0.548149
O7    O     O_R   0.355420 0.513450 0.325730 -0.599340
O8    O     O_R   0.644570 0.486500 0.303860 -0.519363
C3    C     C_R   0.457650 0.208560 0.502656 0.917629
C4    C     C_R   0.500408 0.505913 0.260439 0.904844
C5    C     C_3   0.341335 0.592210 0.943513 -0.010770
C6    C     C_3   0.329438 0.582347 0.090146 0.314492
C7    C     C_3   0.487082 0.315996 0.923499 -0.001574
C8    C     C_3   0.660065 0.586572 0.920473 -0.121319
C9    C     C_3   0.495332 0.494877 0.879678 -0.346984
C10   C     C_3   0.497980 0.506293 0.124010 -0.442951
C11   C     C_3   0.507345 0.323967 0.072757 -0.139875
C12   C     C_3   0.646347 0.617432 0.068062 0.269296
C13   C     C_2   0.563298 0.953091 0.497998 0.147704
C14   C     C_2   0.434848 0.046817 0.505541 -0.327111
N1    N     N_2   0.950330 0.457950 0.465890 0.048013
N2    N     N_2   0.049670 0.542050 0.534110 -0.153249
N3    N     N_R   0.179302 0.549046 0.906270 0.218285
O9    O     O_R   0.142368 0.424223 0.845877 -0.234685
O10   O     O_R   0.063816 0.641494 0.941218 -0.326169
N4    N     N_R   0.804845 0.593063 0.114343 0.232566
O11   O     O_R   0.890573 0.708299 0.156177 -0.157800
O12   O     O_R   0.855265 0.459504 0.127931 -0.269383
C15   C     C_2   0.609241 0.207210 0.854100 0.502392
H1    H     H_    0.610142 0.091784 0.883275 0.214962
O13   O     O_2   0.688098 0.233755 0.758189 -0.503613
N5    N     N_R   0.657315 0.251019 0.109499 0.250737
O14   O     O_R   0.663666 0.218327 0.223150 -0.267931
O15   O     O_R   0.770883 0.190473 0.034433 -0.273524
N6    N     N_R   0.728724 0.007746 0.492088 0.260155
O16   O     O_R   0.816342 0.994493 0.387616 -0.180304
O17   O     O_R   0.801009 0.012115 0.592119 -0.248625
C16   C     C_2   0.262013 0.996782 0.523517 0.572588
H2    H     H_    0.201382 0.999936 0.615443 0.120046
O18   O     O_2   0.184743 0.964869 0.435881 -0.413847
N7    N     N_R   0.001735 0.311648 0.439679 0.329941
O19   O     O_R   0.993719 0.249659 0.330154 -0.208472
O20   O     O_R   0.012688 0.225494 0.529982 -0.268548
C17   C     C_2   0.009832 0.686106 0.586764 0.828283
H3    H     H_    0.106600 0.764009 0.608241 -0.023552
O21   O     O_2   0.874508 0.714999 0.627660 -0.462612
C18   C     C_2   0.357881 0.753073 0.894077 0.616853
H4    H     H_    0.322066 0.768517 0.803113 0.073528
O22   O     O_2   0.405979 0.866446 0.949468 -0.470844
N8    N     N_R   0.295029 0.737495 0.150165 0.273751
O23   O     O_R   0.182432 0.816087 0.111238 -0.154271
O24   O     O_R   0.315460 0.768079 0.264481 -0.263355
N9    N     N_R   0.186427 0.486851 0.135209 0.220062
O25   O     O_R   0.134988 0.366560 0.074664 -0.274625
O26   O     O_R   0.100295 0.529216 0.235938 -0.264721
N10   N     N_R   0.337287 0.235031 0.883220 0.256430
O27   O     O_R   0.247793 0.140275 0.948675 -0.211193
O28   O     O_R   0.324426 0.216628 0.765941 -0.390453
C19   C     C_2   0.378420 0.225747 0.145795 0.699657
H5    H     H_    0.297151 0.272151 0.219814 0.097250
O29   O     O_2   0.381398 0.087017 0.135966 -0.388101
C20   C     C_2   0.801545 0.485760 0.878434 0.697509
H6    H     H_    0.833765 0.394725 0.928201 0.157293
O30   O     O_2   0.883849 0.503044 0.782262 -0.455139
N11   N     N_R   0.704253 0.731488 0.857793 0.282590
O31   O     O_R   0.842436 0.801927 0.874884 -0.198543
O32   O     O_R   0.629684 0.776213 0.768132 -0.416552
N12   N     N_R   0.612615 0.778148 0.113796 0.259254
O33   O     O_R   0.660036 0.894333 0.051025 -0.193157
O34   O     O_R   0.607812 0.807093 0.231434 -0.320582

loop_
_geom_bond_atom_site_label_1
_geom_bond_atom_site_label_2
_geom_bond_distance
_ccdc_geom_bond_type
O4    Zn2   2.075659 S    
C20   O30   1.215968 D    
C13   C14   1.364253 D    
C19   O29   1.220996 D    
C5    C9    1.641274 S    
Zn2   N1    2.136237 S    
C5    C18   1.543656 S    
C8    C20   1.516959 S    
N12   O34   1.300702 A    
C14   C16   1.477985 S    
C18   O22   1.211980 D    
C5    N3    1.468150 S    
N2    C17   1.400762 S    
N4    O11   1.301794 A    
Zn2   O8    2.076440 S    
Zn1   O5    2.029539 S    
C8    N11   1.502288 S    
N5    O15   1.298927 A    
O2    C1    1.344057 A    
N6    O17   1.299236 A    
C11   N5    1.518045 S    
O1    Zn1   2.035726 S    
N7    O19   1.298962 A    
C19   H5    1.076566 S    
Zn1   O7    2.075658 S    
C2    C9    1.526026 S    
N9    O25   1.296662 A    
O4    C2    1.354218 A    
Zn1   N2    2.136237 S    
C16   O18   1.219757 D    
O3    Zn1   2.076441 S    
C13   N6    1.429579 S    
C17   O21   1.197010 D    
C6    C10   1.653354 S    
C7    C9    1.671395 S    
C10   C12   1.635741 S    
C20   H6    1.053562 S    
N8    O24   1.295468 A    
C6    N9    1.487182 S    
N7    O20   1.296922 A    
N11   O31   1.303211 A    
C15   O13   1.215902 D    
O7    C4    1.339618 A    
C6    N8    1.506870 S    
C11   C19   1.541764 S    
N9    O26   1.301843 A    
N3    O10   1.294961 A    
C16   H2    1.084013 S    
C7    N10   1.496048 S    
C18   H4    1.087604 S    
N4    O12   1.284863 A    
N1    N7    1.378101 S    
N6    O16   1.300167 A    
C15   H1    1.084386 S    
C10   C11   1.671914 S    
C4    C10   1.502535 S    
N10   O28   1.304189 A    
O3    C2    1.342039 A    
C17   H3    1.068165 S    
C12   N12   1.501101 S    
N3    O9    1.291613 A    
N11   O32   1.299736 A    
C8    C9    1.642499 S    
O5    C3    1.342168 A    
N8    O23   1.300753 A    
N5    O14   1.305407 A    
C12   N4    1.478854 S    
C7    C15   1.537261 S    
N1    N2    1.338145 D    
C8    C12   1.623482 S    
C1    C13   1.429405 S    
N12   O33   1.295279 A    
Zn2   O6    2.035725 S    
O2    Zn2   2.029538 S    
C5    C6    1.613369 S    
C3    C14   1.431179 S    
O8    C4    1.346899 A    
N10   O27   1.297466 A    
O1    C1    1.325093 A    
O6    C3    1.329154 A    
C7    C11   1.662832 S    
