data_mof_unit_43370.cif
_audit_creation_date              2012-12-11T14:25:54-0500
_audit_creation_method            fapswitch 2.2
_symmetry_space_group_name_H-M    P1
_symmetry_Int_Tables_number       1
_space_group_crystal_system       triclinic
_cell_length_a                    7.065643
_cell_length_b                    14.963845
_cell_length_c                    16.166677
_cell_angle_alpha                 90.462362
_cell_angle_beta                  89.121998
_cell_angle_gamma                 89.967102
_cell_volume                      1709.03285732

loop_
_atom_site_label
_atom_site_type_symbol
_atom_type_description
_atom_site_fract_x
_atom_site_fract_y
_atom_site_fract_z
_atom_type_partial_charge
O1    O     O_R   0.494490 0.416160 0.413410 -0.531421
O2    O     O_R   0.823830 0.407240 0.585990 -0.517755
O3    O     O_R   0.994160 0.583840 0.586590 -0.528699
C1    C     C_R   0.653026 0.387983 0.614762 0.809516
O4    O     O_R   0.824200 0.405280 0.414020 -0.552583
O5    O     O_R   0.994530 0.581860 0.413390 -0.547662
C2    C     C_R   0.655961 0.381719 0.387954 0.757901
O6    O     O_R   0.494110 0.418140 0.586610 -0.522525
O7    O     O_3   0.660810 0.557940 0.500000 -0.373731
V1    V     V_3+5 0.935650 0.489250 0.500000 1.642794
O8    O     O_R   0.324250 0.592760 0.414010 -0.496116
C3    C     C_R   0.156194 0.612384 0.384881 0.751604
O9    O     O_R   0.323880 0.594720 0.585980 -0.552814
C4    C     C_R   0.154467 0.615232 0.615205 0.789302
V2    V     V_3+5 0.435660 0.510750 0.500000 1.682754
O10   O     O_3   0.160630 0.442060 0.500000 -0.365276
C5    C     C_3   0.995990 0.657708 0.754206 0.071753
H1    H     H_    0.068752 0.603825 0.788622 0.130044
C6    C     C_3   0.956400 0.736232 0.817190 0.196547
C7    C     C_3   0.102123 0.785804 0.649189 -0.256854
C8    C     C_3   0.338156 0.689136 0.732686 -0.328796
C9    C     C_3   0.144808 0.686420 0.684044 -0.241426
H2    H     H_    0.375860 0.618976 0.748966 0.151185
C10   C     C_3   0.126377 0.805060 0.812743 -0.206398
C11   C     C_3   0.128473 0.856858 0.725172 0.129941
C12   C     C_3   0.305704 0.742185 0.817040 0.281712
H3    H     H_    0.258397 0.684594 0.854330 0.131553
C13   C     C_2   0.000562 0.719470 0.288052 0.338868
C14   C     C_2   0.151768 0.668437 0.309480 0.192166
C15   C     C_2   0.997617 0.771044 0.209795 -0.065880
C16   C     C_2   0.119041 0.838188 0.191387 -0.194257
H4    H     H_    0.887404 0.753938 0.166306 0.171715
C17   C     C_2   0.661186 0.175125 0.742912 0.440233
C18   C     C_2   0.635134 0.184692 0.825114 -0.313455
H5    H     H_    0.667403 0.248595 0.853957 0.141069
C19   C     C_2   0.728541 0.249168 0.690170 0.255821
C20   C     C_2   0.627289 0.325185 0.683727 0.131243
C21   C     C_2   0.766583 0.234201 0.193679 0.000260
C22   C     C_2   0.611747 0.188157 0.167563 -0.302321
H6    H     H_    0.474421 0.206829 0.193397 0.119490
C23   C     C_2   0.752836 0.305674 0.259120 -0.273337
C24   C     C_2   0.646802 0.304391 0.329749 -0.152960
H7    H     H_    0.842500 0.363774 0.248906 0.151774
O11   O     O_R   0.770850 0.076180 0.907410 -0.524273
O12   O     O_R   0.440600 0.088970 0.079950 -0.565341
O13   O     O_R   0.270430 0.912340 0.080550 -0.549839
C25   C     C_R   0.609098 0.114143 0.104975 0.706580
O14   O     O_R   0.441120 0.087010 0.907980 -0.527978
O15   O     O_R   0.270950 0.910370 0.907350 -0.496778
C26   C     C_R   0.611971 0.108535 0.881148 0.853541
O16   O     O_R   0.770320 0.078150 0.080620 -0.537874
O17   O     O_3   0.604200 0.936340 0.994000 -0.343682
V3    V     V_3+5 0.329300 0.004970 0.993950 1.639947
O18   O     O_R   0.941240 0.899420 0.907920 -0.490295
C27   C     C_R   0.112262 0.874536 0.882905 0.907170
O19   O     O_R   0.940720 0.901380 0.079890 -0.543495
C28   C     C_R   0.108426 0.885333 0.111216 0.676677
V4    V     V_3+5 0.829310 0.983370 0.993880 1.695623
O20   O     O_3   0.104280 0.052120 0.993920 -0.380024
Cl1   Cl    Cl    0.797726 0.587117 0.734529 -0.695660
Cl2   Cl    Cl    0.454754 0.745941 0.905670 -0.526069
C29   C     C_2   0.217468 0.812883 0.571786 0.427397
H8    H     H_    0.221173 0.882450 0.553527 0.129423
O21   O     O_2   0.291156 0.758645 0.524658 -0.504417
C30   C     C_2   0.303548 0.915198 0.715521 0.602213
H9    H     H_    0.317388 0.958395 0.662290 0.117030
O22   O     O_2   0.428322 0.917971 0.766662 -0.435381
Cl3   Cl    Cl    0.795779 0.730436 0.351315 -0.523944
Cl4   Cl    Cl    0.350640 0.658552 0.241970 -0.574660
C31   C     C_2   0.260879 0.873147 0.251259 0.527456
H10   H     H_    0.377160 0.914386 0.229242 0.031681
O23   O     O_2   0.245942 0.860172 0.325536 -0.477879
Cl5   Cl    Cl    0.611022 0.075107 0.691296 -0.429843
Cl6   Cl    Cl    0.920575 0.224376 0.622284 -0.478038
Cl7   Cl    Cl    0.422942 0.344008 0.746929 -0.578449
C32   C     C_2   0.954425 0.227532 0.151941 0.451463
H11   H     H_    0.081590 0.231342 0.188653 0.022149
O24   O     O_2   0.969480 0.225254 0.076618 -0.507244
C33   C     C_2   0.537475 0.224454 0.356384 0.429197
H12   H     H_    0.558399 0.160189 0.326292 0.067652
O25   O     O_2   0.425818 0.229016 0.414663 -0.489646
C34   C     C_2   0.916649 0.696150 0.902478 0.437719
H13   H     H_    0.804803 0.646982 0.909246 0.167254
O26   O     O_2   0.007800 0.716278 0.963434 -0.535968
Cl8   Cl    Cl    0.753377 0.794142 0.792991 -0.463173
C35   C     C_2   0.907399 0.786882 0.611819 0.708670
H14   H     H_    0.835334 0.725015 0.601015 0.044818
O27   O     O_2   0.840555 0.854596 0.581893 -0.430345
Cl9   Cl    Cl    0.959436 0.947393 0.723429 -0.463612
C36   C     C_2   0.497428 0.717026 0.675993 0.680849
H15   H     H_    0.574933 0.666596 0.642326 0.089179
O28   O     O_2   0.529412 0.793866 0.657910 -0.484762

loop_
_geom_bond_atom_site_label_1
_geom_bond_atom_site_label_2
_ccdc_geom_bond_type
C8    C12   S    
C3    C14   S    
C23   C24   D    
C1    O6    A    
V3    O20   S    
C21   C32   S    
C19   Cl6   S    
C10   C27   S    
C12   H3    S    
C22   C25   S    
C13   C14   D    
C13   Cl3   S    
C12   Cl2   S    
C32   O24   D    
O5    C3    A    
C21   C22   D    
C35   O27   D    
C7    C11   S    
V2    O10   S    
C17   C19   S    
O19   C28   A    
C18   H5    S    
C2    C24   S    
C29   O21   D    
O8    V2    S    
C16   C31   S    
O11   V4    S    
C30   O22   D    
C7    C35   S    
C31   H10   S    
O1    V2    S    
C6    C34   S    
O7    V1    S    
O14   C26   A    
C20   Cl7   S    
O12   V3    S    
C24   C33   S    
C8    C9    S    
C23   H7    S    
C5    H1    S    
C14   Cl4   S    
C8    C36   S    
O12   C25   A    
O14   V3    S    
C18   C26   S    
C11   C30   S    
C10   C11   S    
C21   C23   S    
C22   H6    S    
O4    C2    A    
C35   H14   S    
C25   O16   A    
V4    O20   S    
O15   C27   A    
O2    C1    A    
C29   H8    S    
C36   O28   D    
C17   C18   D    
O16   V4    S    
C32   H11   S    
O3    C4    A    
O17   V4    S    
C17   Cl5   S    
C7    C9    S    
C30   H9    S    
O6    V2    S    
C34   O26   D    
O9    V2    S    
O13   C28   A    
O2    V1    S    
O17   V3    S    
C33   O25   D    
O18   V4    S    
O11   C26   A    
O18   C27   A    
C19   C20   D    
O1    C2    A    
C10   C12   S    
C6    Cl8   S    
O5    V1    S    
O8    C3    A    
C11   Cl9   S    
C5    C9    S    
C16   C28   S    
C8    H2    S    
C6    C10   S    
O7    V2    S    
O4    V1    S    
O3    V1    S    
V1    O10   S    
C15   H4    S    
C4    C9    S    
C36   H15   S    
C15   C16   D    
O15   V3    S    
O13   V3    S    
C13   C15   S    
C5    C6    S    
O19   V4    S    
C7    C29   S    
C5    Cl1   S    
C33   H12   S    
C1    C20   S    
C34   H13   S    
C31   O23   D    
O9    C4    A    
