data_mof_unit_54236.cif
_audit_creation_date              2013-03-05T15:47:04-0500
_audit_creation_method            fapswitch 2.2
_symmetry_space_group_name_H-M    P1
_symmetry_Int_Tables_number       1
_space_group_crystal_system       triclinic
_cell_length_a                    23.541735
_cell_length_b                    11.050428
_cell_length_c                    10.019545
_cell_angle_alpha                 113.351412
_cell_angle_beta                  96.837796
_cell_angle_gamma                 91.924371
_cell_volume                      2366.68035902

loop_
_atom_site_label
_atom_site_type_symbol
_atom_site_description
_atom_site_fract_x
_atom_site_fract_y
_atom_site_fract_z
_atom_type_partial_charge
O1    O     O_R   0.505330 0.332340 0.577400 -0.525078
O2    O     O_R   0.494670 0.667660 0.422600 -0.527149
O3    O     O_R   0.488470 0.295500 0.332650 -0.535078
O4    O     O_R   0.511530 0.704500 0.667350 -0.530951
C1    C     C_R   0.497441 0.253532 0.438477 0.868418
C2    C     C_R   0.502794 0.746510 0.561541 0.875081
O5    O     O_R   0.426310 0.518390 0.622390 -0.553841
O6    O     O_R   0.573690 0.481610 0.377610 -0.562387
O7    O     O_R   0.409450 0.481550 0.377650 -0.533007
O8    O     O_R   0.590550 0.518450 0.622350 -0.531510
C3    C     C_R   0.391180 0.500233 0.501725 0.876994
C4    C     C_R   0.608681 0.498777 0.497737 0.871471
Cu1   Cu    Cu3+1 0.509980 0.521810 0.644910 1.180706
Cu2   Cu    Cu3+1 0.490020 0.478190 0.355090 1.173168
C5    C     C_R   0.882161 0.608392 0.519776 0.673529
C6    C     C_R   0.116022 0.384841 0.455522 0.669546
N1    N     N_R   0.851235 0.490842 0.488974 -0.433667
N2    N     N_R   0.147399 0.503603 0.494999 -0.433582
C7    C     C_R   0.877302 0.375870 0.459810 0.669259
C8    C     C_R   0.121824 0.619885 0.533702 0.670439
C9    C     C_R   0.936667 0.375366 0.456223 -0.038406
C10   C     C_R   0.062034 0.619251 0.529078 -0.037490
C11   C     C_R   0.969198 0.495654 0.489412 -0.005487
C12   C     C_R   0.029230 0.498238 0.490637 -0.005741
C13   C     C_R   0.941917 0.613557 0.522687 -0.027439
C14   C     C_R   0.056375 0.379965 0.454697 -0.028076
C15   C     C_R   0.964222 0.258116 0.421457 -0.119856
C16   C     C_R   0.034428 0.736368 0.562865 -0.117805
C17   C     C_R   0.023407 0.260234 0.419593 -0.122180
C18   C     C_R   0.974926 0.733398 0.558595 -0.119257
O9    O     O_2   0.855067 0.719730 0.547693 -0.477263
O10   O     O_2   0.142586 0.272102 0.417553 -0.480678
O11   O     O_2   0.845890 0.262914 0.435828 -0.462759
O12   O     O_2   0.154264 0.735622 0.577713 -0.463154
H1    H     H_    0.940142 0.164320 0.395064 0.205105
H2    H     H_    0.058658 0.830566 0.592161 0.203318
H3    H     H_    0.043278 0.168011 0.391871 0.202121
H4    H     H_    0.954975 0.825410 0.584784 0.200252
C19   C     C_R   0.234313 0.523605 0.386624 0.398275
C20   C     C_R   0.751883 0.436664 0.357768 0.413154
C21   C     C_R   0.293877 0.523761 0.390988 -0.182356
C22   C     C_R   0.692750 0.436579 0.361703 -0.187520
H5    H     H_    0.313321 0.539626 0.305931 0.245621
H6    H     H_    0.663565 0.388343 0.260945 0.240835
C23   C     C_R   0.328455 0.502735 0.502618 -0.165087
C24   C     C_R   0.671083 0.495623 0.494558 -0.144844
C25   C     C_R   0.302423 0.480606 0.610122 -0.188694
C26   C     C_R   0.709331 0.548936 0.626329 -0.191147
H7    H     H_    0.327854 0.458445 0.692204 0.270691
H8    H     H_    0.692907 0.592795 0.730045 0.238187
C27   C     C_R   0.243146 0.484798 0.611980 0.308322
C28   C     C_R   0.768696 0.544117 0.626557 0.320217
C29   C     C_R   0.208665 0.506280 0.499101 0.110961
C30   C     C_R   0.790298 0.489094 0.490980 0.108502
C31   C     C_2   0.492137 0.111599 0.403221 -0.281420
C32   C     C_2   0.508720 0.888441 0.596903 -0.279415
C33   C     C_2   0.514416 0.062204 0.500162 0.324623
C34   C     C_2   0.486323 0.938506 0.500723 0.330101
H9    H     H_    0.539569 0.946851 0.692237 0.201551
H10   H     H_    0.461671 0.052412 0.307328 0.203393
N3    N     N_2   0.475010 0.445410 0.137370 -0.072508
N4    N     N_2   0.524990 0.554590 0.862630 -0.068935
C35   C     C_2   0.508848 0.495663 0.074067 0.383769
C36   C     C_2   0.491283 0.504700 0.926308 0.405936
S1    S     S_3+6 0.576338 0.687249 0.965087 0.179047
O13   O     O_2   0.553778 0.779541 0.099884 -0.243355
O14   O     O_2   0.631533 0.638259 0.007081 -0.166189
O15   O     O_3   0.593223 0.774854 0.869382 -0.493241
H11   H     H_    0.621162 0.848323 0.938524 0.379274
S2    S     S_3+6 0.422401 0.315565 0.036213 0.180641
O16   O     O_2   0.368038 0.367853 0.994770 -0.166068
O17   O     O_2   0.444073 0.220832 0.901321 -0.240861
O18   O     O_3   0.404602 0.230275 0.133631 -0.484011
H12   H     H_    0.376259 0.157390 0.065170 0.378395
S3    S     S_3+6 0.193129 0.542974 0.237586 0.089345
O19   O     O_2   0.180045 0.684941 0.285010 -0.220180
O20   O     O_2   0.226354 0.507251 0.110077 -0.173513
O21   O     O_3   0.131213 0.445233 0.184223 -0.527225
H13   H     H_    0.108483 0.472486 0.112701 0.391702
S4    S     S_3+6 0.776290 0.371668 0.184369 0.087368
O22   O     O_2   0.788958 0.230653 0.148340 -0.229410
O23   O     O_2   0.730768 0.375147 0.067532 -0.185761
O24   O     O_3   0.836252 0.460403 0.187386 -0.512438
H14   H     H_    0.850447 0.409123 0.093559 0.395215
N5    N     N_R   0.218595 0.465287 0.727709 0.169400
O25   O     O_R   0.174437 0.526285 0.778232 -0.308752
O26   O     O_R   0.243407 0.395230 0.792126 -0.223439
N6    N     N_R   0.806362 0.595533 0.764720 0.162916
O27   O     O_R   0.853922 0.542776 0.780498 -0.326251
O28   O     O_R   0.790595 0.687292 0.879745 -0.262159
S5    S     S_3+6 0.419013 0.865578 0.386865 0.046900
O29   O     O_2   0.429722 0.788362 0.231912 -0.241159
O30   O     O_2   0.388810 0.775168 0.440388 -0.291731
O31   O     O_3   0.375892 0.984822 0.390026 -0.507943
H15   H     H_    0.342050 0.938159 0.315775 0.404922
S6    S     S_3+6 0.581271 0.136481 0.615884 0.053078
O32   O     O_2   0.611344 0.229010 0.564848 -0.274781
O33   O     O_2   0.569776 0.211678 0.770564 -0.240961
O34   O     O_3   0.625002 0.018194 0.612399 -0.507428
H16   H     H_    0.657771 0.064617 0.690418 0.406359
N7    N     N_R   0.432914 0.471918 0.861406 0.121066
O35   O     O_R   0.396595 0.560348 0.908003 -0.303941
O36   O     O_R   0.416895 0.360512 0.748937 -0.295055
N8    N     N_R   0.567300 0.529813 0.139847 0.129514
O37   O     O_R   0.604810 0.446334 0.087099 -0.292711
O38   O     O_R   0.583153 0.640573 0.253335 -0.266357

loop_
_geom_bond_atom_site_label_1
_geom_bond_atom_site_label_2
_geom_bond_distance
_ccdc_geom_bond_type
N3    S2    1.746089 S    
N7    O35   1.301318 A    
C15   C17   1.395209 A    
O18   H12   0.990649 S    
N6    O28   1.301897 A    
O7    Cu2   1.936575 S    
C27   N5    1.440322 S    
N8    O38   1.302036 A    
C25   H7    1.071007 S    
N5    O25   1.301223 A    
O5    C3    1.320750 A    
O1    C1    1.302704 A    
C7    C9    1.402425 A    
C12   C14   1.408544 A    
C5    C13   1.402350 A    
S6    O34   1.682979 S    
C18   H4    1.083130 S    
C22   C24   1.397635 A    
O4    Cu1   1.939257 S    
N3    C35   1.309597 D    
N4    C36   1.307936 D    
N2    C29   1.436971 S    
Cu1   N4    2.048477 S    
O24   H14   0.990852 S    
O15   H11   0.990678 S    
S1    O14   1.502039 D    
C33   S6    1.794277 S    
S6    O33   1.503237 D    
C11   C12   1.411068 A    
C20   S4    1.772197 S    
S2    O16   1.502492 D    
C19   S3    1.771524 S    
C34   S5    1.793551 S    
C8    O12   1.349255 S    
C20   C22   1.397308 A    
C9    C15   1.404758 A    
N7    O36   1.302128 A    
C10   C16   1.404791 A    
Cu1   Cu2   2.726874 S    
C21   H5    1.082820 S    
O2    C2    1.302931 A    
C22   H6    1.076582 S    
S4    O24   1.681809 S    
N8    O37   1.299773 A    
C28   C30   1.415668 A    
C23   C25   1.396968 A    
C6    C14   1.402345 A    
C36   N7    1.417502 S    
C24   C26   1.402033 A    
N5    O26   1.301456 A    
C28   N6    1.440783 S    
S4    O23   1.503361 D    
C7    O11   1.349293 S    
S5    O29   1.503170 D    
O21   H13   0.990541 S    
S4    O22   1.502792 D    
C25   C27   1.399887 A    
C15   H1    1.083122 S    
Cu2   N3    2.048477 S    
C27   C29   1.414781 A    
C4    C24   1.474463 S    
S3    O19   1.502720 D    
S5    O30   1.503029 D    
S3    O20   1.502903 D    
O34   H16   0.990598 S    
C26   C28   1.400104 A    
O6    C4    1.317440 A    
S1    O15   1.677946 S    
S6    O32   1.503424 D    
S2    O18   1.678313 S    
C26   H8    1.083184 S    
O7    C3    1.304963 A    
C16   H2    1.083095 S    
O3    Cu2   1.939257 S    
O8    C4    1.306262 A    
O4    C2    1.313912 A    
C8    C10   1.402495 A    
C20   C30   1.413991 A    
C31   C33   1.354506 D    
C10   C12   1.408728 A    
C3    C23   1.478876 S    
O1    Cu1   1.922883 S    
C13   C18   1.404874 A    
C5    N1    1.370338 A    
O6    Cu2   1.953104 S    
N4    S1    1.748316 S    
C1    C31   1.461999 S    
C2    C32   1.462151 S    
C35   N8    1.422103 S    
O3    C1    1.314186 A    
O8    Cu1   1.936580 S    
C5    O9    1.349505 S    
C6    O10   1.349495 S    
C32   H9    1.082144 S    
C9    C11   1.408728 A    
S5    O31   1.682935 S    
C33   C34   1.500716 S    
C19   C29   1.413017 A    
C16   C18   1.395226 A    
N1    C7    1.369986 A    
C32   C34   1.354261 D    
N2    C8    1.369865 A    
C11   C13   1.408546 A    
O31   H15   0.990579 S    
O2    Cu2   1.922883 S    
S3    O21   1.681673 S    
C35   C36   1.531989 S    
O5    Cu1   1.953104 S    
N6    O27   1.301226 A    
C19   C21   1.397614 A    
C14   C17   1.404892 A    
C6    N2    1.370468 A    
S1    O13   1.503853 D    
C17   H3    1.083096 S    
C21   C23   1.403401 A    
S2    O17   1.503773 D    
C31   H10   1.082383 S    
N1    C30   1.436689 S    
