data_mof_unit_33570.cif
_audit_creation_date              2012-10-26T19:15:57-0400
_audit_creation_method            fapswitch 2.2
_symmetry_space_group_name_H-M    P1
_symmetry_Int_Tables_number       1
_space_group_crystal_system       triclinic
_cell_length_a                    7.792586
_cell_length_b                    9.071337
_cell_length_c                    16.8726
_cell_angle_alpha                 89.883769
_cell_angle_beta                  94.45096
_cell_angle_gamma                 89.977883
_cell_volume                      1189.1104611

loop_
_atom_site_label
_atom_site_type_symbol
_atom_type_description
_atom_site_fract_x
_atom_site_fract_y
_atom_site_fract_z
_atom_type_partial_charge
C1    C     C_R   0.500121 0.220075 0.500747 0.533730
C2    C     C_R   0.425444 0.350303 0.138920 0.024592
C3    C     C_R   0.575447 0.517665 0.905354 0.223800
C4    C     C_R   0.424581 0.482378 0.094645 0.223799
C5    C     C_R   0.577607 0.379309 0.866633 0.040407
C6    C     C_R   0.422453 0.620729 0.133373 0.040411
C7    C     C_R   0.554010 0.373303 0.782681 -0.027815
C8    C     C_R   0.446046 0.626719 0.217325 -0.027817
C9    C     C_1   0.500064 0.065416 0.500274 -0.062672
C10   C     C_1   0.499936 0.934583 0.499726 -0.062673
C11   C     C_3   0.461179 0.212199 0.269568 -0.386130
C12   C     C_R   0.499878 0.779925 0.499254 0.533728
C13   C     C_3   0.538709 0.787816 0.730419 -0.386134
C14   C     C_3   0.402917 0.203134 0.096962 -0.395040
C15   C     C_3   0.597035 0.796915 0.903022 -0.395042
C16   C     C_3   0.613789 0.239939 0.914578 -0.381316
C17   C     C_3   0.386304 0.760111 0.085435 -0.381313
C18   C     C_3   0.545049 0.227426 0.738342 -0.393622
C19   C     C_3   0.455055 0.772588 0.261670 -0.393618
C20   C     C_R   0.522120 0.499343 0.651549 0.539246
C21   C     C_R   0.477880 0.500658 0.348451 0.539247
C22   C     C_R   0.538693 0.506043 0.738669 0.023792
C23   C     C_R   0.461308 0.493971 0.261331 0.023794
C24   C     C_R   0.551130 0.644525 0.777293 -0.022297
C25   C     C_R   0.448826 0.355498 0.222700 -0.022298
C26   C     C_R   0.574536 0.649736 0.861072 0.024600
Cu1   Cu    Cu3+1 0.669080 0.500010 0.500000 1.008159
Cu2   Cu    Cu3+1 0.330920 0.499990 0.500000 1.008156
H1    H     H_    0.491417 0.227512 0.334076 0.144914
H2    H     H_    0.636464 0.785259 0.967180 0.152947
H3    H     H_    0.700727 0.861329 0.877615 0.121027
H4    H     H_    0.475020 0.860485 0.896253 0.118383
H5    H     H_    0.498393 0.167868 0.910496 0.118238
H6    H     H_    0.723922 0.180149 0.891598 0.118133
H7    H     H_    0.651462 0.262014 0.978110 0.164847
H8    H     H_    0.501723 0.832154 0.089513 0.118245
H9    H     H_    0.348605 0.738047 0.021903 0.164844
H10   H     H_    0.276197 0.819924 0.108422 0.118127
H11   H     H_    0.548695 0.129095 0.777267 0.117589
H12   H     H_    0.337192 0.151845 0.261780 0.127487
H13   H     H_    0.422731 0.221263 0.700073 0.141734
H14   H     H_    0.654593 0.219196 0.700237 0.142523
H15   H     H_    0.451458 0.870923 0.222748 0.117589
H16   H     H_    0.345505 0.780847 0.299770 0.142509
H17   H     H_    0.577367 0.778714 0.299944 0.141752
H18   H     H_    0.565353 0.142394 0.248475 0.126278
H19   H     H_    0.508410 0.772487 0.665916 0.144924
H20   H     H_    0.434548 0.857615 0.751529 0.126288
H21   H     H_    0.662690 0.848185 0.738179 0.127479
H22   H     H_    0.363557 0.214801 0.032799 0.152956
H23   H     H_    0.524900 0.139522 0.103755 0.118376
H24   H     H_    0.299167 0.138755 0.122347 0.121034
N1    N     N_1   0.076820 0.499970 0.500010 -0.076284
N2    N     N_1   0.923180 0.500030 0.499990 -0.076285
N3    N     N_2   0.568658 0.525580 0.988991 -0.254731
N4    N     N_2   0.431371 0.474472 0.011007 -0.254731
O1    O     O_R   0.642760 0.288400 0.500000 -0.497568
O2    O     O_R   0.357240 0.711600 0.500000 -0.497574
O3    O     O_R   0.357190 0.288380 0.500000 -0.495951
O4    O     O_R   0.642810 0.711620 0.500000 -0.495949
O5    O     O_R   0.658410 0.498660 0.613920 -0.496639
O6    O     O_R   0.341590 0.501340 0.386080 -0.496640
O7    O     O_R   0.372840 0.498650 0.613930 -0.497774
O8    O     O_R   0.627160 0.501350 0.386070 -0.497772

loop_
_geom_bond_atom_site_label_1
_geom_bond_atom_site_label_2
_ccdc_geom_bond_type
C13   H20   S    
C2    C4    A    
N3    N4    D    
C19   H17   S    
C15   H3    S    
C17   H8    S    
C1    O1    A    
C16   H5    S    
C19   H15   S    
C7    C22   A    
C9    C10   T    
C3    N3    S    
C14   H23   S    
Cu2   N1    S    
C7    C18   S    
C12   O2    A    
C20   O7    A    
C1    O3    A    
Cu1   N2    S    
C15   H4    S    
C17   H9    S    
N1    N2    T    
C4    N4    S    
C21   O6    A    
C14   H22   S    
C10   C12   S    
C13   H21   S    
C20   C22   S    
C2    C25   A    
Cu2   O2    S    
Cu1   O4    S    
C21   C23   S    
C16   H7    S    
C11   H12   S    
C2    C14   S    
C22   C24   A    
Cu2   O3    S    
C8    C19   S    
Cu1   O8    S    
C11   C25   S    
C12   O4    A    
Cu2   O7    S    
C3    C5    A    
Cu1   Cu2   S    
C8    C23   A    
C1    C9    S    
C19   H16   S    
C11   H1    S    
C15   H2    S    
C4    C6    A    
C23   C25   A    
Cu1   O1    S    
C18   H13   S    
C17   H10   S    
C20   O5    A    
C5    C7    A    
C18   H11   S    
C15   C26   S    
C5    C16   S    
C6    C8    A    
Cu1   O5    S    
C18   H14   S    
C16   H6    S    
C13   H19   S    
C3    C26   A    
C14   H24   S    
C24   C26   A    
C13   C24   S    
C6    C17   S    
C11   H18   S    
C21   O8    A    
Cu2   O6    S    
