data_mof_unit_26666.cif
_audit_creation_date              2012-12-10T18:43:05-0500
_audit_creation_method            fapswitch 2.2
_symmetry_space_group_name_H-M    P1
_symmetry_Int_Tables_number       1
_space_group_crystal_system       triclinic
_cell_length_a                    18.170951
_cell_length_b                    18.1366
_cell_length_c                    18.043146
_cell_angle_alpha                 119.826128
_cell_angle_beta                  90.03324
_cell_angle_gamma                 59.685913
_cell_volume                      4196.8819634

loop_
_atom_site_label
_atom_site_type_symbol
_atom_type_description
_atom_site_fract_x
_atom_site_fract_y
_atom_site_fract_z
_atom_type_partial_charge
C1    C     C_R   0.891161 0.216891 0.608585 0.501412
C2    C     C_3   0.549550 0.896988 0.947893 0.022201
C3    C     C_3   0.772997 0.021167 0.978574 -0.454755
C4    C     C_3   0.408625 0.079217 0.179626 -0.260384
C5    C     C_3   0.417096 0.994550 0.186773 -0.283394
C6    C     C_3   0.396111 0.028887 0.284663 -0.452227
C7    C     C_3   0.591373 0.920783 0.820373 -0.260383
C8    C     C_3   0.582907 0.005450 0.813227 -0.283386
C9    C     C_3   0.603874 0.971122 0.715339 -0.452220
C10   C     C_3   0.189542 0.370881 0.472642 -0.246116
C11   C     C_3   0.214168 0.307247 0.512553 -0.308138
C12   C     C_3   0.309247 0.266334 0.518350 -0.447551
C13   C     C_3   0.455025 0.035235 0.082352 -0.021106
C14   C     C_3   0.810454 0.629121 0.527358 -0.246117
C15   C     C_3   0.785826 0.692755 0.487448 -0.308142
C16   C     C_3   0.690744 0.733672 0.481657 -0.447556
C17   C     C_3   0.049367 0.291192 0.419176 -0.238074
C18   C     C_3   0.121050 0.207057 0.324199 -0.321607
C19   C     C_3   0.156892 0.097685 0.296967 -0.443922
C20   C     C_3   0.950628 0.708811 0.580823 -0.238073
C21   C     C_3   0.878943 0.792947 0.675799 -0.321602
C22   C     C_3   0.843096 0.902320 0.703028 -0.443927
C23   C     C_3   0.980771 0.426845 0.322935 -0.245393
C24   C     C_3   0.544975 0.964764 0.917646 -0.021107
C25   C     C_3   0.908647 0.405488 0.309001 -0.302622
C26   C     C_3   0.921733 0.339808 0.208554 -0.439750
C27   C     C_3   0.019227 0.573160 0.677064 -0.245390
C28   C     C_3   0.091353 0.594513 0.690994 -0.302611
C29   C     C_3   0.078259 0.660212 0.791441 -0.439746
C30   C     C_3   0.025784 0.400739 0.458549 0.005303
C31   C     C_3   0.974213 0.599263 0.541450 0.005301
C32   C     C_3   0.087629 0.437393 0.489246 -0.003766
C33   C     C_3   0.912368 0.562609 0.510753 -0.003766
C34   C     C_3   0.049671 0.501978 0.449345 0.028255
C35   C     C_3   0.950326 0.498025 0.550655 0.028256
C36   C     C_3   0.987758 0.465414 0.418607 0.004640
C37   C     C_R   0.108839 0.783109 0.391415 0.501413
C38   C     C_3   0.012239 0.534588 0.581392 0.004639
C39   C     C_3   0.936754 0.035732 0.463748 -0.133579
C40   C     C_3   0.063247 0.964268 0.536252 -0.133575
C41   C     C_R   0.608151 0.782808 0.891189 0.501820
C42   C     C_R   0.391849 0.217192 0.108811 0.501820
C43   C     C_3   0.948884 0.965568 0.494717 -0.028719
C44   C     C_3   0.051118 0.034432 0.505284 -0.028718
C45   C     C_3   0.051685 0.897261 0.448029 0.032647
C46   C     C_3   0.948317 0.102739 0.551971 0.032647
C47   C     C_3   0.040239 0.966803 0.417555 0.000284
C48   C     C_3   0.551203 0.413706 0.413909 -0.144440
C49   C     C_3   0.959762 0.033197 0.582445 0.000287
C50   C     C_3   0.930393 0.507307 0.036298 -0.025078
C51   C     C_3   0.069605 0.492694 0.963704 -0.025080
C52   C     C_3   0.952460 0.587796 0.083833 -0.029731
C53   C     C_3   0.047538 0.412206 0.916168 -0.029734
C54   C     C_3   0.052820 0.498005 0.050387 0.011835
C55   C     C_3   0.947178 0.501996 0.949615 0.011834
C56   C     C_3   0.030832 0.416819 0.002764 -0.034582
C57   C     C_3   0.969167 0.583183 0.997237 -0.034581
C58   C     C_3   0.584392 0.449082 0.001167 -0.022646
C59   C     C_3   0.448797 0.586293 0.586091 -0.144441
C60   C     C_3   0.415608 0.550918 0.998833 -0.022647
C61   C     C_3   0.531831 0.400992 0.965862 -0.019682
C62   C     C_3   0.468169 0.599007 0.034138 -0.019683
C63   C     C_3   0.447789 0.499122 0.049956 0.010439
C64   C     C_3   0.552211 0.500878 0.950044 0.010439
C65   C     C_R   0.608724 0.501212 0.892860 0.505981
C66   C     C_R   0.391276 0.498788 0.107139 0.505982
C67   C     C_3   0.500318 0.547542 0.085625 -0.050329
C68   C     C_3   0.499682 0.452458 0.914374 -0.050329
C69   C     C_R   0.892742 0.498565 0.608262 0.484410
C70   C     C_3   0.445233 0.968720 0.992182 -0.012911
C71   C     C_R   0.107257 0.501436 0.391738 0.484411
C72   C     C_R   0.890582 0.500805 0.892215 0.514857
C73   C     C_R   0.109418 0.499195 0.107785 0.514858
C74   C     C_R   0.608550 0.500644 0.608455 0.516088
C75   C     C_R   0.391450 0.499356 0.391545 0.516089
C76   C     C_3   0.564790 0.501345 0.467711 -0.020496
C77   C     C_3   0.435210 0.498654 0.532288 -0.020496
C78   C     C_3   0.462868 0.585451 0.501033 -0.030349
C79   C     C_3   0.537131 0.414549 0.498967 -0.030349
C80   C     C_3   0.448475 0.499203 0.448620 0.019425
C81   C     C_3   0.554767 0.031279 0.007817 -0.012911
C82   C     C_3   0.551525 0.500796 0.551380 0.019424
C83   C     C_1   0.421818 0.678904 0.500900 0.198847
C84   C     C_1   0.578182 0.321095 0.499100 0.198848
C85   C     C_3   0.892905 0.922433 0.485035 -0.254749
C86   C     C_3   0.791604 0.010343 0.535277 -0.296617
C87   C     C_3   0.735269 0.966899 0.515223 -0.442701
C88   C     C_3   0.107097 0.077566 0.514963 -0.254753
C89   C     C_3   0.208400 0.989657 0.464740 -0.296617
C90   C     C_3   0.264733 0.033102 0.484776 -0.442717
C91   C     C_1   0.083910 0.930036 0.326387 0.206976
C92   C     C_3   0.441099 0.036587 0.962343 -0.007536
C93   C     C_1   0.916093 0.069964 0.673614 0.206975
C94   C     C_1   0.900799 0.682373 0.177074 0.198813
C95   C     C_1   0.099199 0.317627 0.822928 0.198815
C96   C     C_1   0.852815 0.517865 0.077063 0.207743
C97   C     C_1   0.147183 0.482137 0.922938 0.207743
C98   C     C_3   0.067952 0.321818 0.005985 -0.241038
C99   C     C_3   0.032335 0.257345 0.952804 -0.291739
C100  C     C_3   0.080097 0.156092 0.946697 -0.448125
C101  C     C_3   0.932048 0.678182 0.994014 -0.241035
C102  C     C_3   0.967655 0.742664 0.047207 -0.291739
C103  C     C_3   0.558901 0.963413 0.037656 -0.007536
C104  C     C_3   0.919909 0.843903 0.053293 -0.448132
C105  C     C_1   0.567554 0.292586 0.929858 0.213119
C106  C     C_1   0.432446 0.707413 0.070142 0.213121
C107  C     C_1   0.677300 0.391654 0.001182 0.241247
C108  C     C_1   0.322700 0.608345 0.998817 0.241247
C109  C     C_3   0.495855 0.600881 0.184980 -0.253896
C110  C     C_3   0.553003 0.643633 0.203814 -0.296069
C111  C     C_3   0.548984 0.693727 0.302609 -0.434569
C112  C     C_3   0.504144 0.399119 0.815020 -0.253896
C113  C     C_3   0.447000 0.356362 0.796185 -0.296075
C114  C     C_3   0.450450 0.103011 0.052106 0.022200
C115  C     C_3   0.451013 0.306275 0.697392 -0.434574
C116  C     C_1   0.636365 0.502073 0.431512 0.211506
C117  C     C_1   0.363635 0.497926 0.568487 0.211507
C118  C     C_1   0.376740 0.078516 0.921158 0.180590
C119  C     C_1   0.623260 0.921484 0.078841 0.180584
C120  C     C_3   0.384810 0.930219 0.978479 -0.231260
C121  C     C_3   0.284043 0.020234 0.030666 -0.312070
C122  C     C_3   0.227009 0.978825 0.021432 -0.454773
C123  C     C_3   0.615193 0.069777 0.021517 -0.231256
C124  C     C_3   0.715959 0.979759 0.969327 -0.312046
H1    H     H_    0.884688 0.066434 0.434866 0.131740
H2    H     H_    0.904793 0.871304 0.411702 0.173043
H3    H     H_    0.909240 0.783203 0.726312 0.160725
H4    H     H_    0.012599 0.706465 0.584762 0.168706
H5    H     H_    0.927436 0.729750 0.532959 0.134131
H6    H     H_    0.920056 0.379354 0.176682 0.168953
H7    H     H_    0.987384 0.261724 0.173399 0.133974
H8    H     H_    0.866551 0.329065 0.200759 0.177458
H9    H     H_    0.910670 0.364199 0.338962 0.181486
H10   H     H_    0.841006 0.480635 0.342246 0.195215
H11   H     H_    0.965263 0.485868 0.309689 0.147163
H12   H     H_    0.047868 0.354996 0.272715 0.165239
H13   H     H_    0.916551 0.874279 0.512222 0.142307
H14   H     H_    0.012611 0.738298 0.826585 0.133967
H15   H     H_    0.079925 0.620682 0.823328 0.168949
H16   H     H_    0.133444 0.670950 0.799233 0.177457
H17   H     H_    0.158993 0.519364 0.657759 0.195209
H18   H     H_    0.089340 0.635786 0.661019 0.181490
H19   H     H_    0.952130 0.645010 0.727284 0.165237
H20   H     H_    0.034732 0.514139 0.690313 0.147162
H21   H     H_    0.242966 0.089400 0.466677 0.138009
H22   H     H_    0.257440 0.073100 0.557826 0.191077
H23   H     H_    0.337176 0.968160 0.444430 0.144170
H24   H     H_    0.230642 0.935745 0.485831 0.186198
H25   H     H_    0.221454 0.944229 0.390523 0.175089
H26   H     H_    0.083461 0.125703 0.487760 0.142310
H27   H     H_    0.095197 0.128711 0.588297 0.173038
H28   H     H_    0.153504 0.106094 0.908586 0.173914
H29   H     H_    0.115313 0.933566 0.565134 0.131737
H30   H     H_    0.071098 0.173210 0.015520 0.143700
H31   H     H_    0.051048 0.112610 0.910682 0.165590
H32   H     H_    0.958609 0.303169 0.986928 0.195322
H33   H     H_    0.043344 0.237322 0.882981 0.196207
H34   H     H_    0.142899 0.272336 0.977434 0.193334
H35   H     H_    0.048352 0.349224 0.077800 0.158622
H36   H     H_    0.928942 0.826767 0.984465 0.143705
H37   H     H_    0.846496 0.893898 0.091375 0.173906
H38   H     H_    0.948941 0.887399 0.089328 0.165590
H39   H     H_    0.956621 0.762706 0.117035 0.196202
H40   H     H_    0.592534 0.343270 0.343274 0.133140
H41   H     H_    0.041385 0.696839 0.013103 0.195332
H42   H     H_    0.951658 0.650773 0.922200 0.158618
H43   H     H_    0.857101 0.727659 0.022556 0.193332
H44   H     H_    0.478213 0.759910 0.348477 0.163848
H45   H     H_    0.575434 0.635308 0.318873 0.179352
H46   H     H_    0.591050 0.723831 0.314378 0.155010
H47   H     H_    0.624419 0.579241 0.159734 0.208441
H48   H     H_    0.528130 0.703107 0.189048 0.178913
H49   H     H_    0.424097 0.665883 0.228560 0.152813
H50   H     H_    0.520203 0.543008 0.201730 0.167219
H51   H     H_    0.407465 0.656729 0.656726 0.133140
H52   H     H_    0.424557 0.364699 0.681134 0.179353
H53   H     H_    0.521783 0.240096 0.651521 0.163852
H54   H     H_    0.408951 0.276166 0.685623 0.155009
H55   H     H_    0.471880 0.296883 0.810946 0.178912
H56   H     H_    0.375585 0.420750 0.840269 0.208441
H57   H     H_    0.479792 0.456995 0.798272 0.167220
H58   H     H_    0.575902 0.334121 0.771439 0.152812
H59   H     H_    0.233408 0.931531 0.949236 0.162886
H60   H     H_    0.249006 0.929906 0.047785 0.181647
H61   H     H_    0.154839 0.045367 0.061209 0.137659
H62   H     H_    0.742538 0.926947 0.442176 0.191078
H63   H     H_    0.272657 0.071071 0.103635 0.163874
H64   H     H_    0.260192 0.069041 0.004255 0.180821
H65   H     H_    0.394825 0.884391 0.904946 0.163751
H66   H     H_    0.406851 0.877207 0.000417 0.182638
H67   H     H_    0.845165 0.954622 0.938783 0.137658
H68   H     H_    0.750996 0.070110 0.952242 0.181645
H69   H     H_    0.766610 0.068439 0.050773 0.162873
H70   H     H_    0.739808 0.930940 0.995728 0.180816
H71   H     H_    0.727344 0.928930 0.896354 0.163860
H72   H     H_    0.593152 0.122790 0.999580 0.182635
H73   H     H_    0.757055 0.910558 0.533278 0.138015
H74   H     H_    0.605181 0.115604 0.095049 0.163751
H75   H     H_    0.446563 0.040554 0.312912 0.161940
H76   H     H_    0.327435 0.102548 0.326151 0.147879
H77   H     H_    0.398776 0.967881 0.287600 0.160857
H78   H     H_    0.368569 0.978223 0.159523 0.183391
H79   H     H_    0.486369 0.920961 0.146852 0.193679
H80   H     H_    0.440823 0.113128 0.224069 0.150226
H81   H     H_    0.336093 0.143472 0.203271 0.137448
H82   H     H_    0.672542 0.897445 0.673834 0.147879
H83   H     H_    0.553401 0.959484 0.687108 0.161945
H84   H     H_    0.662828 0.031838 0.555596 0.144162
H85   H     H_    0.601224 0.032122 0.712402 0.160853
H86   H     H_    0.513639 0.079047 0.853162 0.193679
H87   H     H_    0.631447 0.021762 0.840464 0.183379
H88   H     H_    0.663904 0.856525 0.796724 0.137443
H89   H     H_    0.559171 0.886878 0.775931 0.150227
H90   H     H_    0.358954 0.224733 0.452037 0.158020
H91   H     H_    0.311171 0.331966 0.570489 0.181747
H92   H     H_    0.328780 0.211392 0.537817 0.146299
H93   H     H_    0.165778 0.354942 0.581319 0.168253
H94   H     H_    0.211344 0.239750 0.469021 0.153004
H95   H     H_    0.778560 0.055743 0.609494 0.175084
H96   H     H_    0.226968 0.316989 0.398645 0.126996
H97   H     H_    0.211154 0.423756 0.502245 0.175122
H98   H     H_    0.688815 0.668043 0.429524 0.181752
H99   H     H_    0.641040 0.775279 0.547974 0.158018
H100  H     H_    0.671211 0.788611 0.462186 0.146299
H101  H     H_    0.788653 0.760249 0.530977 0.153004
H102  H     H_    0.834212 0.645058 0.418680 0.168256
H103  H     H_    0.788842 0.576244 0.497757 0.175122
H104  H     H_    0.773029 0.683012 0.601356 0.126994
H105  H     H_    0.191610 0.082161 0.343252 0.152184
H106  H     H_    0.769353 0.064283 0.514215 0.186190
H107  H     H_    0.100488 0.089495 0.299108 0.179813
H108  H     H_    0.206192 0.038768 0.226958 0.164163
H109  H     H_    0.090755 0.216805 0.273688 0.160727
H110  H     H_    0.178446 0.213175 0.321156 0.162066
H111  H     H_    0.072559 0.270251 0.467039 0.134132
H112  H     H_    0.987395 0.293540 0.415237 0.168709
H113  H     H_    0.793801 0.961236 0.773039 0.164163
H114  H     H_    0.899497 0.910512 0.700880 0.179815
H115  H     H_    0.808371 0.917841 0.656745 0.152184
H116  H     H_    0.821550 0.786826 0.678843 0.162068
N1    N     N_1   0.389502 0.752445 0.500656 -0.332583
N2    N     N_1   0.403902 0.792988 0.098659 -0.361264
N3    N     N_1   0.750465 0.346313 0.001099 -0.271171
N4    N     N_1   0.249536 0.653685 0.998900 -0.271167
N5    N     N_1   0.692884 0.502283 0.402507 -0.365278
N6    N     N_1   0.307117 0.497714 0.597491 -0.365278
N7    N     N_1   0.326361 0.111320 0.888475 -0.325968
N8    N     N_1   0.673638 0.888681 0.111524 -0.325966
N9    N     N_1   0.610498 0.247555 0.499344 -0.332580
N10   N     N_1   0.118419 0.900841 0.254491 -0.295663
N11   N     N_1   0.881585 0.099160 0.745511 -0.295666
N12   N     N_1   0.860148 0.756800 0.250494 -0.332352
N13   N     N_1   0.139850 0.243199 0.749509 -0.332349
N14   N     N_1   0.791803 0.526184 0.109417 -0.317913
N15   N     N_1   0.208194 0.473819 0.890583 -0.317907
N16   N     N_1   0.596098 0.207012 0.901342 -0.361266
O1    O     O_3   0.750010 0.499980 0.749990 -0.441297
O2    O     O_R   0.305750 0.265450 0.132730 -0.545374
O3    O     O_R   0.867280 0.265410 0.571220 -0.549251
O4    O     O_R   0.132720 0.734590 0.428780 -0.549251
O5    O     O_R   0.571230 0.734580 0.867270 -0.555541
O6    O     O_R   0.428770 0.265420 0.132730 -0.555540
O7    O     O_R   0.694200 0.438470 0.867270 -0.526113
O8    O     O_R   0.305800 0.561530 0.132730 -0.526114
O9    O     O_R   0.867340 0.561470 0.694210 -0.564955
O10   O     O_R   0.132660 0.438530 0.305790 -0.564956
O11   O     O_R   0.867310 0.438430 0.867270 -0.528493
O12   O     O_3   0.249990 0.500020 0.250010 -0.441297
O13   O     O_R   0.132690 0.561570 0.132730 -0.528494
O14   O     O_R   0.694200 0.438520 0.571220 -0.531116
O15   O     O_R   0.305800 0.561480 0.428780 -0.531116
O16   O     O_R   0.867340 0.561440 0.867270 -0.558133
O17   O     O_R   0.132660 0.438560 0.132730 -0.558134
O18   O     O_R   0.571190 0.561530 0.694210 -0.550548
O19   O     O_R   0.428810 0.438470 0.305790 -0.550548
O20   O     O_R   0.571190 0.561490 0.867270 -0.542228
O21   O     O_R   0.428810 0.438510 0.132730 -0.542229
O22   O     O_R   0.867310 0.438490 0.571220 -0.556176
O23   O     O_R   0.132690 0.561510 0.428780 -0.556177
O24   O     O_R   0.867280 0.265380 0.694210 -0.530630
O25   O     O_R   0.132720 0.734620 0.305790 -0.530630
O26   O     O_R   0.694250 0.734550 0.867270 -0.545374
Zn1   Zn    Zn3+2 0.618190 0.587870 0.793920 0.930444
Zn2   Zn    Zn3+2 0.381810 0.412130 0.206080 0.930445
Zn3   Zn    Zn3+2 0.793940 0.412090 0.793920 0.971928
Zn4   Zn    Zn3+2 0.206060 0.587910 0.206080 0.971927
Zn5   Zn    Zn3+2 0.793970 0.587840 0.793920 0.907663
Zn6   Zn    Zn3+2 0.206030 0.412160 0.206080 0.907663
Zn7   Zn    Zn3+2 0.793940 0.412130 0.618200 0.928853
Zn8   Zn    Zn3+2 0.206060 0.587870 0.381800 0.928852

loop_
_geom_bond_atom_site_label_1
_geom_bond_atom_site_label_2
_ccdc_geom_bond_type
C51   C97   S    
C89   H24   S    
C6    H76   S    
C28   H17   S    
C73   O17   A    
C101  C102  S    
C39   H1    S    
C14   C33   S    
C85   H13   S    
C109  C110  S    
C53   C95   S    
C48   C76   S    
C123  H74   S    
C16   H98   S    
C61   C68   S    
C37   O4    A    
C12   H90   S    
C20   H5    S    
C42   O6    A    
C50   C96   S    
C59   C77   S    
O14   Zn7   S    
C7    H88   S    
C74   O14   A    
C18   H109  S    
O1    Zn7   S    
C123  C124  S    
C85   C86   S    
C100  H28   S    
O16   Zn5   S    
C29   H14   S    
C46   C49   S    
C49   C93   S    
C3    H69   S    
C23   H12   S    
C81   C123  S    
C60   C63   S    
O7    Zn3   S    
C5    C6    S    
C64   C68   S    
C48   C79   S    
O2    Zn6   S    
C28   C29   S    
C76   C78   S    
C26   H6    S    
C20   H4    S    
C90   H21   S    
C59   H51   S    
C9    H82   S    
C69   O9    A    
C79   C84   S    
C109  H49   S    
C1    C46   S    
C17   H112  S    
C13   C70   S    
O3    Zn7   S    
C27   C38   S    
C57   C101  S    
C7    C24   S    
O1    Zn5   S    
C33   C36   S    
C66   O21   A    
C60   C62   S    
C58   C107  S    
C68   C112  S    
C4    C13   S    
C101  H43   S    
C92   C118  S    
O24   Zn3   S    
C62   C64   S    
C90   H22   S    
C10   H97   S    
C33   C35   S    
C104  H36   S    
O5    Zn1   S    
C78   C83   S    
C67   C109  S    
O6    Zn2   S    
C98   H34   S    
C70   C120  S    
C102  H39   S    
C92   C114  S    
C81   C114  S    
C101  H42   S    
C50   C52   S    
C31   C33   S    
C52   C94   S    
C51   C57   S    
C32   C38   S    
C13   C103  S    
C8    H87   S    
C61   C105  S    
C19   H108  S    
C11   H93   S    
O15   Zn8   S    
C34   C36   S    
C55   C72   S    
C60   C108  S    
C44   C47   S    
C22   H114  S    
C97   N15   T    
C22   H113  S    
O12   Zn4   S    
C110  H47   S    
C58   C61   S    
C45   C47   S    
C60   C68   S    
C63   C66   S    
C70   C92   S    
O26   Zn5   S    
C93   N11   T    
C21   C22   S    
O12   Zn6   S    
C59   C82   S    
C17   C30   S    
C107  N3    T    
C85   H2    S    
C65   O7    A    
C88   H26   S    
C106  N2    T    
C66   O8    A    
C24   C92   S    
C59   C78   S    
C112  C113  S    
C4    H80   S    
C52   C54   S    
C27   H20   S    
C87   H62   S    
O4    Zn8   S    
C77   C79   S    
C58   C64   S    
C40   C45   S    
C29   H15   S    
C63   C67   S    
C89   H25   S    
C42   C114  S    
C15   H102  S    
C10   H96   S    
C86   H106  S    
C91   N10   T    
O13   Zn4   S    
C4    H81   S    
C35   C38   S    
C1    O24   A    
C41   O26   A    
C9    H83   S    
C17   H111  S    
C76   C82   S    
C5    H78   S    
C109  H50   S    
C18   C19   S    
C122  H61   S    
C39   C43   S    
C44   C46   S    
C124  H70   S    
C25   C26   S    
C117  N6    T    
C74   O18   A    
C72   O11   A    
C50   C56   S    
C110  C111  S    
O12   Zn8   S    
C111  H45   S    
C81   C103  S    
C24   C81   S    
C14   H104  S    
C90   H23   S    
O19   Zn2   S    
C71   O23   A    
C120  H66   S    
C121  H63   S    
C54   C73   S    
C43   C45   S    
C21   H116  S    
C27   H19   S    
C99   C100  S    
C14   C15   S    
O23   Zn8   S    
C99   H32   S    
C108  N4    T    
O1    Zn3   S    
C17   C18   S    
C8    C9    S    
C31   C34   S    
C55   C57   S    
C115  H53   S    
C56   C98   S    
C88   C89   S    
C26   H8    S    
C102  C104  S    
C25   H10   S    
C19   H105  S    
C11   H94   S    
O11   Zn3   S    
C121  C122  S    
C7    H89   S    
C6    H77   S    
C39   C46   S    
C62   C106  S    
C62   C67   S    
C100  H31   S    
C122  H59   S    
C113  H55   S    
O21   Zn2   S    
C15   H101  S    
C23   C36   S    
C43   C85   S    
C10   C11   S    
C99   H33   S    
C2    C24   S    
C88   H27   S    
C40   H29   S    
C8    H86   S    
C28   H18   S    
C12   H92   S    
C16   H100  S    
C37   C45   S    
C104  H38   S    
C37   O25   A    
C104  H37   S    
C25   H9    S    
C3    C124  S    
C86   C87   S    
C39   C47   S    
C22   H115  S    
C75   C80   S    
C53   C56   S    
C100  H30   S    
O25   Zn4   S    
O22   Zn7   S    
C95   N13   T    
C29   H16   S    
C75   O19   A    
C84   N9    T    
C118  N7    T    
C53   C55   S    
C47   C91   S    
C77   C80   S    
C61   C63   S    
C103  C119  S    
O18   Zn1   S    
C13   C114  S    
C4    C5    S    
C94   N12   T    
C5    H79   S    
C79   C82   S    
C112  H58   S    
C11   C12   S    
C18   H110  S    
C54   C56   S    
C112  H57   S    
C48   H40   S    
O20   Zn1   S    
C30   C36   S    
C71   O10   A    
C30   C35   S    
C83   N1    T    
C77   C117  S    
C50   C55   S    
C105  N16   T    
C31   C38   S    
C23   H11   S    
C51   C54   S    
O8    Zn4   S    
C64   C65   S    
C111  H46   S    
C41   O5    A    
C98   H35   S    
C96   N14   T    
C14   H103  S    
C42   O2    A    
C44   C88   S    
C120  H65   S    
C121  H64   S    
C30   C32   S    
O12   Zn2   S    
C115  H52   S    
C48   C80   S    
C40   C49   S    
C6    H75   S    
C75   O15   A    
C3    H68   S    
C119  N8    T    
C65   O20   A    
C69   O22   A    
C124  H71   S    
C122  H60   S    
C102  H41   S    
C76   C116  S    
C21   H3    S    
C78   C80   S    
C86   H95   S    
C23   C25   S    
C43   C49   S    
C3    H67   S    
C123  H72   S    
C2    C103  S    
C87   H84   S    
C115  H54   S    
C7    C8    S    
C52   C57   S    
O9    Zn5   S    
C51   C53   S    
O10   Zn6   S    
C10   C32   S    
C58   C67   S    
C40   C44   S    
C113  H56   S    
C116  N5    T    
C35   C69   S    
C20   C21   S    
C98   C99   S    
C9    H85   S    
C27   C28   S    
O1    Zn1   S    
O17   Zn6   S    
C87   H73   S    
C120  C121  S    
C16   H99   S    
C73   O13   A    
C111  H44   S    
C2    C41   S    
C12   H91   S    
C113  C115  S    
C89   C90   S    
C2    C70   S    
C19   H107  S    
C34   C71   S    
C72   O16   A    
C74   C82   S    
C26   H7    S    
C15   C16   S    
C32   C34   S    
C1    O3    A    
C20   C31   S    
C110  H48   S    
