data_mof_unit_15444.cif
_audit_creation_date              2012-12-10T19:23:56-0500
_audit_creation_method            fapswitch 2.2
_symmetry_space_group_name_H-M    P1
_symmetry_Int_Tables_number       1
_space_group_crystal_system       triclinic
_cell_length_a                    17.808061
_cell_length_b                    16.378771
_cell_length_c                    10.961623
_cell_angle_alpha                 89.367594
_cell_angle_beta                  90.745219
_cell_angle_gamma                 89.803232
_cell_volume                      3196.73646888

loop_
_atom_site_label
_atom_site_type_symbol
_atom_type_description
_atom_site_fract_x
_atom_site_fract_y
_atom_site_fract_z
_atom_type_partial_charge
C1    C     C_R   0.354953 0.500345 0.505616 0.800669
C2    C     C_R   0.645313 0.500035 0.495789 0.805017
C3    C     C_R   0.729214 0.499130 0.482975 -0.182853
C4    C     C_R   0.271155 0.500251 0.512691 -0.169318
C5    C     C_R   0.764552 0.431693 0.424143 0.050474
C6    C     C_R   0.233346 0.432432 0.566548 0.009677
C7    C     C_R   0.843238 0.425059 0.424155 0.126679
C8    C     C_R   0.154572 0.425950 0.550801 0.138181
C9    C     C_R   0.887471 0.487178 0.472964 0.005881
C10   C     C_R   0.115455 0.483422 0.478696 0.044172
C11   C     C_1   0.967822 0.478900 0.470961 -0.059805
C12   C     C_1   0.035088 0.477687 0.472184 0.003513
C13   C     C_R   0.532921 0.827843 0.600615 -0.018444
C14   C     C_R   0.460407 0.830136 0.410260 -0.005435
C15   C     C_R   0.534410 0.741360 0.593501 0.049738
C16   C     C_R   0.463149 0.743955 0.410201 -0.016019
C17   C     C_R   0.496766 0.873096 0.505573 0.074345
C18   C     C_1   0.497417 0.963098 0.505355 -0.058001
C19   C     C_1   0.498019 0.037656 0.504491 -0.056385
C20   C     C_R   0.504451 0.500609 0.261440 0.816125
C21   C     C_R   0.494714 0.499485 0.737711 0.827994
C22   C     C_R   0.541610 0.170547 0.588399 -0.287503
C23   C     C_R   0.456330 0.171552 0.416212 -0.278776
C24   C     C_R   0.541495 0.256491 0.585317 0.073002
C25   C     C_R   0.457610 0.257487 0.416468 0.048047
C26   C     C_R   0.498719 0.127070 0.502971 0.149230
C27   C     C_R   0.502424 0.655110 0.107701 -0.150539
C28   C     C_R   0.436435 0.638137 0.878995 -0.148278
C29   C     C_R   0.473575 0.723293 0.045701 -0.179071
C30   C     C_R   0.435953 0.713830 0.935169 -0.161014
C31   C     C_R   0.472857 0.570232 0.935179 0.044746
C32   C     C_R   0.494551 0.575665 0.058837 0.075332
C33   C     C_R   0.507902 0.501975 0.126647 -0.211275
C34   C     C_R   0.489773 0.498113 0.871231 -0.195069
C35   C     C_R   0.516444 0.427516 0.062647 0.091256
C36   C     C_R   0.510837 0.426728 0.936133 0.162151
C37   C     C_R   0.854877 0.558962 0.518582 0.068810
C38   C     C_R   0.151555 0.553073 0.430860 0.045903
C39   C     C_R   0.775216 0.564841 0.526862 0.033501
C40   C     C_R   0.227733 0.566703 0.463516 0.042222
Cu1   Cu    Cu3+1 0.500000 0.580420 0.500000 0.908462
Cu2   Cu    Cu3+1 0.500000 0.419580 0.500000 0.924689
H1    H     H_    0.575071 0.138381 0.656840 0.132866
H2    H     H_    0.422126 0.140166 0.349232 0.134062
H3    H     H_    0.574988 0.289371 0.651258 0.132679
H4    H     H_    0.423657 0.291131 0.350632 0.110250
H5    H     H_    0.534345 0.666972 0.189705 0.157365
H6    H     H_    0.408058 0.633541 0.791785 0.147605
H7    H     H_    0.480780 0.783564 0.083056 0.131350
H8    H     H_    0.410570 0.766107 0.889298 0.137162
H9    H     H_    0.562848 0.705208 0.662752 0.136635
H10   H     H_    0.434313 0.710759 0.339045 0.134443
N1    N     N_R   0.500000 0.701220 0.500000 -0.193967
N2    N     N_R   0.500000 0.298780 0.500000 -0.161812
O1    O     O_R   0.391260 0.567930 0.500000 -0.582675
O2    O     O_R   0.608740 0.567930 0.500000 -0.588086
O3    O     O_R   0.391280 0.432120 0.500000 -0.577129
O4    O     O_R   0.608720 0.432120 0.500000 -0.581739
O5    O     O_R   0.500000 0.567920 0.319650 -0.597366
O6    O     O_R   0.500000 0.567920 0.680350 -0.606274
O7    O     O_R   0.500030 0.432100 0.319660 -0.594926
O8    O     O_R   0.499970 0.432100 0.680340 -0.553507
N3    N     N_3   0.534278 0.351173 0.121853 -0.614896
H11   H     H_    0.581500 0.357842 0.177831 0.229341
H12   H     H_    0.487925 0.330138 0.170031 0.236678
N4    N     N_3   0.526078 0.351859 0.873677 -0.575973
H13   H     H_    0.488570 0.307153 0.903612 0.227894
H14   H     H_    0.580842 0.332897 0.895241 0.224122
C41   C     C_3   0.906773 0.629240 0.555306 -0.400237
C42   C     C_3   0.935504 0.618465 0.687125 -0.334200
C43   C     C_3   0.991987 0.684713 0.720395 -0.863602
H15   H     H_    0.965542 0.746044 0.711370 0.252178
H16   H     H_    0.011409 0.675676 0.816294 0.242751
H17   H     H_    0.041493 0.681531 0.659899 0.252384
H18   H     H_    0.887673 0.621126 0.751026 0.208245
H19   H     H_    0.963251 0.557964 0.698847 0.230506
H20   H     H_    0.955205 0.632817 0.492693 0.191577
H21   H     H_    0.879937 0.689831 0.542824 0.202621
C44   C     C_3   0.108620 0.612764 0.346724 -0.415440
C45   C     C_3   0.145317 0.619081 0.220809 -0.338553
C46   C     C_3   0.103318 0.679583 0.137653 -0.865021
H22   H     H_    0.044207 0.659912 0.123817 0.251870
H23   H     H_    0.104056 0.741458 0.178139 0.253554
H24   H     H_    0.130933 0.682553 0.047466 0.241880
H25   H     H_    0.204635 0.639055 0.229228 0.216822
H26   H     H_    0.144871 0.558034 0.177427 0.219089
H27   H     H_    0.049869 0.593428 0.330050 0.199059
H28   H     H_    0.103548 0.673459 0.389838 0.187215
C47   C     C_3   0.741432 0.644084 0.574154 -0.368245
C48   C     C_3   0.728637 0.705118 0.467399 -0.321817
C49   C     C_3   0.732633 0.793659 0.508245 -0.889233
H29   H     H_    0.689437 0.805638 0.576948 0.265453
H30   H     H_    0.788888 0.807243 0.547762 0.248872
H31   H     H_    0.722342 0.834941 0.428699 0.246457
H32   H     H_    0.771926 0.696600 0.396351 0.210863
H33   H     H_    0.673084 0.694374 0.423531 0.239415
H34   H     H_    0.689724 0.634236 0.626945 0.190486
H35   H     H_    0.778248 0.670847 0.645325 0.188188
C50   C     C_3   0.257173 0.654325 0.468395 -0.373937
C51   C     C_3   0.265397 0.680393 0.602418 -0.313141
C52   C     C_3   0.292035 0.768275 0.614538 -0.881579
H36   H     H_    0.347991 0.775636 0.573142 0.270099
H37   H     H_    0.251273 0.810829 0.569832 0.245205
H38   H     H_    0.296747 0.783968 0.712617 0.237838
H39   H     H_    0.210068 0.674701 0.647633 0.209366
H40   H     H_    0.305573 0.639779 0.652024 0.219012
H41   H     H_    0.309698 0.661776 0.416901 0.208589
H42   H     H_    0.219077 0.699003 0.423614 0.187948
C53   C     C_3   0.721040 0.369217 0.349801 -0.334188
C54   C     C_3   0.713137 0.287884 0.419485 -0.300332
C55   C     C_3   0.668973 0.225899 0.344729 -0.843782
H43   H     H_    0.611370 0.248838 0.325131 0.266886
H44   H     H_    0.697656 0.213948 0.257312 0.248596
H45   H     H_    0.664936 0.167588 0.396806 0.244582
H46   H     H_    0.769370 0.261614 0.440955 0.228387
H47   H     H_    0.684558 0.297955 0.507283 0.221327
H48   H     H_    0.665739 0.393239 0.320027 0.183111
H49   H     H_    0.750424 0.358280 0.262531 0.198369
C56   C     C_3   0.274323 0.375316 0.656455 -0.368712
C57   C     C_3   0.293615 0.292126 0.601236 -0.307332
C58   C     C_3   0.345246 0.242844 0.686696 -0.828235
H50   H     H_    0.398287 0.276436 0.703981 0.273865
H51   H     H_    0.317124 0.231092 0.774989 0.238077
H52   H     H_    0.358869 0.183338 0.644657 0.244648
H53   H     H_    0.242277 0.255817 0.584982 0.193423
H54   H     H_    0.321129 0.300532 0.512009 0.234917
H55   H     H_    0.326223 0.404612 0.691905 0.197392
H56   H     H_    0.240507 0.365776 0.739587 0.173455
N5    N     N_3   0.878167 0.355283 0.369612 -0.613940
H57   H     H_    0.912219 0.375406 0.298412 0.220673
H58   H     H_    0.911931 0.325869 0.435449 0.227531
N6    N     N_3   0.112078 0.362478 0.609376 -0.602296
H59   H     H_    0.129263 0.305586 0.578410 0.214871
H60   H     H_    0.118565 0.365931 0.703968 0.213410
C59   C     C_3   0.567902 0.873432 0.707788 -0.422862
C60   C     C_3   0.603984 0.820163 0.809274 -0.378744
C61   C     C_3   0.632145 0.872172 0.914926 -0.841761
H61   H     H_    0.675092 0.916161 0.882716 0.252905
H62   H     H_    0.584768 0.906187 0.955728 0.248521
H63   H     H_    0.657923 0.832110 0.986454 0.241271
H64   H     H_    0.562248 0.776491 0.845039 0.239291
H65   H     H_    0.652106 0.784971 0.773412 0.211991
H66   H     H_    0.611334 0.915684 0.672011 0.207476
H67   H     H_    0.523072 0.911112 0.749270 0.210451
C62   C     C_3   0.417669 0.874578 0.309229 -0.417240
C63   C     C_3   0.341849 0.906585 0.353524 -0.331276
C64   C     C_3   0.302920 0.958974 0.255525 -0.864764
H68   H     H_    0.337667 0.013239 0.233453 0.250004
H69   H     H_    0.293403 0.922942 0.171485 0.254072
H70   H     H_    0.247760 0.980202 0.289313 0.239789
H71   H     H_    0.305109 0.853957 0.375714 0.217188
H72   H     H_    0.349315 0.943701 0.436966 0.229090
H73   H     H_    0.452471 0.925402 0.273149 0.208111
H74   H     H_    0.406308 0.832824 0.232240 0.183114

loop_
_geom_bond_atom_site_label_1
_geom_bond_atom_site_label_2
_ccdc_geom_bond_type
C45   H25   S    
N4    H14   S    
N3    H12   S    
C52   H36   S    
C37   C41   S    
C27   C29   A    
Cu1   Cu2   S    
C41   H20   S    
C64   H68   S    
Cu2   O4    S    
C40   C50   S    
C44   H27   S    
C62   C63   S    
C53   H48   S    
C48   H32   S    
C29   H7    S    
C50   H42   S    
C61   H62   S    
C14   C62   S    
C51   H39   S    
C60   H64   S    
C24   H3    S    
C15   N1    A    
C64   H69   S    
C63   C64   S    
C36   N4    S    
C38   C44   S    
C24   N2    A    
C18   C19   T    
C23   C26   A    
C20   O7    A    
C19   C26   S    
C54   C55   S    
Cu1   O1    S    
C58   H52   S    
C60   H65   S    
C16   N1    A    
C4    C40   A    
N6    H59   S    
C8    N6    S    
C45   H26   S    
C42   C43   S    
C14   C16   A    
C15   H9    S    
Cu2   O8    S    
C62   H73   S    
C56   H56   S    
C59   H66   S    
N4    H13   S    
C30   H8    S    
C3    C39   A    
C52   H37   S    
C13   C59   S    
C14   C17   A    
C41   H21   S    
Cu2   O3    S    
C44   H28   S    
C46   H23   S    
C53   H49   S    
C46   H22   S    
C61   H63   S    
C7    N5    S    
C59   C60   S    
C64   H70   S    
C25   N2    A    
Cu1   O5    S    
C21   O6    A    
C4    C6    A    
C49   H29   S    
C5    C7    A    
C57   H53   S    
C45   C46   S    
C6    C8    A    
C21   C34   S    
N3    H11   S    
C23   H2    S    
C44   C45   S    
C47   H34   S    
C35   C36   A    
Cu1   O2    S    
C29   C30   A    
C1    O3    A    
C49   H30   S    
C31   C32   A    
C56   C57   S    
C9    C37   A    
C17   C18   S    
C21   O8    A    
C31   C34   A    
C55   H44   S    
C20   O5    A    
C9    C11   S    
Cu2   O7    S    
Cu1   N1    S    
C58   H50   S    
C57   H54   S    
C10   C12   S    
C63   H72   S    
C62   H74   S    
C8    C10   A    
C59   H67   S    
C52   H38   S    
C13   C15   A    
C42   H19   S    
C22   C24   A    
C20   C33   S    
C54   H47   S    
C6    C56   S    
C46   H24   S    
C57   C58   S    
C43   H16   S    
N5    H57   S    
C27   H5    S    
C7    C9    A    
C28   H6    S    
C55   H43   S    
C27   C32   A    
C28   C31   A    
C16   H10   S    
Cu1   O6    S    
C60   C61   S    
C3    C5    A    
C43   H17   S    
C11   C12   T    
C2    O4    A    
C48   H33   S    
C50   H41   S    
C61   H61   S    
C51   H40   S    
C50   C51   S    
C13   C17   A    
C47   H35   S    
C10   C38   A    
C1    C4    S    
C32   C33   A    
C28   C30   A    
C2    C3    S    
C1    O1    A    
C43   H15   S    
C37   C39   A    
C2    O2    A    
C53   C54   S    
Cu2   N2    S    
C49   H31   S    
C38   C40   A    
C48   C49   S    
C5    C53   S    
C25   H4    S    
C51   C52   S    
C33   C35   A    
C55   H45   S    
C34   C36   A    
C23   C25   A    
C41   C42   S    
C58   H51   S    
C63   H71   S    
N6    H60   S    
C22   C26   A    
C42   H18   S    
C35   N3    S    
C47   C48   S    
C54   H46   S    
C39   C47   S    
C22   H1    S    
N5    H58   S    
C56   H55   S    
