data_mof_unit_6452.cif
_audit_creation_date              2012-12-11T17:33:17-0500
_audit_creation_method            fapswitch 2.2
_symmetry_space_group_name_H-M    P1
_symmetry_Int_Tables_number       1
_space_group_crystal_system       triclinic
_cell_length_a                    6.932555
_cell_length_b                    21.750297
_cell_length_c                    22.291673
_cell_angle_alpha                 107.297131
_cell_angle_beta                  90.218306
_cell_angle_gamma                 90.383621
_cell_volume                      3209.11130582

loop_
_atom_site_label
_atom_site_type_symbol
_atom_type_description
_atom_site_fract_x
_atom_site_fract_y
_atom_site_fract_z
_atom_type_partial_charge
O1    O     O_R   0.505730 0.449200 0.552060 -0.533852
O2    O     O_R   0.171560 0.427840 0.423150 -0.536770
O3    O     O_R   0.005630 0.550800 0.447940 -0.533640
C1    C     C_R   0.339636 0.407816 0.400593 0.776576
O4    O     O_R   0.175730 0.441570 0.550050 -0.551762
O5    O     O_R   0.009820 0.564620 0.575740 -0.517625
C2    C     C_R   0.344651 0.428269 0.568625 0.721126
O6    O     O_R   0.501530 0.435380 0.424260 -0.519278
O7    O     O_3   0.340640 0.540360 0.508280 -0.346343
V1    V     V_3+5 0.064080 0.492510 0.498460 1.591690
O8    O     O_R   0.680360 0.572160 0.576850 -0.535675
C3    C     C_R   0.849323 0.591871 0.599901 0.770592
O9    O     O_R   0.676190 0.558430 0.449950 -0.550427
C4    C     C_R   0.845171 0.571810 0.431432 0.724970
V2    V     V_3+5 0.564610 0.507490 0.501540 1.595275
O10   O     O_3   0.837920 0.459640 0.491720 -0.347897
C5    C     C_R   0.072269 0.804147 0.152331 -0.098449
H1    H     H_    0.186197 0.770174 0.151742 0.168982
C6    C     C_R   0.085826 0.843389 0.112691 -0.118528
H2    H     H_    0.210555 0.839027 0.082648 0.129826
C7    C     C_R   0.938472 0.886931 0.111107 -0.114112
C8    C     C_R   0.778377 0.890839 0.150736 -0.266092
H3    H     H_    0.664683 0.924613 0.150452 0.149549
C9    C     C_R   0.765776 0.852739 0.191783 0.448833
C10   C     C_R   0.913997 0.808675 0.192431 -0.013261
C11   C     C_1   0.905855 0.767946 0.233716 0.118595
C12   C     C_1   0.896094 0.734247 0.268325 0.032690
C13   C     C_R   0.050114 0.670101 0.329977 -0.121878
H4    H     H_    0.190605 0.681672 0.314938 0.125669
C14   C     C_R   0.037683 0.630822 0.369617 -0.113046
H5    H     H_    0.169965 0.613044 0.384139 0.125741
C15   C     C_R   0.857191 0.614545 0.389970 -0.042208
C16   C     C_R   0.689638 0.639096 0.369678 -0.160314
C17   C     C_R   0.702524 0.678434 0.329979 -0.089817
H6    H     H_    0.571634 0.696586 0.314900 0.146274
C18   C     C_R   0.882773 0.694010 0.309785 0.100979
C19   C     C_R   0.852321 0.648763 0.657610 -0.164572
C20   C     C_R   0.947705 0.856906 0.838316 -0.055842
C21   C     C_R   0.125242 0.799064 0.744332 -0.125256
C22   C     C_R   0.109369 0.850459 0.799125 -0.180574
C23   C     C_R   0.802702 0.809324 0.821906 -0.204938
C24   C     C_R   0.820018 0.756224 0.767078 0.113260
C25   C     C_R   0.978541 0.752059 0.725881 0.014606
C26   C     C_R   0.986925 0.700842 0.668188 0.319142
C27   C     C_R   0.702188 0.653052 0.701027 -0.169598
C28   C     C_R   0.682874 0.706605 0.753701 -0.161690
H7    H     H_    0.595291 0.614880 0.693424 0.141181
H8    H     H_    0.257825 0.795488 0.718318 0.203784
H9    H     H_    0.562057 0.708457 0.784888 0.122951
C29   C     C_R   0.341222 0.351241 0.342923 -0.158409
C30   C     C_R   0.454104 0.148325 0.157675 -0.185677
C31   C     C_R   0.617535 0.203888 0.255933 -0.100441
C32   C     C_R   0.604017 0.152678 0.201134 -0.180773
C33   C     C_R   0.318601 0.199396 0.168991 0.350998
C34   C     C_R   0.321377 0.248354 0.228495 -0.005987
C35   C     C_R   0.472864 0.250792 0.272564 -0.036146
C36   C     C_R   0.476476 0.300101 0.331851 0.341693
C37   C     C_R   0.190000 0.346363 0.299840 -0.198036
C38   C     C_R   0.175635 0.294826 0.245438 -0.068138
H10   H     H_    0.078158 0.382503 0.308848 0.152155
H11   H     H_    0.744666 0.206135 0.284607 0.210832
H12   H     H_    0.046696 0.291965 0.217468 0.201935
H13   H     H_    0.715228 0.116326 0.192159 0.158743
C39   C     C_R   0.596651 0.177249 0.828918 -0.115925
H14   H     H_    0.728058 0.195258 0.813778 0.110225
C40   C     C_R   0.608542 0.138098 0.868805 -0.158354
H15   H     H_    0.749580 0.126794 0.883479 0.129967
C41   C     C_R   0.440272 0.113711 0.889166 -0.060663
C42   C     C_R   0.260130 0.129919 0.868677 -0.113779
H16   H     H_    0.127345 0.112248 0.883238 0.131929
C43   C     C_R   0.248691 0.169024 0.828880 -0.125131
H17   H     H_    0.108395 0.180556 0.813754 0.108575
C44   C     C_R   0.416681 0.192818 0.808639 0.125368
C45   C     C_1   0.403839 0.232879 0.767000 -0.039795
C46   C     C_1   0.392375 0.266293 0.732171 -0.039889
C47   C     C_R   0.547443 0.329761 0.669894 -0.127988
H18   H     H_    0.687809 0.317879 0.684663 0.108008
C48   C     C_R   0.535911 0.368931 0.630157 -0.117697
C49   C     C_R   0.355673 0.385614 0.610152 -0.043362
C50   C     C_R   0.187404 0.361597 0.630900 -0.154923
H19   H     H_    0.046292 0.373282 0.616616 0.125417
C51   C     C_R   0.199391 0.322381 0.670721 -0.118625
H20   H     H_    0.067985 0.304689 0.686187 0.110841
C52   C     C_R   0.379455 0.306368 0.690546 0.124766
O11   O     O_R   0.294110 0.064720 0.075690 -0.501501
O12   O     O_R   0.619980 0.058360 0.949870 -0.544341
O13   O     O_R   0.785810 0.935300 0.924300 -0.546594
C53   C     C_R   0.451182 0.071252 0.930892 0.722584
O14   O     O_R   0.624080 0.072230 0.076800 -0.528043
O15   O     O_R   0.789930 0.949270 0.052130 -0.546791
C54   C     C_R   0.456012 0.092088 0.099597 0.785684
O16   O     O_R   0.289980 0.050750 0.947860 -0.520467
O17   O     O_3   0.454970 0.959660 0.991750 -0.388942
V3    V     V_3+5 0.731560 0.007480 0.001530 1.505554
O18   O     O_R   0.119360 0.941610 0.050140 -0.544457
C55   C     C_R   0.950385 0.928493 0.068747 0.704446
O19   O     O_R   0.115260 0.927740 0.923220 -0.552592
C56   C     C_R   0.947085 0.909878 0.898772 0.668104
V4    V     V_3+5 0.231020 0.992470 0.998490 1.498954
O20   O     O_3   0.957740 0.040330 0.008250 -0.322441
H21   H     H_    0.226679 0.885201 0.811307 0.129393
H22   H     H_    0.680801 0.812241 0.852926 0.112440
S1    S     S_3+6 0.630250 0.292593 0.393960 0.004405
O21   O     O_2   0.825113 0.320379 0.387290 -0.322153
O22   O     O_2   0.550442 0.327144 0.457447 -0.341583
O23   O     O_3   0.656006 0.214864 0.390956 -0.484091
H23   H     H_    0.523101 0.199050 0.393925 0.347335
S2    S     S_3+6 0.166433 0.206999 0.106578 0.003410
O24   O     O_2   0.976471 0.174459 0.109596 -0.320352
O25   O     O_2   0.131147 0.276461 0.111501 -0.337189
O26   O     O_3   0.266471 0.173143 0.036194 -0.494187
H24   H     H_    0.386475 0.198212 0.036442 0.323806
H25   H     H_    0.668701 0.386297 0.615284 0.125490
S3    S     S_3+6 0.566255 0.862164 0.242952 0.008408
O27   O     O_2   0.473728 0.797646 0.235555 -0.346007
O28   O     O_2   0.635651 0.889196 0.309668 -0.297374
O29   O     O_3   0.401312 0.911838 0.227393 -0.496182
H26   H     H_    0.452319 0.955849 0.247486 0.343099
H27   H     H_    0.548381 0.627770 0.384257 0.127787
S4    S     S_3+6 0.145990 0.706864 0.607112 0.008126
O30   O     O_2   0.335598 0.677012 0.614882 -0.320211
O31   O     O_2   0.064499 0.672994 0.543238 -0.338409
O32   O     O_3   0.184442 0.784167 0.610030 -0.483772
H28   H     H_    0.054874 0.801069 0.605136 0.348099

loop_
_geom_bond_atom_site_label_1
_geom_bond_atom_site_label_2
_ccdc_geom_bond_type
C40   C41   A    
C34   C35   A    
C9    S3    S    
O17   V3    S    
C34   C38   A    
C23   C24   A    
O18   C55   A    
C20   C56   S    
C47   C52   A    
S3    O27   D    
O11   C54   A    
O32   H28   S    
C27   C28   A    
C23   H22   S    
C28   H9    S    
C11   C12   T    
C2    C49   S    
C13   H4    S    
C6    C7    A    
C47   C48   A    
C31   H11   S    
O5    C3    A    
C14   H5    S    
O12   C53   A    
C46   C52   S    
O23   H23   S    
C26   S4    S    
C37   H10   S    
V2    O10   S    
O13   V3    S    
O19   C56   A    
C3    C19   S    
S2    O24   D    
C5    H1    S    
C17   H6    S    
C44   C45   S    
O14   V3    S    
C42   C43   A    
O12   V3    S    
C30   C54   S    
C22   H21   S    
O8    V2    S    
C53   O16   A    
C41   C42   A    
C39   C44   A    
O1    V2    S    
O14   C54   A    
O7    V1    S    
O17   V4    S    
C17   C18   A    
S4    O32   S    
C1    O6    A    
O13   C56   A    
C40   H15   S    
C7    C8    A    
O19   V4    S    
S4    O31   D    
O15   V3    S    
C27   H7    S    
C36   S1    S    
C45   C46   T    
C29   C37   A    
C9    C10   A    
C20   C23   A    
C50   C51   A    
C21   C22   A    
O4    C2    A    
C48   C49   A    
C21   C25   A    
C10   C11   S    
C1    C29   S    
C30   C32   A    
C39   C40   A    
O2    C1    A    
C25   C26   A    
O11   V4    S    
C14   C15   A    
V4    O20   S    
V3    O20   S    
C16   C17   A    
S1    O22   D    
C47   H18   S    
O3    C4    A    
C16   H27   S    
O6    V2    S    
C51   C52   A    
O9    V2    S    
C24   C28   A    
C41   C53   S    
C8    C9    A    
C48   H25   S    
C35   C36   A    
C19   C27   A    
O2    V1    S    
C31   C32   A    
C43   C44   A    
C33   C34   A    
C38   H12   S    
O26   H24   S    
O1    C2    A    
C29   C36   A    
C8    H3    S    
C4    C15   S    
C50   H19   S    
O5    V1    S    
S3    O28   D    
O8    C3    A    
O15   C55   A    
C7    C55   S    
C12   C18   S    
S2    O26   S    
C33   S2    S    
C30   C33   A    
C5    C10   A    
C15   C16   A    
C6    H2    S    
C13   C14   A    
C37   C38   A    
C43   H17   S    
O3    V1    S    
V1    O10   S    
O29   H26   S    
C39   H14   S    
C20   C22   A    
C32   H13   S    
C19   C26   A    
C5    C6    A    
S2    O25   D    
S1    O23   S    
O18   V4    S    
O7    V2    S    
C42   H16   S    
S3    O29   S    
C49   C50   A    
O4    V1    S    
C13   C18   A    
C51   H20   S    
C24   C25   A    
S1    O21   D    
S4    O30   D    
O9    C4    A    
C31   C35   A    
O16   V4    S    
C21   H8    S    
