data_mof_unit_49302.cif
_audit_creation_date              2013-03-05T16:04:20-0500
_audit_creation_method            fapswitch 2.2
_symmetry_space_group_name_H-M    P1
_symmetry_Int_Tables_number       1
_space_group_crystal_system       triclinic
_cell_length_a                    9.604387
_cell_length_b                    10.86015
_cell_length_c                    13.451739
_cell_angle_alpha                 94.550472
_cell_angle_beta                  73.491123
_cell_angle_gamma                 91.172652
_cell_volume                      1340.99999237

loop_
_atom_site_label
_atom_site_type_symbol
_atom_site_description
_atom_site_fract_x
_atom_site_fract_y
_atom_site_fract_z
_atom_type_partial_charge
O1    O     O_R   0.381250 0.680340 0.500010 -0.569277
O2    O     O_R   0.618820 0.680370 0.500010 -0.586409
C1    C     C_R   0.500293 0.737991 0.503838 0.766858
O3    O     O_R   0.323240 0.499950 0.650980 -0.548430
O4    O     O_R   0.560810 0.499980 0.650980 -0.568900
C2    C     C_R   0.422025 0.503067 0.699613 0.952146
Cu1   Cu    Cu3+1 0.359340 0.499980 0.500000 0.979927
Cu2   Cu    Cu3+1 0.640660 0.500020 0.500000 0.958988
O5    O     O_R   0.381180 0.319630 0.499990 -0.582812
O6    O     O_R   0.618750 0.319660 0.499990 -0.581508
O7    O     O_R   0.439190 0.500020 0.349020 -0.561996
O8    O     O_R   0.676760 0.500050 0.349020 -0.580987
C3    C     C_R   0.501486 0.262162 0.493209 0.851879
C4    C     C_R   0.577709 0.498512 0.299996 0.767976
C5    C     C_R   0.735523 0.345508 0.033252 -0.124955
H1    H     H_    0.819147 0.278030 0.995288 0.216294
C6    C     C_R   0.621084 0.479122 0.185447 -0.271850
C7    C     C_R   0.260183 0.602875 0.860489 0.338378
C8    C     C_R   0.222390 0.630411 0.967360 -0.345113
C9    C     C_R   0.303106 0.584375 0.027937 0.475199
C10   C     C_R   0.426227 0.507320 0.980679 -0.000788
C11   C     C_R   0.446745 0.460360 0.875600 -0.144115
C12   C     C_R   0.528386 0.473158 0.033337 -0.044715
C13   C     C_R   0.630222 0.377332 0.985923 -0.128338
C14   C     C_R   0.626022 0.312551 0.892555 0.314643
C15   C     C_R   0.537565 0.356020 0.835298 0.329641
C16   C     C_R   0.539430 0.534219 0.128537 0.397831
C17   C     C_R   0.729442 0.392683 0.133049 0.328904
C18   C     C_R   0.373461 0.518304 0.813807 -0.092432
H2    H     H_    0.129285 0.689287 0.004120 0.133058
C19   C     C_R   0.629616 0.932901 0.447578 -0.086115
C20   C     C_R   0.621036 0.057401 0.430710 -0.032105
C21   C     C_R   0.500491 0.127923 0.490376 -0.152351
C22   C     C_R   0.381774 0.070462 0.555655 -0.169712
H3    H     H_    0.289511 0.124763 0.602544 0.180094
C23   C     C_R   0.380682 0.943676 0.563061 0.374395
C24   C     C_R   0.504365 0.872916 0.506570 -0.203906
C25   C     C_R   0.900659 0.570227 0.574905 0.112685
C26   C     C_R   0.050188 0.574080 0.570245 -0.060133
H4    H     H_    0.086821 0.631661 0.627294 0.187238
N1    N     N_R   0.147940 0.499970 0.499970 -0.190782
C27   C     C_R   0.097934 0.422554 0.430857 0.093379
C28   C     C_R   0.951451 0.428069 0.428069 -0.073699
H5    H     H_    0.916047 0.370609 0.370800 0.144622
N2    N     N_R   0.852060 0.500060 0.499990 -0.178826
O9    O     O_3   0.832082 0.353024 0.176251 -0.725665
H6    H     H_    0.780028 0.328921 0.246232 0.341384
C29   C     C_R   0.714295 0.095217 0.330143 0.098512
C30   C     C_R   0.670918 0.058278 0.240985 -0.160803
C31   C     C_R   0.768998 0.057591 0.141966 -0.135300
C32   C     C_R   0.913207 0.090610 0.131149 -0.054275
C33   C     C_R   0.957824 0.126268 0.219326 -0.091315
C34   C     C_R   0.859272 0.128730 0.318654 -0.168451
H7    H     H_    0.564474 0.019452 0.249269 0.135759
H8    H     H_    0.734364 0.027488 0.074096 0.142491
H9    H     H_    0.990260 0.088887 0.054661 0.132230
H10   H     H_    0.068592 0.152124 0.210138 0.165198
H11   H     H_    0.896978 0.150602 0.386478 0.130135
O10   O     O_3   0.259799 0.894242 0.630075 -0.732778
H12   H     H_    0.288678 0.818442 0.655389 0.349716
C35   C     C_R   0.803266 0.630106 0.672075 0.133689
C36   C     C_R   0.803223 0.584882 0.767339 -0.161175
C37   C     C_R   0.736952 0.651957 0.861449 -0.131404
C38   C     C_R   0.663557 0.761702 0.862314 -0.096555
C39   C     C_R   0.663010 0.807779 0.768560 -0.167547
C40   C     C_R   0.736478 0.744330 0.674269 -0.112864
H13   H     H_    0.860533 0.500331 0.768474 0.147862
H14   H     H_    0.744664 0.619860 0.933654 0.150264
H15   H     H_    0.610613 0.812581 0.935409 0.146213
H16   H     H_    0.610591 0.895148 0.768784 0.139342
H17   H     H_    0.745923 0.787654 0.604240 0.158972
C41   C     C_R   0.188983 0.323696 0.363524 0.131050
C42   C     C_R   0.258892 0.341148 0.259126 -0.129999
C43   C     C_R   0.332124 0.243534 0.191937 -0.167118
C44   C     C_R   0.331711 0.126450 0.227881 -0.156513
C45   C     C_R   0.260197 0.107281 0.331508 -0.152131
C46   C     C_R   0.187067 0.205094 0.398801 -0.143475
H18   H     H_    0.254664 0.429853 0.229976 0.206421
H19   H     H_    0.383961 0.257056 0.111074 0.152881
H20   H     H_    0.382984 0.049925 0.174440 0.139398
H21   H     H_    0.259115 0.016220 0.359009 0.146040
H22   H     H_    0.128004 0.188333 0.478027 0.130029
O11   O     O_3   0.708899 0.206450 0.859447 -0.759537
H23   H     H_    0.657307 0.147611 0.822285 0.328359
O12   O     O_3   0.488544 0.653786 0.157197 -0.703790
H24   H     H_    0.518829 0.687966 0.218272 0.303538
O13   O     O_3   0.187430 0.657657 0.800268 -0.750222
H25   H     H_    0.111483 0.714285 0.845148 0.330841
O14   O     O_3   0.252255 0.604953 0.134070 -0.726126
H26   H     H_    0.190179 0.679661 0.150183 0.318074
O15   O     O_3   0.531559 0.293028 0.743270 -0.749586
H27   H     H_    0.629788 0.260832 0.705693 0.336314
C47   C     C_R   0.773106 0.870042 0.405413 0.159574
C48   C     C_R   0.797828 0.777165 0.323683 -0.048289
C49   C     C_R   0.925961 0.707852 0.296773 -0.119098
C50   C     C_R   0.032303 0.734752 0.348087 -0.126757
C51   C     C_R   0.013401 0.833860 0.423162 -0.156039
C52   C     C_R   0.884946 0.902253 0.451006 -0.186872
H28   H     H_    0.714904 0.754281 0.285281 0.085721
H29   H     H_    0.941053 0.631479 0.237910 0.164276
H30   H     H_    0.129238 0.678649 0.330510 0.181888
H31   H     H_    0.096309 0.855261 0.462052 0.170795
H32   H     H_    0.869098 0.975992 0.512338 0.132838

loop_
_geom_bond_atom_site_label_1
_geom_bond_atom_site_label_2
_geom_bond_distance
_ccdc_geom_bond_type
O13   H25   0.991925 S    
C47   C48   1.402838 A    
C11   C18   1.419846 A    
C42   C43   1.397351 A    
C49   C50   1.400506 A    
C28   H5    1.078146 S    
C23   O10   1.380310 S    
C51   C52   1.394567 A    
Cu1   Cu2   2.701898 S    
C26   N1    1.352278 A    
O12   H24   0.990132 S    
Cu1   O7    1.956479 S    
C17   O9    1.370289 S    
C41   C46   1.405557 A    
C36   H13   1.083531 S    
O11   H23   0.990396 S    
C48   H28   1.080866 S    
C23   C24   1.418015 A    
C7    C8    1.388352 A    
O4    C2    1.307138 A    
O7    C4    1.306010 A    
C39   H16   1.082586 S    
C22   H3    1.084226 S    
N1    C27   1.383852 A    
C16   O12   1.383140 S    
O5    C3    1.301356 A    
Cu2   N2    2.030320 S    
C25   N2    1.394638 A    
O9    H6    0.985345 S    
C35   C40   1.402550 A    
C8    C9    1.398034 A    
C52   H32   1.083470 S    
C42   H18   1.074258 S    
C12   C16   1.424973 A    
C44   H20   1.082005 S    
C51   H31   1.082420 S    
C25   C35   1.483757 S    
O10   H12   0.988958 S    
C50   H30   1.081276 S    
C20   C29   1.478320 S    
C4    C6    1.476304 S    
C35   C36   1.408169 A    
O3    Cu1   1.960827 S    
C31   C32   1.393385 A    
C29   C34   1.400372 A    
C43   C44   1.395311 A    
C32   C33   1.396321 A    
C6    C16   1.411459 A    
C13   C14   1.400526 A    
O3    C2    1.295071 A    
O15   H27   0.991094 S    
C49   H29   1.082319 S    
C14   C15   1.408492 A    
C19   C47   1.489901 S    
C19   C24   1.417261 A    
O1    C1    1.304185 A    
C44   C45   1.397963 A    
C3    C21   1.455234 S    
C36   C37   1.397527 A    
C40   H17   1.066294 S    
Cu2   O8    1.960829 S    
C31   H8    1.082509 S    
C50   C51   1.393786 A    
C27   C41   1.473678 S    
C21   C22   1.396200 A    
C7    C18   1.408071 A    
C38   H15   1.082498 S    
C45   C46   1.399198 A    
C28   N2    1.357995 A    
C5    C13   1.400981 A    
O8    C4    1.301663 A    
C39   C40   1.397885 A    
C43   H19   1.080375 S    
C10   C12   1.433060 A    
C27   C28   1.420598 A    
C26   H4    1.082616 S    
C33   C34   1.399467 A    
Cu1   O5    1.974076 S    
C37   H14   1.079843 S    
C29   C30   1.404889 A    
O1    Cu1   1.965715 S    
C6    C17   1.406850 A    
C19   C20   1.396526 A    
O2    Cu2   1.974079 S    
C32   H9    1.082315 S    
C41   C42   1.400020 A    
O6    C3    1.298932 A    
C45   H21   1.081839 S    
O4    Cu2   1.956478 S    
C34   H11   1.081573 S    
C9    O14   1.372699 S    
C7    O13   1.383335 S    
C20   C21   1.407773 A    
O2    C1    1.296490 A    
C15   O15   1.381447 S    
C38   C39   1.394620 A    
C5    C17   1.384050 A    
C25   C26   1.419485 A    
C46   H22   1.083370 S    
C5    H1    1.083739 S    
C22   C23   1.387994 A    
Cu1   N1    2.030480 S    
C48   C49   1.397731 A    
C33   H10   1.069801 S    
C12   C13   1.424167 A    
C37   C38   1.394653 A    
C2    C18   1.469757 S    
C9    C10   1.425333 A    
C1    C24   1.462853 S    
Cu2   O6    1.965715 S    
C30   C31   1.395411 A    
C11   C15   1.418807 A    
C14   O11   1.383581 S    
O14   H26   0.989530 S    
C10   C11   1.424189 A    
C8    H2    1.083927 S    
C47   C52   1.406174 A    
C30   H7    1.077231 S    
