data_mof_unit_59143.cif
_audit_creation_date              2012-12-11T17:06:30-0500
_audit_creation_method            fapswitch 2.2
_symmetry_space_group_name_H-M    P1
_symmetry_Int_Tables_number       1
_space_group_crystal_system       triclinic
_cell_length_a                    6.9569
_cell_length_b                    14.519466
_cell_length_c                    15.975001
_cell_angle_alpha                 90.433802
_cell_angle_beta                  90.188395
_cell_angle_gamma                 90.075444
_cell_volume                      1613.58598212

loop_
_atom_site_label
_atom_site_type_symbol
_atom_type_description
_atom_site_fract_x
_atom_site_fract_y
_atom_site_fract_z
_atom_type_partial_charge
O1    O     O_R   0.494400 0.415450 0.412630 -0.539397
O2    O     O_R   0.823940 0.405730 0.586760 -0.547222
O3    O     O_R   0.994240 0.584550 0.587370 -0.543859
C1    C     C_R   0.655259 0.383492 0.615239 0.698011
O4    O     O_R   0.824110 0.404430 0.413240 -0.546121
O5    O     O_R   0.994420 0.583240 0.412620 -0.541877
C2    C     C_R   0.655177 0.382231 0.384390 0.699715
O6    O     O_R   0.494230 0.416760 0.587380 -0.539953
O7    O     O_3   0.660800 0.558670 0.500000 -0.361157
V1    V     V_3+5 0.935650 0.489120 0.500000 1.412056
O8    O     O_R   0.324140 0.594270 0.413240 -0.533065
C3    C     C_R   0.154951 0.616111 0.384246 0.715799
O9    O     O_R   0.323960 0.595570 0.586760 -0.524620
C4    C     C_R   0.155436 0.618583 0.614588 0.763781
V2    V     V_3+5 0.435660 0.510880 0.500000 1.446071
O10   O     O_3   0.160640 0.441330 0.500000 -0.377472
C5    C     C_3   0.957173 0.731195 0.716786 -0.095556
C6    C     C_3   0.024518 0.712732 0.808049 -0.177009
H1    H     H_    0.936318 0.681877 0.858254 0.128544
H2    H     H_    0.811759 0.716903 0.690917 0.149876
C7    C     C_3   0.121901 0.808390 0.810745 -0.125125
C8    C     C_3   0.056211 0.826720 0.720300 0.414899
C9    C     C_3   0.244066 0.784445 0.686637 -0.134890
C10   C     C_3   0.309484 0.765817 0.777230 -0.065359
C11   C     C_3   0.213545 0.669685 0.774271 -0.196988
C12   C     C_3   0.146422 0.689005 0.683718 -0.157564
H3    H     H_    0.279757 0.604579 0.796142 0.131176
C13   C     C_R   0.272581 0.815728 0.239844 0.094010
C14   C     C_R   0.118386 0.815407 0.183175 -0.088523
C15   C     C_R   0.966430 0.753740 0.198870 -0.151103
H4    H     H_    0.843874 0.751132 0.157219 0.128257
C16   C     C_R   0.977378 0.690129 0.264946 -0.183857
H5    H     H_    0.862415 0.640697 0.272295 0.125794
C17   C     C_R   0.140889 0.686030 0.317203 -0.111710
C18   C     C_R   0.283856 0.752548 0.305020 0.138385
C19   C     C_3   0.494660 0.740197 0.293498 -0.408504
C20   C     C_3   0.482434 0.809374 0.222824 -0.402653
H6    H     H_    0.530737 0.669431 0.271784 0.160586
H7    H     H_    0.578779 0.765704 0.348233 0.192449
H8    H     H_    0.512302 0.779044 0.160116 0.170960
H9    H     H_    0.558332 0.875051 0.236937 0.216927
C21   C     C_R   0.493564 0.315686 0.741113 0.096879
C22   C     C_R   0.647687 0.316991 0.684920 -0.109752
C23   C     C_R   0.798757 0.254388 0.698790 -0.159870
H10   H     H_    0.920838 0.252865 0.657184 0.144324
C24   C     C_R   0.787375 0.188601 0.762881 -0.117599
H11   H     H_    0.901819 0.138779 0.769133 0.165461
C25   C     C_R   0.624198 0.183253 0.814680 -0.106884
C26   C     C_R   0.481887 0.250318 0.804299 0.080968
C27   C     C_3   0.270892 0.238520 0.791942 -0.400139
C28   C     C_3   0.283489 0.310216 0.723421 -0.391888
H12   H     H_    0.187239 0.262100 0.847239 0.163316
H13   H     H_    0.234070 0.168580 0.768052 0.198209
H14   H     H_    0.207983 0.375462 0.739269 0.159455
H15   H     H_    0.253039 0.282111 0.659824 0.185483
C29   C     C_R   0.518475 0.322192 0.248640 0.096783
C30   C     C_R   0.647981 0.314053 0.315166 -0.116183
C31   C     C_R   0.779919 0.240647 0.311760 -0.215460
H16   H     H_    0.884338 0.233858 0.361832 0.163954
C32   C     C_R   0.766042 0.170773 0.249434 -0.026804
C33   C     C_R   0.624655 0.178227 0.184488 -0.159709
C34   C     C_R   0.509479 0.257373 0.184517 0.075548
C35   C     C_3   0.296819 0.268207 0.175852 -0.388878
C36   C     C_3   0.306926 0.338554 0.246943 -0.389531
H17   H     H_    0.216742 0.204704 0.192097 0.209217
H18   H     H_    0.256077 0.299047 0.114853 0.156132
H19   H     H_    0.234178 0.315183 0.304940 0.196810
H20   H     H_    0.270706 0.409606 0.226888 0.152717
O11   O     O_R   0.771650 0.079500 0.908680 -0.539528
O12   O     O_R   0.441690 0.091800 0.082800 -0.546863
O13   O     O_R   0.271460 0.912980 0.083410 -0.543944
C37   C     C_R   0.610693 0.111407 0.113802 0.729647
O14   O     O_R   0.441930 0.090510 0.909280 -0.541903
O15   O     O_R   0.271690 0.911670 0.908660 -0.532404
C38   C     C_R   0.610828 0.112375 0.880501 0.740637
O16   O     O_R   0.771410 0.080810 0.083440 -0.534125
O17   O     O_3   0.605100 0.937580 0.996050 -0.367042
V3    V     V_3+5 0.330220 0.007110 0.996030 1.462663
O18   O     O_R   0.941980 0.900620 0.909250 -0.526992
C39   C     C_R   0.110762 0.877942 0.880983 0.750522
O19   O     O_R   0.941740 0.901920 0.082770 -0.534352
C40   C     C_R   0.110601 0.880166 0.111811 0.712450
V4    V     V_3+5 0.830220 0.985300 0.996000 1.494051
O20   O     O_3   0.105210 0.054870 0.996020 -0.382852
C41   C     C_2   0.887396 0.087382 0.260432 0.739496
O21   O     O_2   0.829121 0.011790 0.237600 -0.572503
O22   O     O_R   0.064994 0.094539 0.301288 -0.673442
H21   H     H_    0.133586 0.033153 0.305498 0.298091
Cl1   Cl    Cl    0.951486 0.931231 0.684180 -0.586627
C42   C     C_2   0.364047 0.828053 0.619719 0.861606
O23   O     O_2   0.430615 0.905063 0.631233 -0.491948
O24   O     O_R   0.397139 0.781418 0.544366 -0.669832
H22   H     H_    0.479355 0.818235 0.504381 0.292718
C43   C     C_2   0.501293 0.783009 0.816954 0.782532
O25   O     O_2   0.611977 0.838522 0.786362 -0.519896
O26   O     O_R   0.546124 0.739751 0.892329 -0.679070
H23   H     H_    0.672798 0.761504 0.916892 0.282633

loop_
_geom_bond_atom_site_label_1
_geom_bond_atom_site_label_2
_ccdc_geom_bond_type
O18   V4    S    
O22   H21   S    
C35   H17   S    
O12   V3    S    
C6    C7    S    
C18   C19   S    
C1    O6    A    
O19   C40   A    
C42   O23   D    
O17   V3    S    
C14   C15   A    
C5    C12   S    
C36   H20   S    
C13   C14   A    
C17   C18   A    
C20   H8    S    
O5    C3    A    
C15   H4    S    
O17   V4    S    
C31   C32   A    
V2    O10   S    
C5    H2    S    
C29   C30   A    
C6    H1    S    
C9    C12   S    
O8    V2    S    
C13   C18   A    
C27   H12   S    
C9    C10   S    
C29   C36   S    
O1    V2    S    
O7    V1    S    
C37   O16   A    
C21   C28   S    
O13   C40   A    
C35   H18   S    
O15   C39   A    
O9    C4    A    
C20   H9    S    
O14   C38   A    
C25   C38   S    
C43   O25   D    
C6    C11   S    
O16   V4    S    
O19   V4    S    
C23   C24   A    
C27   C28   S    
C41   O22   S    
C24   C25   A    
C27   H13   S    
C36   H19   S    
C10   C11   S    
O4    C2    A    
C31   H16   S    
C41   O21   D    
O18   C39   A    
C32   C33   A    
C16   C17   A    
O2    C1    A    
C22   C23   A    
C34   C35   S    
O11   V4    S    
C10   C43   S    
C42   O24   S    
V4    O20   S    
O14   V3    S    
O26   H23   S    
C5    C6    S    
C9    C42   S    
C4    C12   S    
C43   O26   S    
O3    C4    A    
C33   C37   S    
C25   C26   A    
O6    V2    S    
O9    V2    S    
C29   C34   A    
C21   C22   A    
C3    C17   S    
O2    V1    S    
C23   H10   S    
C24   H11   S    
C19   C20   S    
O1    C2    A    
C19   H7    S    
O5    V1    S    
C32   C41   S    
C1    C22   S    
C11   H3    S    
C5    C8    S    
C28   H14   S    
C16   H5    S    
C19   H6    S    
C11   C12   S    
C14   C40   S    
O3    V1    S    
V1    O10   S    
C15   C16   A    
C30   C31   A    
C13   C20   S    
C7    C39   S    
O24   H22   S    
C8    Cl1   S    
O11   C38   A    
C28   H15   S    
O7    V2    S    
C33   C34   A    
C21   C26   A    
C35   C36   S    
V3    O20   S    
O4    V1    S    
C26   C27   S    
O15   V3    S    
C7    C10   S    
C8    C9    S    
O12   C37   A    
C7    C8    S    
C2    C30   S    
O13   V3    S    
O8    C3    A    
