data_mof_unit_56095.cif
_audit_creation_date              2012-12-10T19:47:24-0500
_audit_creation_method            fapswitch 2.2
_symmetry_space_group_name_H-M    P1
_symmetry_Int_Tables_number       1
_space_group_crystal_system       triclinic
_cell_length_a                    10.910568
_cell_length_b                    10.89981
_cell_length_c                    12.687628
_cell_angle_alpha                 91.565321
_cell_angle_beta                  92.088892
_cell_angle_gamma                 90.344579
_cell_volume                      1507.24983074

loop_
_atom_site_label
_atom_site_type_symbol
_atom_type_description
_atom_site_fract_x
_atom_site_fract_y
_atom_site_fract_z
_atom_type_partial_charge
C1    C     C_R   0.261744 0.494197 0.501447 0.833645
C2    C     C_R   0.737839 0.490394 0.499268 0.842000
C3    C     C_R   0.494742 0.871626 0.495600 -0.088562
C4    C     C_R   0.497440 0.128248 0.503861 -0.085691
C5    C     C_R   0.478824 0.936787 0.401396 -0.008396
C6    C     C_R   0.510178 0.062809 0.597942 -0.016719
C7    C     C_R   0.191657 0.445198 0.875280 -0.139613
C8    C     C_R   0.829341 0.479856 0.119610 -0.154655
C9    C     C_R   0.157209 0.419974 0.769900 -0.104486
C10   C     C_R   0.881373 0.507371 0.219764 -0.072742
C11   C     C_R   0.127165 0.516305 0.702798 0.242443
C12   C     C_R   0.869352 0.424568 0.301744 0.216470
C13   C     C_R   0.138983 0.638217 0.740557 -0.088952
C14   C     C_R   0.803950 0.314298 0.282386 -0.120142
C15   C     C_R   0.177641 0.663131 0.845275 -0.164029
C16   C     C_R   0.751785 0.287284 0.182065 -0.150109
C17   C     C_R   0.201854 0.566533 0.913016 -0.110412
C18   C     C_R   0.765367 0.369634 0.100639 -0.122292
C19   C     C_R   0.938363 0.476678 0.597281 0.449432
C20   C     C_R   0.061697 0.446166 0.408837 0.445494
C21   C     C_R   0.871110 0.471510 0.499627 -0.281446
C22   C     C_R   0.128218 0.478144 0.503645 -0.277183
C23   C     C_R   0.499372 0.261806 0.501818 0.759320
C24   C     C_R   0.497685 0.738123 0.498117 0.791734
C25   C     C_R   0.933524 0.449224 0.405323 -0.177559
C26   C     C_R   0.065564 0.489352 0.598860 -0.182074
C27   C     C_2   0.469357 0.465461 0.031604 -0.289199
C28   C     C_2   0.535288 0.536580 0.968650 -0.279354
C29   C     C_1   0.525776 0.526075 0.852787 0.236860
C30   C     C_1   0.476468 0.475102 0.147271 0.238045
C31   C     C_R   0.643048 0.154661 0.866656 -0.166994
C32   C     C_R   0.314940 0.775745 0.168555 -0.135679
C33   C     C_R   0.635386 0.122830 0.759180 -0.164419
C34   C     C_R   0.341551 0.820871 0.271093 -0.092531
C35   C     C_R   0.521101 0.119525 0.704700 0.153925
C36   C     C_R   0.454872 0.878385 0.295996 0.134341
C37   C     C_R   0.414706 0.148690 0.758677 -0.108920
C38   C     C_R   0.540649 0.890863 0.216993 -0.157985
C39   C     C_R   0.422625 0.179004 0.866414 -0.144706
C40   C     C_R   0.513570 0.845842 0.114559 -0.144622
C41   C     C_R   0.536585 0.181480 0.920472 -0.111624
C42   C     C_R   0.400614 0.788932 0.090252 -0.122413
C43   C     C_R   0.509885 0.935845 0.592295 -0.235099
C44   C     C_R   0.482016 0.064049 0.406890 -0.252221
Cu1   Cu    Cu3+1 0.492140 0.492110 0.395880 0.990490
Cu2   Cu    Cu3+1 0.507860 0.507890 0.604120 0.988671
H1    H     H_    0.542142 0.202752 0.004300 0.120716
H2    H     H_    0.379566 0.755590 0.010575 0.133049
H3    H     H_    0.114804 0.713365 0.689869 0.105269
H4    H     H_    0.794855 0.249008 0.344531 0.100910
H5    H     H_    0.597843 0.605040 0.004091 0.162755
H6    H     H_    0.407814 0.396798 0.996219 0.156754
H7    H     H_    0.731158 0.155432 0.908709 0.119375
H8    H     H_    0.227319 0.731971 0.149615 0.123855
H9    H     H_    0.717720 0.096802 0.719197 0.111887
H10   H     H_    0.273579 0.812537 0.330674 0.107154
H11   H     H_    0.325532 0.142826 0.718365 0.102234
H12   H     H_    0.627575 0.936904 0.234516 0.117242
H13   H     H_    0.340111 0.197394 0.908578 0.107839
H14   H     H_    0.579604 0.856222 0.053737 0.128021
H15   H     H_    0.520912 0.887105 0.665430 0.171621
H16   H     H_    0.469873 0.112999 0.333980 0.163840
H17   H     H_    0.227563 0.585335 0.994952 0.133618
H18   H     H_    0.726128 0.348536 0.022799 0.137330
H19   H     H_    0.207674 0.370566 0.928264 0.111586
H20   H     H_    0.839426 0.543510 0.056445 0.134293
H21   H     H_    0.148699 0.325492 0.741849 0.089079
H22   H     H_    0.932394 0.592255 0.233228 0.117483
N1    N     N_1   0.480320 0.480250 0.239400 -0.146972
N2    N     N_1   0.519680 0.519750 0.760600 -0.150246
O1    O     O_R   0.313000 0.493330 0.412070 -0.525690
O2    O     O_R   0.687000 0.506670 0.587930 -0.526024
O3    O     O_R   0.326280 0.506660 0.587930 -0.588673
O4    O     O_R   0.673720 0.493340 0.412070 -0.580992
O5    O     O_R   0.493370 0.312980 0.412070 -0.594255
O6    O     O_R   0.506630 0.687020 0.587930 -0.585493
O7    O     O_R   0.506650 0.326310 0.587930 -0.582239
O8    O     O_R   0.493350 0.673690 0.412070 -0.571756
H23   H     H_    0.185425 0.757109 0.874675 0.121595
H24   H     H_    0.701789 0.202112 0.167236 0.116391
O9    O     O_3   0.880398 0.481271 0.692846 -0.550390
C45   C     C_3   0.850661 0.360369 0.720823 -0.257074
H25   H     H_    0.933840 0.303535 0.732364 0.122265
H26   H     H_    0.787644 0.314319 0.661052 0.152518
H27   H     H_    0.803192 0.364658 0.796663 0.186059
O10   O     O_3   0.121327 0.417403 0.316829 -0.558247
C46   C     C_3   0.145995 0.290387 0.314254 -0.273082
H28   H     H_    0.059823 0.235155 0.311724 0.140182
H29   H     H_    0.206040 0.263810 0.382598 0.145451
H30   H     H_    0.195377 0.267666 0.241436 0.178719

loop_
_geom_bond_atom_site_label_1
_geom_bond_atom_site_label_2
_ccdc_geom_bond_type
C33   H9    S    
C46   H28   S    
C34   H10   S    
C40   H14   S    
Cu1   O1    S    
Cu2   O6    S    
O9    C45   S    
C39   C41   A    
Cu1   Cu2   S    
C8    H20   S    
C3    C43   A    
C1    O1    A    
C28   C29   S    
C19   C21   A    
C28   H5    S    
C20   C25   A    
C5    C36   S    
C6    C35   S    
C7    C9    A    
C19   C26   A    
C38   H12   S    
C15   H23   S    
C7    C17   A    
C20   O10   S    
C31   C33   A    
Cu1   O8    S    
Cu2   O2    S    
C2    O4    A    
C40   C42   A    
C1    C22   S    
C27   C30   S    
C3    C24   S    
C2    O2    A    
C32   H8    S    
Cu1   N1    S    
C4    C6    A    
C23   O5    A    
C4    C23   S    
O10   C46   S    
C24   O6    A    
C4    C44   A    
C11   C26   S    
C44   H16   S    
C31   H7    S    
Cu1   O4    S    
C16   H24   S    
C32   C34   A    
C9    H21   S    
C7    H19   S    
C39   H13   S    
C2    C21   S    
C41   H1    S    
C16   C18   A    
C42   H2    S    
C23   O7    A    
C9    C11   A    
C10   C12   A    
C13   H3    S    
C24   O8    A    
C5    C44   A    
C12   C14   A    
C45   H26   S    
C6    C43   A    
C13   C15   A    
C14   C16   A    
C30   N1    T    
C27   H6    S    
C43   H15   S    
C29   N2    T    
C15   C17   A    
C21   C25   A    
C31   C41   A    
C35   C37   A    
C20   C22   A    
C3    C5    A    
Cu2   O7    S    
C10   H22   S    
C45   H27   S    
C12   C25   S    
Cu1   O5    S    
C1    O3    A    
C46   H29   S    
C37   C39   A    
C17   H17   S    
C38   C40   A    
C11   C13   A    
C18   H18   S    
C14   H4    S    
C36   C38   A    
C33   C35   A    
C34   C36   A    
C8    C18   A    
Cu2   N2    S    
C8    C10   A    
C45   H25   S    
C22   C26   A    
C46   H30   S    
C27   C28   D    
C32   C42   A    
C19   O9    S    
Cu2   O3    S    
C37   H11   S    
