data_mof_unit_18785.cif
_audit_creation_date              2013-03-05T16:01:05-0500
_audit_creation_method            fapswitch 2.2
_symmetry_space_group_name_H-M    P1
_symmetry_Int_Tables_number       1
_space_group_crystal_system       triclinic
_cell_length_a                    8.197768
_cell_length_b                    12.765662
_cell_length_c                    18.736567
_cell_angle_alpha                 100.104627
_cell_angle_beta                  91.027275
_cell_angle_gamma                 98.748597
_cell_volume                      1905.9010502

loop_
_atom_site_label
_atom_site_type_symbol
_atom_site_description
_atom_site_fract_x
_atom_site_fract_y
_atom_site_fract_z
_atom_type_partial_charge
P1    P     P_3+3 0.041040 0.394770 0.336330 0.583752
O1    O     O_2   0.873090 0.425890 0.325140 -0.369169
O2    O     O_3   0.122420 0.434370 0.414380 -0.369776
O3    O     O_3   0.659500 0.627100 0.368810 -0.372243
O4    O     O_2   0.772933 0.543497 0.243161 -0.402144
O5    O     O_3   0.003586 0.253734 0.319820 -0.472986
O6    O     O_3   0.711089 0.739809 0.253316 -0.527700
H1    H     H_    0.728527 0.862124 0.341994 0.132179
C1    C     C_3   0.587699 0.897216 0.253119 -1.013915
H2    H     H_    0.533684 0.961544 0.288164 0.250806
H3    H     H_    0.697110 0.934211 0.227112 0.289368
P2    P     P_3+3 0.672880 0.754030 0.556100 0.497991
P3    P     P_3+3 0.128425 0.823823 0.405437 0.449089
O7    O     O_2   0.848200 0.768190 0.534530 -0.335396
O8    O     O_3   0.081160 0.685950 0.404810 -0.404611
O9    O     O_2   0.000083 0.878846 0.451438 -0.369080
O10   O     O_3   0.686340 0.785937 0.650967 -0.526342
O11   O     O_3   0.091069 0.848701 0.318125 -0.522753
C2    C     C_3   0.132048 0.763285 0.267072 0.477170
H4    H     H_    0.046836 0.687539 0.269139 0.144341
H5    H     H_    0.261070 0.750999 0.276709 0.002593
C3    C     C_3   0.115501 0.789533 0.191422 -0.942776
H6    H     H_    0.985489 0.797164 0.178735 0.287826
H7    H     H_    0.196113 0.866575 0.188115 0.263797
C4    C     C_3   0.256236 0.786578 0.624554 0.450618
H8    H     H_    0.351788 0.740549 0.600815 0.079015
H9    H     H_    0.157162 0.782312 0.582543 0.139488
C5    C     C_3   0.334510 0.903544 0.650659 -0.874385
H10   H     H_    0.455960 0.907379 0.678767 0.260124
H11   H     H_    0.350813 0.947127 0.604507 0.235930
H12   H     H_    0.254413 0.944940 0.689482 0.301500
Ba1   Ba    Ba6+2 0.852780 0.548340 0.465070 1.610291
C6    C     C_3   0.960652 0.215281 0.383239 0.460310
H13   H     H_    0.840992 0.238367 0.399365 0.040958
H14   H     H_    0.055033 0.246922 0.427957 0.140338
C7    C     C_3   0.946125 0.093285 0.367402 -0.890765
H15   H     H_    0.849854 0.059410 0.323826 0.262101
H16   H     H_    0.912023 0.059253 0.416433 0.217046
H17   H     H_    0.066066 0.069850 0.349626 0.277441
C8    C     C_3   0.730024 0.700875 0.680899 0.482575
H18   H     H_    0.847584 0.679883 0.659367 0.088606
H19   H     H_    0.631524 0.629455 0.669168 0.112630
C9    C     C_3   0.751576 0.737918 0.762750 -0.969070
H20   H     H_    0.857768 0.804440 0.775922 0.286727
H21   H     H_    0.774199 0.670969 0.790003 0.210117
H22   H     H_    0.637919 0.767207 0.784009 0.253312
P4    P     P_3+3 0.148670 0.605320 0.663680 0.454202
O12   O     O_2   0.316610 0.574140 0.674900 -0.373170
O13   O     O_3   0.067290 0.565720 0.585630 -0.415630
O14   O     O_3   0.530210 0.372990 0.631200 -0.352381
O15   O     O_3   0.189526 0.745950 0.683989 -0.567886
P5    P     P_3+3 0.068244 0.178065 0.598836 0.535443
O16   O     O_3   0.611340 0.366290 0.463630 -0.368426
O17   O     O_3   0.108550 0.314140 0.595200 -0.399859
O18   O     O_2   0.198364 0.123199 0.553897 -0.353965
O19   O     O_3   0.111104 0.162995 0.687952 -0.460089
Ba2   Ba    Ba6+2 0.337060 0.451750 0.534940 1.577422
P6    P     P_3+3 0.643322 0.612786 0.274750 0.448400
C10   C     C_3   0.637280 0.818198 0.298306 0.456491
H23   H     H_    0.525127 0.785080 0.324433 0.027964
H24   H     H_    0.494688 0.854272 0.209931 0.262117
O20   O     O_3   0.578370 0.633800 0.536380 -0.416591
C11   C     C_3   0.465488 0.264747 0.311826 1.174211
H25   H     H_    0.579045 0.321756 0.307069 0.048462
C12   C     C_3   0.389478 0.213592 0.236686 -0.895930
H26   H     H_    0.267151 0.165134 0.241789 0.279486
H27   H     H_    0.373263 0.277220 0.204840 0.218122
H28   H     H_    0.469248 0.159211 0.207241 0.251936
P7    P     P_3+3 0.523413 0.229373 0.441595 0.474264
O21   O     O_2   0.341510 0.231850 0.465510 -0.321700
O22   O     O_3   0.503569 0.183047 0.347632 -0.654313
H29   H     H_    0.152632 0.724431 0.150628 0.212362
C13   C     C_3   0.056407 0.247094 0.735522 0.539860
H30   H     H_    0.143915 0.323185 0.737580 0.132685
H31   H     H_    0.931698 0.259676 0.718401 -0.031384
C14   C     C_3   0.048919 0.219421 0.811245 -0.914649
H32   H     H_    0.173653 0.210422 0.830958 0.290140
H33   H     H_    0.003915 0.284390 0.849321 0.214778
H34   H     H_    0.963072 0.142972 0.810379 0.274898
P8    P     P_3+3 0.547709 0.388643 0.725396 0.445300
C15   C     C_3   0.566043 0.196133 0.747874 0.407224
H35   H     H_    0.691560 0.235618 0.768672 0.042501
O23   O     O_2   0.432521 0.468950 0.755237 -0.392128
O24   O     O_3   0.453716 0.269380 0.751339 -0.503818
H36   H     H_    0.570044 0.153477 0.690971 0.109182
H37   H     H_    0.518198 0.156730 0.854120 0.275622
C16   C     C_3   0.508972 0.115295 0.796536 -0.886978
H38   H     H_    0.587602 0.051114 0.790590 0.252733
H39   H     H_    0.378510 0.078457 0.782387 0.269415
C17   C     C_R   0.990264 0.454513 0.048484 -0.013386
C18   C     C_R   0.892072 0.395218 0.093406 -0.090911
C19   C     C_R   0.728532 0.349757 0.069464 -0.272685
C20   C     C_R   0.664548 0.361097 0.002264 0.715655
C21   C     C_R   0.765142 0.413632 0.955337 -0.087706
C22   C     C_R   0.928664 0.460462 0.978200 -0.024425
C23   C     C_R   0.706289 0.416411 0.885158 -0.176562
C24   C     C_R   0.811238 0.458222 0.834703 -0.053461
C25   C     C_R   0.974068 0.509010 0.857845 0.000887
C26   C     C_R   0.031465 0.510765 0.930192 0.030290
C27   C     C_R   0.759914 0.447328 0.761090 0.146891
C28   C     C_R   0.869758 0.485713 0.711787 -0.522811
C29   C     C_R   0.025774 0.544420 0.734198 0.262204
C30   C     C_R   0.079732 0.557016 0.808780 -0.052934
C31   C     C_R   0.152937 0.502107 0.071865 0.032282
C32   C     C_R   0.213116 0.498865 0.142980 -0.016776
C33   C     C_R   0.111992 0.442431 0.189800 -0.234497
C34   C     C_R   0.960986 0.378818 0.159714 0.418579
H40   H     H_    0.646699 0.306827 0.102810 0.207839
H41   H     H_    0.829100 0.475318 0.655380 0.175307
H42   H     H_    0.579693 0.381472 0.869571 0.219882
C35   C     C_R   0.236447 0.613430 0.835929 -0.133052
C36   C     C_R   0.296107 0.610757 0.906450 0.110019
C37   C     C_R   0.193865 0.558650 0.953649 0.012577
C38   C     C_R   0.254580 0.554413 0.024353 0.050684
C39   C     C_R   0.458665 0.657366 0.930032 -0.159763
C40   C     C_R   0.519418 0.651953 0.999323 -0.181692
C41   C     C_R   0.418160 0.601150 0.046962 0.129610
C42   C     C_R   0.376445 0.549388 0.166156 0.005183
C43   C     C_R   0.478240 0.597313 0.116845 -0.239045
C44   C     C_R   0.432192 0.551733 0.238314 0.153386
C45   C     C_R   0.324080 0.509334 0.286750 -0.450007
C46   C     C_R   0.167037 0.451908 0.264366 0.311788
H43   H     H_    0.316366 0.656796 0.802056 0.170515
H44   H     H_    0.539838 0.696922 0.894533 0.134188
H45   H     H_    0.645879 0.687914 0.015754 0.139443
H46   H     H_    0.604832 0.632944 0.132138 0.184285
H47   H     H_    0.365626 0.518073 0.342901 0.207749
C47   C     C_R   0.767302 0.184083 0.529218 -0.551468
C48   C     C_R   0.429419 0.809922 0.472866 -0.521047
C49   C     C_R   0.402809 0.985119 0.448265 -0.178056
C50   C     C_R   0.338220 0.877282 0.444205 0.215984
C51   C     C_R   0.576995 0.851232 0.513645 0.287890
C52   C     C_R   0.640325 0.964218 0.523439 -0.222287
C53   C     C_R   0.553988 0.030075 0.486706 -0.067310
C54   C     C_R   0.617920 0.140503 0.491463 0.261948
C55   C     C_R   0.856421 0.120550 0.562413 0.097664
C56   C     C_R   0.786726 0.014945 0.566443 0.294907
H48   H     H_    0.330538 0.033024 0.422420 0.177258
H49   H     H_    0.818514 0.267601 0.529998 0.174442
H50   H     H_    0.379818 0.725149 0.466966 0.169212
F1    F     F_    0.353334 0.321350 0.348357 -0.706197
F2    F     F_    0.505284 0.317141 0.982260 -0.706765
N1    N     N_R   0.905872 0.279253 0.183350 0.247376
O25   O     O_R   0.991920 0.201151 0.168648 -0.380571
O26   O     O_R   0.759874 0.259722 0.208213 -0.452874
N2    N     N_R   0.849102 0.970980 0.624182 0.265652
O27   O     O_R   0.993959 0.941859 0.619654 -0.362783
O28   O     O_R   0.792472 0.996319 0.688262 -0.443755

loop_
_geom_bond_atom_site_label_1
_geom_bond_atom_site_label_2
_geom_bond_distance
_ccdc_geom_bond_type
C16   H38   1.109227 S    
C11   C12   1.522811 S    
C52   C56   1.433450 A    
C20   C21   1.402697 A    
C13   H30   1.110644 S    
C35   C36   1.408530 A    
C14   H34   1.110434 S    
P8    O24   1.750473 S    
O16   P7    1.760067 S    
C15   O24   1.403293 S    
C15   H35   1.106168 S    
O12   Ba2   2.829091 S    
P4    O13   1.562760 S    
C4    C5    1.523642 S    
C28   C29   1.397318 A    
O4    P6    1.544786 D    
C1    H24   1.109854 S    
C30   C35   1.412256 A    
C5    H10   1.108302 S    
C2    H5    1.108812 S    
C47   H49   1.082280 S    
C14   H33   1.108070 S    
C45   H47   1.081537 S    
C47   C55   1.385391 A    
H1    C10   1.110581 S    
C22   C26   1.413106 A    
C33   C34   1.420633 A    
C28   H41   1.081848 S    
N1    O25   1.300793 A    
C6    C7    1.519129 S    
O13   Ba2   2.911835 S    
C40   C41   1.404374 A    
O1    Ba1   2.828746 S    
P1    O1    1.510848 D    
O6    C10   1.408745 S    
P7    O22   1.752383 S    
C42   C43   1.412431 A    
C31   C32   1.422156 A    
P1    C46   1.892841 S    
C19   H40   1.078934 S    
C8    C9    1.522231 S    
C2    H4    1.110447 S    
C51   C52   1.435089 A    
C12   H27   1.110640 S    
P2    O10   1.750071 S    
C39   H44   1.082448 S    
Ba2   O21   2.885358 S    
C1    H2    1.110600 S    
O6    P6    1.749776 S    
P5    O18   1.545926 D    
C15   H36   1.112334 S    
C48   C51   1.398886 A    
C8    H19   1.109478 S    
C10   H23   1.110950 S    
P7    C54   1.836754 S    
P4    C29   1.880169 S    
P2    Ba1   3.416926 S    
C13   H31   1.109124 S    
C49   C53   1.410909 A    
Ba1   Ba2   4.567752 S    
P8    O23   1.538677 D    
C3    H29   1.109033 S    
C36   C37   1.410832 A    
P5    O17   1.731770 S    
C24   C25   1.416863 A    
N2    O28   1.300408 A    
C7    H17   1.110616 S    
P3    C50   1.837240 S    
N2    O27   1.297075 A    
C35   H43   1.079983 S    
C29   C30   1.432346 A    
C18   C34   1.417235 A    
C56   N2    1.423841 S    
Ba2   O20   2.809363 S    
C2    C3    1.520965 S    
C14   H32   1.110080 S    
C47   C54   1.390378 A    
C18   C19   1.409190 A    
O16   Ba2   2.893696 S    
H37   C16   1.110956 S    
O11   C2    1.404925 S    
P4    O15   1.747188 S    
C4    H8    1.103400 S    
C23   H42   1.078834 S    
P1    Ba1   3.382018 S    
P1    O5    1.750568 S    
O14   P8    1.741801 S    
P1    O2    1.562760 S    
O10   C8    1.395233 S    
C9    H20   1.110746 S    
C4    O15   1.395135 S    
P4    Ba2   3.382612 S    
P2    O20   1.587913 S    
P4    O12   1.511191 D    
P3    O8    1.741590 S    
C12   H28   1.109319 S    
C23   C24   1.409017 A    
C33   C46   1.439322 A    
P6    C44   1.851957 S    
C6    H13   1.098967 S    
C11   F1    1.373694 S    
O2    Ba1   2.910939 S    
O3    Ba1   2.791548 S    
C21   C23   1.400656 A    
C9    H21   1.106117 S    
C17   C31   1.406622 A    
C45   C46   1.398702 A    
C15   C16   1.521103 S    
C31   C38   1.413698 A    
P3    O11   1.750667 S    
C8    H18   1.103592 S    
C11   O22   1.404418 S    
C12   H26   1.110368 S    
C21   C22   1.408417 A    
C40   H45   1.083725 S    
C1    H3    1.110189 S    
C52   C53   1.431074 A    
P5    C55   1.847700 S    
C13   C14   1.521156 S    
C3    H7    1.110382 S    
C32   C42   1.419673 A    
C34   N1    1.430290 S    
C7    H16   1.105958 S    
C49   H48   1.078573 S    
O2    Ba2   2.794767 S    
Ba1   O16   2.809981 S    
C24   C27   1.411649 A    
C44   C45   1.399037 A    
C37   C38   1.419610 A    
N1    O26   1.296782 A    
C7    H15   1.107090 S    
O19   C13   1.404655 S    
P2    C51   1.846876 S    
O14   Ba2   2.790899 S    
C5    H12   1.107846 S    
O7    Ba1   2.885123 S    
C55   C56   1.397330 A    
O8    Ba1   2.763542 S    
C26   C37   1.405855 A    
C53   C54   1.413986 A    
C4    H9    1.109414 S    
C32   C33   1.428970 A    
O5    C6    1.394237 S    
C41   C43   1.402193 A    
C49   C50   1.386096 A    
P2    O7    1.493009 D    
Ba1   O20   2.894594 S    
C25   C30   1.426813 A    
C17   C18   1.411323 A    
C48   H50   1.082230 S    
C5    H11   1.107033 S    
C19   C20   1.394551 A    
C6    H14   1.107573 S    
C36   C39   1.403766 A    
P7    O21   1.568046 D    
C9    H22   1.110681 S    
C42   C44   1.413195 A    
Ba1   O13   2.794125 S    
C38   C41   1.407568 A    
C11   H25   1.106263 S    
C43   H46   1.079808 S    
P5    O19   1.749490 S    
C25   C26   1.422202 A    
P3    O9    1.545351 D    
O3    P6    1.740151 S    
C16   H39   1.108303 S    
C3    H6    1.110208 S    
C27   C28   1.399552 A    
C1    C10   1.520388 S    
C17   C22   1.420534 A    
P8    C27   1.849535 S    
C20   F2    1.358586 S    
C39   C40   1.398966 A    
C48   C50   1.389229 A    
O17   Ba2   2.764170 S    
