data_mof_unit_26983.cif
_audit_creation_date              2012-12-10T17:16:42-0500
_audit_creation_method            fapswitch 2.2
_symmetry_space_group_name_H-M    P1
_symmetry_Int_Tables_number       1
_space_group_crystal_system       triclinic
_cell_length_a                    10.466773
_cell_length_b                    10.596838
_cell_length_c                    10.682525
_cell_angle_alpha                 92.952307
_cell_angle_beta                  95.244049
_cell_angle_gamma                 78.244779
_cell_volume                      1154.48654235

loop_
_atom_site_label
_atom_site_type_symbol
_atom_type_description
_atom_site_fract_x
_atom_site_fract_y
_atom_site_fract_z
_atom_type_partial_charge
C1    C     C_R   0.444960 0.503876 0.266928 0.784557
C2    C     C_R   0.498296 0.740932 0.514261 0.885831
C3    C     C_R   0.752158 0.050552 0.506285 0.273264
C4    C     C_R   0.247772 0.949247 0.494455 0.268421
C5    C     C_R   0.850176 0.989130 0.593194 -0.178995
C6    C     C_R   0.149775 0.010557 0.407464 -0.182584
C7    C     C_R   0.824197 0.898628 0.672369 -0.166792
C8    C     C_R   0.175755 0.101043 0.328255 -0.168671
C9    C     C_R   0.704365 0.859593 0.654786 -0.139698
C10   C     C_R   0.295488 0.140280 0.345945 -0.139852
C11   C     C_R   0.605290 0.923470 0.569104 0.039706
C12   C     C_R   0.555407 0.487933 0.732716 0.778738
C13   C     C_R   0.394590 0.076482 0.431656 0.041708
C14   C     C_R   0.622676 0.034013 0.512439 0.079098
C15   C     C_R   0.377230 0.965940 0.488353 0.078566
C16   C     C_R   0.489221 0.879721 0.538418 -0.238486
C17   C     C_R   0.510734 0.120190 0.462184 -0.236097
C18   C     C_3   0.793182 0.103864 0.392122 -0.894979
C19   C     C_3   0.206827 0.895355 0.608381 -0.889598
C20   C     C_3   0.865336 0.397216 0.322725 -0.584268
C21   C     C_3   0.135212 0.600702 0.678125 -0.589686
C22   C     C_2   0.414714 0.489485 0.131598 0.247262
C23   C     C_2   0.587259 0.464515 0.866307 0.252240
C24   C     C_2   0.510893 0.426623 0.064130 -0.144223
C25   C     C_2   0.495991 0.429224 0.928922 -0.124137
C26   C     C_2   0.070023 0.498815 0.481997 0.484744
C27   C     C_2   0.929466 0.502825 0.516970 0.491815
C28   C     C_R   0.501730 0.259018 0.485930 0.865874
H1    H     H_    0.101234 0.145538 0.258423 0.160837
H2    H     H_    0.857604 0.172169 0.422823 0.247035
H3    H     H_    0.846657 0.023221 0.335210 0.221671
H4    H     H_    0.142850 0.826670 0.577474 0.246809
H5    H     H_    0.290672 0.848831 0.672380 0.249043
H6    H     H_    0.153032 0.975666 0.665430 0.220912
H7    H     H_    0.756218 0.514187 0.868340 0.358654
H8    H     H_    0.237479 0.589325 0.136989 0.360184
H9    H     H_    0.800065 0.597770 0.620772 0.377953
H10   H     H_    0.198223 0.402674 0.378006 0.379453
H11   H     H_    0.780547 0.357080 0.282579 0.218115
H12   H     H_    0.898827 0.853859 0.741975 0.159873
H13   H     H_    0.877082 0.474392 0.260686 0.249518
H14   H     H_    0.949077 0.314817 0.324102 0.210758
H15   H     H_    0.220735 0.638878 0.719745 0.233044
H16   H     H_    0.052794 0.684347 0.678033 0.213476
H17   H     H_    0.121786 0.522820 0.738473 0.242262
H18   H     H_    0.946701 0.009483 0.596394 0.149081
H19   H     H_    0.053315 0.989988 0.404077 0.149164
H20   H     H_    0.686927 0.783301 0.710623 0.130866
H21   H     H_    0.312887 0.216559 0.290065 0.133369
H22   H     H_    0.402349 0.416716 0.882256 0.182003
H23   H     H_    0.607249 0.385744 0.108032 0.169307
H24   H     H_    0.709400 0.150538 0.328131 0.243700
N1    N     N_2   0.157300 0.551390 0.551120 -0.118261
N2    N     N_2   0.842700 0.448610 0.448880 -0.117537
O1    O     O_R   0.568940 0.489660 0.307530 -0.619675
O2    O     O_3   0.293044 0.541083 0.073064 -0.760486
O3    O     O_3   0.894371 0.562588 0.629421 -0.835508
O4    O     O_3   0.104621 0.441392 0.368484 -0.824899
O5    O     O_R   0.431060 0.510340 0.692470 -0.627873
O6    O     O_R   0.348880 0.522640 0.340350 -0.609291
O7    O     O_R   0.651120 0.477360 0.659650 -0.609747
O8    O     O_R   0.610030 0.300280 0.483580 -0.593954
O9    O     O_R   0.389970 0.699720 0.516420 -0.590554
O10   O     O_R   0.389970 0.333270 0.516400 -0.616400
O11   O     O_R   0.610030 0.666730 0.483600 -0.609630
O12   O     O_3   0.705159 0.480950 0.928253 -0.759542
Zn1   Zn    Zn3+2 0.646940 0.477980 0.478080 0.948915
Zn2   Zn    Zn3+2 0.353060 0.522020 0.521920 0.943597

loop_
_geom_bond_atom_site_label_1
_geom_bond_atom_site_label_2
_ccdc_geom_bond_type
O1    Zn1   S    
C7    H12   S    
C19   H6    S    
H8    O2    S    
C6    C8    A    
O5    Zn2   S    
C4    C19   S    
C21   H16   S    
C2    C16   S    
C5    H18   S    
O7    Zn1   S    
C20   H14   S    
C14   C17   A    
C13   C17   A    
C2    O11   A    
C7    C9    A    
C24   H23   S    
C23   C25   D    
C20   H13   S    
C1    O1    A    
C27   N2    D    
C18   H24   S    
C1    C22   S    
N2    Zn1   S    
C21   H15   S    
C24   C25   S    
C21   N1    S    
C12   O7    A    
C9    C11   A    
C12   C23   S    
C26   C27   S    
C10   H21   S    
C3    C14   A    
O8    Zn1   S    
C4    C15   A    
C18   H2    S    
C19   H4    S    
C28   O10   A    
C23   O12   S    
C4    C6    A    
C12   O5    A    
C21   H17   S    
C13   C15   A    
C27   O3    S    
C11   C14   A    
C22   C24   D    
C11   C16   A    
C6    H19   S    
C8    H1    S    
C20   H11   S    
C15   C16   A    
C26   N1    D    
O10   Zn2   S    
C9    H20   S    
C2    O9    A    
O6    Zn2   S    
C3    C18   S    
C20   N2    S    
C19   H5    S    
C1    O6    A    
C5    C7    A    
N1    Zn2   S    
O9    Zn2   S    
C22   O2    S    
C18   H3    S    
H7    O12   S    
C3    C5    A    
H10   O4    S    
C17   C28   S    
C25   H22   S    
C26   O4    S    
C8    C10   A    
H9    O3    S    
O11   Zn1   S    
C10   C13   A    
C28   O8    A    
