data_mof_unit_39462.cif
_audit_creation_date              2012-12-11T14:34:05-0500
_audit_creation_method            fapswitch 2.2
_symmetry_space_group_name_H-M    P1
_symmetry_Int_Tables_number       1
_space_group_crystal_system       triclinic
_cell_length_a                    14.040883
_cell_length_b                    14.148107
_cell_length_c                    27.203783
_cell_angle_alpha                 89.781599
_cell_angle_beta                  90.574476
_cell_angle_gamma                 119.831014
_cell_volume                      4687.78265679

loop_
_atom_site_label
_atom_site_type_symbol
_atom_type_description
_atom_site_fract_x
_atom_site_fract_y
_atom_site_fract_z
_atom_type_partial_charge
C1    C     C_R   0.237714 0.784605 0.570118 0.540743
C2    C     C_1   0.711587 0.863693 0.859808 0.081375
C3    C     C_1   0.105780 0.882127 0.852129 0.074792
C4    C     C_1   0.104776 0.227998 0.852634 0.075059
C5    C     C_1   0.630201 0.812881 0.658231 0.095041
C6    C     C_1   0.193486 0.804111 0.661733 0.098135
C7    C     C_1   0.199044 0.402512 0.664034 0.102032
C8    C     C_1   0.601933 0.795444 0.615988 0.089423
C9    C     C_1   0.211652 0.796519 0.619332 0.096244
C10   C     C_1   0.207702 0.424411 0.621083 0.100630
C11   C     C_R   0.108610 0.224506 0.086914 0.590225
C12   C     C_R   0.216851 0.455848 0.570872 0.546739
C13   C     C_R   0.776154 0.884167 0.087086 0.575175
C14   C     C_R   0.117570 0.891517 0.086216 0.588687
C15   C     C_R   0.067446 0.158617 0.943771 0.521746
C16   C     C_R   0.780301 0.887228 0.950963 0.551399
C17   C     C_R   0.089383 0.930694 0.943749 0.519490
C18   C     C_R   0.624683 0.894038 0.359743 0.386008
C19   C     C_R   0.103871 0.729904 0.359323 0.385998
C20   C     C_R   0.269065 0.374364 0.360192 0.387049
C21   C     C_R   0.643666 0.909603 0.308833 0.000255
C22   C     C_R   0.089359 0.733292 0.308184 -0.000016
C23   C     C_R   0.552811 0.765090 0.568573 0.535687
C24   C     C_R   0.266879 0.356848 0.309179 0.000320
C25   C     C_R   0.678974 0.937426 0.205691 -0.033678
C26   C     C_R   0.064362 0.740379 0.204593 -0.034785
C27   C     C_R   0.261326 0.323554 0.205859 -0.033761
C28   C     C_R   0.233830 0.787961 0.430924 0.562216
C29   C     C_R   0.211699 0.446557 0.430728 0.567161
C30   C     C_R   0.553159 0.765165 0.430801 0.560363
C31   C     C_R   0.696065 0.026323 0.236476 0.156112
C32   C     C_R   0.974490 0.667134 0.234578 0.152709
C33   C     C_R   0.334077 0.306870 0.237142 0.150736
C34   C     C_3   0.672083 0.737880 0.788564 0.018437
C35   C     C_R   0.672833 0.009739 0.286756 0.417777
C36   C     C_R   0.989807 0.661006 0.285206 0.411841
C37   C     C_R   0.339160 0.328362 0.287618 0.413599
C38   C     C_R   0.700059 0.946908 0.154420 0.072017
C39   C     C_R   0.056146 0.752208 0.153138 0.072609
C40   C     C_R   0.249403 0.302026 0.154518 0.071192
C41   C     C_R   0.703435 0.861278 0.129641 -0.030768
C42   C     C_R   0.141672 0.842610 0.129105 -0.031508
C43   C     C_R   0.159244 0.297941 0.129349 -0.031924
C44   C     C_R   0.614135 0.717603 0.353227 0.042809
C45   C     C_3   0.245641 0.946011 0.786584 0.009851
C46   C     C_R   0.279195 0.897891 0.354006 0.044711
C47   C     C_R   0.103604 0.388073 0.352199 0.042748
C48   C     C_R   0.610572 0.724119 0.302007 -0.064264
C49   C     C_R   0.274696 0.888200 0.302867 -0.065260
C50   C     C_R   0.114329 0.391907 0.301077 -0.064685
C51   C     C_R   0.631976 0.822551 0.279545 -0.098772
C52   C     C_R   0.177178 0.809828 0.279583 -0.099337
C53   C     C_R   0.191808 0.369823 0.279260 -0.099010
C54   C     C_R   0.582434 0.632712 0.272926 -0.047340
C55   C     C_R   0.367428 0.952844 0.274766 -0.046803
C56   C     C_3   0.042025 0.308430 0.785440 0.015409
C57   C     C_R   0.051346 0.421083 0.271474 -0.047775
C58   C     C_R   0.583608 0.639593 0.222223 0.397977
C59   C     C_R   0.362430 0.947087 0.224034 0.396687
C60   C     C_R   0.057166 0.419653 0.220829 0.397483
C61   C     C_R   0.622480 0.741464 0.199001 0.032490
C62   C     C_R   0.260859 0.882941 0.199772 0.031294
C63   C     C_R   0.120386 0.380046 0.198160 0.032200
C64   C     C_3   0.571363 0.855929 0.735919 -0.252890
C65   C     C_3   0.145663 0.721878 0.747028 -0.253970
C66   C     C_3   0.273703 0.433664 0.751374 -0.250500
C67   C     C_3   0.634150 0.718445 0.734101 0.701460
C68   C     C_R   0.644585 0.834107 0.228005 -0.072409
C69   C     C_R   0.167190 0.810787 0.227905 -0.073023
C70   C     C_R   0.191407 0.357747 0.227700 -0.072308
C71   C     C_R   0.647148 0.755381 0.148636 0.109141
C72   C     C_R   0.247869 0.894213 0.149200 0.107785
C73   C     C_R   0.109166 0.354544 0.147819 0.109748
C74   C     C_R   0.605993 0.796446 0.382059 -0.009007
C75   C     C_R   0.200877 0.809686 0.382288 -0.009090
C76   C     C_R   0.189992 0.394120 0.381807 -0.010039
C77   C     C_3   0.773025 0.920591 0.722263 0.453265
C78   C     C_3   0.273072 0.921272 0.734747 0.705405
C79   C     C_3   0.070005 0.838844 0.711811 0.439921
C80   C     C_3   0.158490 0.244885 0.714304 0.431359
C81   C     C_3   0.791055 0.938176 0.779155 0.284630
C82   C     C_3   0.047175 0.864316 0.764469 0.330925
C83   C     C_3   0.124326 0.193388 0.765910 0.322433
C84   C     C_1   0.737013 0.873931 0.902459 0.071565
C85   C     C_1   0.096770 0.904314 0.893825 0.063528
C86   C     C_1   0.088620 0.193994 0.893986 0.063957
C87   C     C_3   0.653122 0.827450 0.711114 -0.085127
C88   C     C_3   0.170683 0.820088 0.712602 -0.078908
C89   C     C_3   0.074837 0.365499 0.734451 0.701550
C90   C     C_3   0.178081 0.363579 0.714872 -0.072983
C91   C     C_3   0.593138 0.870334 0.792160 0.391937
C92   C     C_3   0.106267 0.738419 0.798137 0.374167
C93   C     C_3   0.249019 0.376426 0.802587 0.368222
C94   C     C_3   0.689444 0.850727 0.806757 -0.095083
C95   C     C_3   0.126742 0.857504 0.802227 -0.105613
C96   C     C_3   0.129398 0.277203 0.803469 -0.101357
Cr1   Cr    Cr6+3 0.164410 0.584450 0.499910 1.149913
Cr2   Cr    Cr6+3 0.415550 0.579960 0.499910 1.151169
Cr3   Cr    Cr6+3 0.420040 0.835590 0.499910 1.147394
Cr4   Cr    Cr6+3 0.155170 0.075460 0.019960 1.117093
Cr5   Cr    Cr6+3 0.924540 0.079710 0.019960 1.105970
Cr6   Cr    Cr6+3 0.920290 0.844830 0.019960 1.115300
F1    F     F_    0.619368 0.975473 0.805048 -0.582015
F2    F     F_    0.552535 0.545968 0.197262 -0.585830
F3    F     F_    0.457399 0.010306 0.200006 -0.585507
F4    F     F_    0.994188 0.450881 0.195340 -0.586329
F5    F     F_    0.847117 0.892906 0.703251 -0.453378
F6    F     F_    0.091491 0.925494 0.680876 -0.453902
F7    F     F_    0.076358 0.182794 0.680414 -0.464198
F8    F     F_    0.881135 0.931169 0.794713 -0.552936
F9    F     F_    0.062350 0.967332 0.765119 -0.500661
F10   F     F_    0.018023 0.108678 0.763036 -0.493437
F11   F     F_    0.523883 0.640318 0.730821 -0.619709
F12   F     F_    0.994357 0.665596 0.801221 -0.591745
F13   F     F_    0.360534 0.901813 0.737436 -0.593203
F14   F     F_    0.097471 0.472306 0.738395 -0.612735
F15   F     F_    0.692326 0.679177 0.708739 -0.517679
F16   F     F_    0.304629 0.011053 0.704628 -0.510669
F17   F     F_    0.987988 0.313537 0.701651 -0.515802
F18   F     F_    0.322661 0.339184 0.810328 -0.597251
F19   F     F_    0.624136 0.973258 0.387663 -0.527084
F20   F     F_    0.024577 0.649114 0.386781 -0.527424
F21   F     F_    0.347985 0.372709 0.388941 -0.525135
F22   F     F_    0.686387 0.094941 0.314852 -0.517489
F23   F     F_    0.903824 0.588323 0.312646 -0.518628
F24   F     F_    0.411154 0.314501 0.316301 -0.516722
H1    H     H_    0.485423 0.791381 0.727953 0.200662
H2    H     H_    0.578755 0.931634 0.719892 0.213025
H3    H     H_    0.081826 0.644501 0.730126 0.238753
H4    H     H_    0.352742 0.445428 0.737206 0.236722
H5    H     H_    0.807281 0.020961 0.789317 0.194935
H6    H     H_    0.960514 0.808164 0.774764 0.226883
H7    H     H_    0.177737 0.160627 0.778446 0.206780
H8    H     H_    0.219722 0.713287 0.751714 0.198598
H9    H     H_    0.284764 0.516763 0.754961 0.202524
H10   H     H_    0.753128 0.741682 0.790204 0.199860
H11   H     H_    0.247622 0.025465 0.784194 0.194847
H12   H     H_    0.962186 0.232145 0.780439 0.200639
H13   H     H_    0.555931 0.553612 0.289091 0.204884
H14   H     H_    0.446134 0.006461 0.291804 0.210389
H15   H     H_    0.998495 0.448090 0.287185 0.206629
I1    I     I_    0.449051 0.768017 0.831400 -0.111331
I2    I     I_    0.594404 0.622038 0.097673 -0.081263
I3    I     I_    0.383020 0.980881 0.099780 -0.072624
I4    I     I_    0.025764 0.404745 0.096187 -0.064524
I5    I     I_    0.650323 0.598143 0.384361 0.014652
I6    I     I_    0.394565 0.053545 0.385843 0.014679
I7    I     I_    0.948128 0.355393 0.382007 0.024451
I8    I     I_    0.806027 0.070189 0.686469 0.066865
I9    I     I_    0.924762 0.699988 0.681554 0.058742
I10   I     I_    0.301330 0.237892 0.690009 0.061194
I11   I     I_    0.581986 0.597067 0.834668 -0.027304
I12   I     I_    0.170751 0.691377 0.859325 -0.070773
I13   I     I_    0.375423 0.990653 0.840360 -0.018244
I14   I     I_    0.987227 0.385616 0.837345 -0.029844
I15   I     I_    0.279433 0.485198 0.863203 -0.088712
I16   I     I_    0.688401 0.063228 0.107442 -0.092362
I17   I     I_    0.942525 0.624749 0.105167 -0.078157
I18   I     I_    0.377300 0.313573 0.107898 -0.078008
I19   I     I_    0.779127 0.195212 0.217636 -0.001114
I20   I     I_    0.805177 0.577401 0.213689 0.010854
I21   I     I_    0.425282 0.228453 0.218461 0.010091
O1    O     O_R   0.137150 0.468200 0.553200 -0.471980
O2    O     O_R   0.140110 0.470540 0.446010 -0.480258
O3    O     O_R   0.529460 0.669570 0.446010 -0.482473
O4    O     O_R   0.330430 0.859890 0.446010 -0.479010
O5    O     O_R   0.176710 0.690910 0.450560 -0.434171
O6    O     O_R   0.309090 0.485800 0.450560 -0.432804
O7    O     O_R   0.514200 0.823290 0.450560 -0.433238
O8    O     O_3   0.333333 0.666667 0.499990 -0.354491
O9    O     O_R   0.176750 0.985260 0.074180 -0.479238
O10   O     O_R   0.014740 0.191490 0.074180 -0.476150
O11   O     O_R   0.808510 0.823250 0.074180 -0.478734
O12   O     O_R   0.531800 0.668950 0.553200 -0.473654
O13   O     O_R   0.146100 0.172630 0.068980 -0.477194
O14   O     O_R   0.827370 0.973470 0.068980 -0.481563
O15   O     O_R   0.026530 0.853900 0.068980 -0.476380
O16   O     O_3   1.000000 1.000000 0.020040 -0.313667
O17   O     O_R   0.148270 0.170520 0.969620 -0.483908
O18   O     O_R   0.829480 0.977750 0.969620 -0.518659
O19   O     O_R   0.022250 0.851730 0.969620 -0.468114
O20   O     O_R   0.331050 0.862850 0.553200 -0.470377
O21   O     O_R   0.179100 0.982980 0.967000 -0.474613
O22   O     O_R   0.017020 0.196120 0.967000 -0.465420
O23   O     O_R   0.803880 0.820900 0.967000 -0.494893
O24   O     O_R   0.173970 0.688730 0.549930 -0.499706
O25   O     O_R   0.311270 0.485240 0.549930 -0.493210
O26   O     O_R   0.514760 0.826030 0.549930 -0.498553

loop_
_geom_bond_atom_site_label_1
_geom_bond_atom_site_label_2
_ccdc_geom_bond_type
C25   C31   A    
C65   C92   S    
C19   F20   S    
C26   C32   A    
C55   C59   A    
C13   O14   A    
C18   C21   A    
C40   I18   S    
C2    C84   T    
C78   F13   S    
Cr4   O16   S    
C6    C9    T    
C13   C41   S    
C66   C90   S    
C29   C76   S    
C1    O24   A    
C27   C33   A    
Cr6   O11   S    
C13   O11   A    
C46   C49   A    
C59   F3    S    
C60   C63   A    
C17   C85   S    
C32   C36   A    
C29   O6    A    
C22   C52   A    
C35   F22   S    
C78   F16   S    
C12   O1    A    
C47   C76   A    
C15   O17   A    
C16   O23   A    
C56   I14   S    
C23   O26   A    
C30   C74   S    
C26   C39   A    
C81   H5    S    
C4    C86   T    
C16   O18   A    
C16   C84   S    
C8    C23   S    
C6    C88   S    
C20   C76   A    
Cr5   O10   S    
C72   I3    S    
C7    C10   T    
Cr4   O21   S    
C79   C88   S    
Cr3   O20   S    
Cr5   O16   S    
C28   O5    A    
C4    C96   S    
C66   C93   S    
C43   C73   A    
C40   C43   A    
C20   C24   A    
Cr1   O1    S    
C80   F7    S    
C44   I5    S    
C11   C43   S    
C45   C78   S    
C52   C69   A    
C93   F18   S    
C34   H10   S    
C39   C42   A    
C64   C87   S    
C65   H8    S    
C28   O4    A    
C41   C71   A    
Cr3   O4    S    
C61   C71   A    
C58   C61   A    
C89   F14   S    
C11   O10   A    
C18   C74   A    
C15   O22   A    
Cr4   O9    S    
Cr6   O19   S    
C29   O2    A    
C25   C68   A    
C80   C83   S    
C53   C70   A    
C10   C12   S    
C42   C72   A    
C46   C75   A    
C47   C50   A    
C48   C51   A    
Cr1   O24   S    
C26   C69   A    
C50   C53   A    
Cr6   O23   S    
C89   F17   S    
C2    C94   S    
C19   C22   A    
C1    C9    S    
C30   O3    A    
C38   C41   A    
Cr4   O17   S    
C77   I8    S    
C23   O12   A    
C34   I11   S    
C57   C60   A    
C63   C73   A    
C64   H2    S    
C24   C53   A    
C49   C55   A    
C12   O25   A    
C92   C95   S    
C33   C37   A    
Cr1   O8    S    
C62   C69   A    
C73   I4    S    
C5    C87   S    
C48   C54   A    
C30   O7    A    
Cr2   O25   S    
C25   C38   A    
C79   C82   S    
C56   H12   S    
C17   O21   A    
C46   I6    S    
C63   C70   A    
C77   C81   S    
C27   C40   A    
C49   C52   A    
C32   I20   S    
Cr4   O13   S    
C45   H11   S    
C24   C37   A    
C62   C72   A    
C44   C74   A    
C77   F5    S    
C67   F15   S    
C92   I12   S    
C27   C70   A    
Cr3   O26   S    
C20   F21   S    
C79   I9    S    
C21   C35   A    
C56   C89   S    
C34   C94   S    
C93   C96   S    
C15   C86   S    
C39   I17   S    
Cr6   O16   S    
C31   C35   A    
C3    C85   T    
C58   F2    S    
C82   H6    S    
C45   C95   S    
C21   C51   A    
C60   F4    S    
C65   C88   S    
C71   I2    S    
C37   F24   S    
C54   C58   A    
C80   I10   S    
C78   C88   S    
C56   C96   S    
C47   I7    S    
C59   C62   A    
Cr5   O22   S    
C82   C95   S    
C50   C57   A    
C67   C87   S    
C93   I15   S    
C31   I19   S    
C38   I16   S    
C91   F1    S    
C14   O9    A    
C34   C67   S    
C5    C8    T    
C65   H3    S    
C1    O20   A    
Cr3   O7    S    
C57   H15   S    
C22   C36   A    
C11   O13   A    
C14   C42   S    
Cr1   O2    S    
Cr3   O8    S    
C82   F9    S    
C91   I1    S    
C19   C75   A    
C33   I21   S    
C67   F11   S    
Cr5   O18   S    
Cr1   O5    S    
C64   H1    S    
C81   C94   S    
C7    C90   S    
C61   C68   A    
C14   O15   A    
Cr2   O12   S    
C83   C96   S    
C79   F6    S    
C54   H13   S    
C51   C68   A    
C80   C90   S    
C83   H7    S    
Cr2   O3    S    
C55   H14   S    
C18   F19   S    
C66   H9    S    
Cr2   O8    S    
C17   O19   A    
C36   F23   S    
C81   F8    S    
C77   C87   S    
Cr6   O15   S    
C83   F10   S    
Cr5   O14   S    
C3    C95   S    
C45   I13   S    
C64   C91   S    
C66   H4    S    
C89   C90   S    
C28   C75   S    
C92   F12   S    
Cr2   O6    S    
C44   C48   A    
C91   C94   S    
