data_mof_unit_51356.cif
_audit_creation_date              2012-12-11T15:39:27-0500
_audit_creation_method            fapswitch 2.2
_symmetry_space_group_name_H-M    P1
_symmetry_Int_Tables_number       1
_space_group_crystal_system       triclinic
_cell_length_a                    14.345356
_cell_length_b                    14.791016
_cell_length_c                    33.194736
_cell_angle_alpha                 97.624231
_cell_angle_beta                  90.368384
_cell_angle_gamma                 118.923212
_cell_volume                      6090.04843207

loop_
_atom_site_label
_atom_site_type_symbol
_atom_type_description
_atom_site_fract_x
_atom_site_fract_y
_atom_site_fract_z
_atom_type_partial_charge
C1    C     C_R   0.616903 0.910257 0.437013 0.544725
C2    C     C_R   0.712400 0.438228 0.949089 0.533520
C3    C     C_R   0.709482 0.813933 0.769274 -0.108530
C4    C     C_R   0.705151 0.837434 0.730419 -0.113895
C5    C     C_R   0.675002 0.759898 0.696130 0.025496
C6    C     C_R   0.647738 0.657421 0.701557 -0.112067
C7    C     C_R   0.653045 0.633935 0.740803 -0.066006
C8    C     C_R   0.684188 0.712477 0.774867 0.062576
C9    C     C_R   0.575885 0.725585 0.628725 -0.114021
C10   C     C_R   0.560701 0.761638 0.593771 -0.124180
C11   C     C_R   0.732955 0.917960 0.610089 -0.123483
C12   C     C_R   0.743145 0.716488 0.945835 0.567940
C13   C     C_R   0.829641 0.440054 0.165244 -0.118500
C14   C     C_R   0.827708 0.453272 0.124478 -0.124631
C15   C     C_R   0.780893 0.355804 0.246560 -0.112796
C16   C     C_R   0.773745 0.343232 0.287478 -0.109828
C17   C     C_R   0.732975 0.395371 0.314052 0.031937
C18   C     C_R   0.705234 0.464794 0.299569 -0.112081
C19   C     C_R   0.711835 0.476868 0.258632 -0.111706
C20   C     C_R   0.746705 0.420075 0.231652 0.030085
C21   C     C_R   0.742067 0.424250 0.187750 0.031459
C22   C     C_R   0.606875 0.345861 0.368555 -0.116035
C23   C     C_R   0.594073 0.205632 0.456657 0.539281
C24   C     C_R   0.572520 0.299146 0.403276 -0.118760
C25   C     C_R   0.740697 0.300205 0.413024 -0.124833
C26   C     C_R   0.775140 0.347214 0.378355 -0.118425
C27   C     C_R   0.706894 0.366736 0.354985 0.031787
C28   C     C_R   0.637486 0.272154 0.424858 0.018231
C29   C     C_R   0.245488 0.877360 0.392995 0.032451
C30   C     C_R   0.208312 0.944074 0.381436 0.226755
C31   C     C_R   0.187004 0.943014 0.340064 -0.075303
C32   C     C_R   0.747987 0.881934 0.645018 -0.120396
C33   C     C_R   0.201238 0.875795 0.310147 -0.001697
C34   C     C_R   0.230370 0.804768 0.321459 -0.129482
C35   C     C_R   0.294948 0.892496 0.434462 0.569684
C36   C     C_R   0.251843 0.805123 0.362470 -0.165370
C37   C     C_R   0.198091 0.810431 0.163002 -0.112096
C38   C     C_R   0.168781 0.787491 0.121215 -0.124359
C39   C     C_R   0.092021 0.902650 0.129271 -0.127668
C40   C     C_R   0.120860 0.924968 0.171187 -0.113881
C41   C     C_R   0.170475 0.875890 0.188228 0.039266
C42   C     C_1   0.182201 0.882182 0.231637 -0.024915
C43   C     C_R   0.667974 0.787213 0.655384 0.031274
C44   C     C_1   0.190168 0.881328 0.267673 -0.024870
C45   C     C_R   0.111291 0.829792 0.104220 0.020862
C46   C     C_R   0.637354 0.878569 0.395481 0.020113
C47   C     C_R   0.614139 0.904739 0.551500 0.545295
C48   C     C_R   0.552349 0.800410 0.368365 -0.130320
C49   C     C_R   0.564584 0.788301 0.326659 -0.117403
C50   C     C_R   0.661923 0.853412 0.311800 0.036661
C51   C     C_R   0.749131 0.926008 0.338805 -0.108799
C52   C     C_R   0.737091 0.938473 0.380488 -0.115922
C53   C     C_R   0.778686 0.920227 0.174735 -0.114693
C54   C     C_R   0.637554 0.859833 0.584843 0.020122
C55   C     C_R   0.793793 0.907138 0.133305 -0.128168
C56   C     C_R   0.618612 0.752545 0.121544 -0.124397
C57   C     C_R   0.603622 0.766000 0.162888 -0.114777
C58   C     C_R   0.685144 0.847565 0.189675 0.039601
C59   C     C_R   0.589930 0.199815 0.570792 0.536786
C60   C     C_1   0.676676 0.850634 0.232709 -0.031738
C61   C     C_1   0.670077 0.851343 0.268781 -0.032244
C62   C     C_R   0.715678 0.820462 0.106666 0.022189
C63   C     C_R   0.624664 0.252917 0.613346 0.019279
C64   C     C_R   0.561555 0.287543 0.635505 -0.129577
C65   C     C_R   0.052237 0.781419 0.063759 0.545282
C66   C     C_R   0.579764 0.315027 0.677820 -0.117774
C67   C     C_R   0.661202 0.308431 0.698311 0.036522
C68   C     C_R   0.729239 0.281484 0.676307 -0.114560
C69   C     C_R   0.711478 0.254310 0.633982 -0.127957
C70   C     C_R   0.764817 0.351097 0.844417 -0.116752
C71   C     C_R   0.288810 0.886637 0.548430 0.546997
C72   C     C_R   0.773100 0.374193 0.886866 -0.126490
C73   C     C_R   0.595174 0.354751 0.884283 -0.114194
C74   C     C_R   0.587168 0.331712 0.841852 -0.088703
C75   C     C_R   0.673421 0.333572 0.821886 0.035637
C76   C     C_R   0.743981 0.486848 0.066224 0.546792
C77   C     C_1   0.670998 0.325199 0.778377 -0.017736
C78   C     C_1   0.668047 0.319074 0.741894 -0.022595
C79   C     C_R   0.690241 0.380998 0.907119 0.016391
C80   C     C_R   0.061818 0.750240 0.907137 -0.035407
C81   C     C_R   0.098927 0.848692 0.895203 -0.099062
C82   C     C_R   0.114009 0.860379 0.854390 0.376559
C83   C     C_R   0.737889 0.450348 0.105737 0.021175
C84   C     C_R   0.091219 0.773081 0.825031 0.033704
C85   C     C_R   0.060252 0.676119 0.837483 -0.175219
C86   C     C_R   0.046311 0.664902 0.878254 -0.136044
C87   C     C_R   0.742972 0.789257 0.066410 0.553715
C88   C     C_R   0.145243 0.733992 0.756857 -0.114577
C89   C     C_R   0.150419 0.740849 0.715542 -0.109529
C90   C     C_R   0.106929 0.794934 0.697973 0.026916
C91   C     C_R   0.056055 0.840224 0.722170 -0.114458
C92   C     C_R   0.050562 0.833021 0.763606 -0.057956
C93   C     C_R   0.096445 0.781028 0.781323 0.060283
C94   C     C_R   0.171434 0.915620 0.646745 -0.113841
C95   C     C_R   0.647697 0.427360 0.127671 -0.122693
C96   C     C_R   0.217481 0.938630 0.610040 -0.123373
C97   C     C_R   0.164630 0.755686 0.589340 -0.122264
C98   C     C_R   0.020874 0.731703 0.947215 0.537402
C99   C     C_R   0.118258 0.732708 0.625894 -0.121411
C100  C     C_R   0.126622 0.813410 0.655706 0.031301
C101  C     C_R   0.219425 0.859618 0.582117 0.024815
C102  C     C_R   0.725309 0.701440 0.901102 -0.026119
C103  C     C_R   0.626925 0.629114 0.879440 -0.089441
C104  C     C_R   0.612808 0.625749 0.837193 0.246302
C105  C     C_R   0.698438 0.694217 0.816538 0.033893
C106  C     C_R   0.798321 0.759437 0.837968 -0.162662
C107  C     C_R   0.649983 0.414806 0.168369 -0.119503
C108  C     C_R   0.811477 0.763237 0.879620 -0.133862
Cl1   Cl    Cl    0.188374 0.031130 0.417220 -0.609958
Cl2   Cl    Cl    0.485339 0.541606 0.812001 -0.632864
Cr1   Cr    Cr6+3 0.424820 0.846020 0.489780 1.014177
Cr2   Cr    Cr6+3 0.657880 0.078580 0.505700 1.017605
Cr3   Cr    Cr6+3 0.417280 0.075360 0.504550 1.079031
Cr4   Cr    Cr6+3 0.903360 0.812540 0.006510 1.015510
Cr5   Cr    Cr6+3 0.914630 0.587050 0.006280 1.012838
Cr6   Cr    Cr6+3 0.673560 0.582680 0.008540 1.020886
F1    F     F_    0.149077 0.956320 0.843574 -0.640248
H1    H     H_    0.577114 0.424073 0.114041 0.131366
H2    H     H_    0.047011 0.935751 0.117158 0.125040
H3    H     H_    0.898488 0.471055 0.108346 0.129517
H4    H     H_    0.162011 0.996495 0.331236 0.141303
H5    H     H_    0.869576 0.960318 0.122797 0.121935
H6    H     H_    0.842119 0.983729 0.195376 0.105974
H7    H     H_    0.824948 0.976288 0.327480 0.116191
H8    H     H_    0.804052 0.999122 0.400615 0.142894
H9    H     H_    0.474468 0.753382 0.378925 0.124377
H10   H     H_    0.530804 0.709675 0.174258 0.105196
H11   H     H_    0.556961 0.685233 0.101724 0.123775
H12   H     H_    0.492734 0.278745 0.411766 0.155823
H13   H     H_    0.496789 0.731611 0.305867 0.105196
H14   H     H_    0.847474 0.394275 0.903473 0.130246
H15   H     H_    0.853282 0.364199 0.368820 0.108038
H16   H     H_    0.831783 0.352197 0.829121 0.112524
H17   H     H_    0.792646 0.276447 0.692007 0.110979
H18   H     H_    0.761515 0.228043 0.617834 0.128966
H19   H     H_    0.494378 0.287678 0.620497 0.130726
H20   H     H_    0.515916 0.317790 0.824552 0.157933
H21   H     H_    0.530103 0.359722 0.898832 0.148204
H22   H     H_    0.527046 0.336339 0.694703 0.123463
H23   H     H_    0.901225 0.447026 0.179690 0.106057
H24   H     H_    0.111675 0.915477 0.917176 0.145604
H25   H     H_    0.016268 0.587793 0.886615 0.144081
H26   H     H_    0.082165 0.653014 0.632031 0.108382
H27   H     H_    0.794238 0.288051 0.297722 0.106180
H28   H     H_    0.192380 0.707452 0.697652 0.115896
H29   H     H_    0.181733 0.694112 0.769915 0.123179
H30   H     H_    0.021961 0.882159 0.709123 0.106118
H31   H     H_    0.010863 0.868363 0.781749 0.146472
H32   H     H_    0.179000 0.979127 0.669415 0.117863
H33   H     H_    0.258541 0.019308 0.604996 0.132034
H34   H     H_    0.793084 0.281543 0.429434 0.129107
H35   H     H_    0.041912 0.607730 0.815391 0.120529
H36   H     H_    0.163094 0.693031 0.567838 0.130163
H37   H     H_    0.560198 0.578856 0.895412 0.158999
H38   H     H_    0.807850 0.311261 0.226167 0.105342
H39   H     H_    0.888773 0.817904 0.895397 0.150933
H40   H     H_    0.820514 0.930106 0.664858 0.105275
H41   H     H_    0.724019 0.916312 0.727223 0.112935
H42   H     H_    0.733305 0.875486 0.795215 0.122047
H43   H     H_    0.624044 0.596306 0.675491 0.107120
H44   H     H_    0.634732 0.555522 0.744533 0.141533
H45   H     H_    0.184684 0.731183 0.102697 0.126567
H46   H     H_    0.512884 0.652574 0.636144 0.113573
H47   H     H_    0.486583 0.714591 0.574743 0.129262
H48   H     H_    0.865162 0.812111 0.822734 0.121800
H49   H     H_    0.580602 0.400101 0.185038 0.107467
H50   H     H_    0.794083 0.993342 0.603854 0.130399
H51   H     H_    0.675128 0.506998 0.319612 0.109544
H52   H     H_    0.687318 0.528705 0.247783 0.110513
H53   H     H_    0.552179 0.359149 0.350872 0.110826
H54   H     H_    0.236649 0.772195 0.175950 0.107837
H55   H     H_    0.240519 0.751629 0.298457 0.117760
H56   H     H_    0.279919 0.752858 0.369984 0.132824
H57   H     H_    0.098990 0.975623 0.190521 0.107766
O1    O     O_R   0.318160 0.824460 0.443680 -0.534356
O2    O     O_R   0.668160 0.499860 0.053480 -0.515325
O3    O     O_R   0.689170 0.693840 0.050110 -0.494742
O4    O     O_R   0.525040 0.857250 0.449830 -0.504907
O5    O     O_R   0.803860 0.812940 0.962540 -0.501023
O6    O     O_R   0.982950 0.787950 0.964120 -0.526616
O7    O     O_R   0.007050 0.649970 0.960540 -0.508740
O8    O     O_R   0.807910 0.482370 0.965590 -0.504034
O9    O     O_R   0.643310 0.460980 0.963840 -0.522721
O10   O     O_R   0.666140 0.657800 0.967020 -0.496339
O11   O     O_3   0.830520 0.660760 0.007110 -0.265633
O12   O     O_R   0.645130 0.163230 0.552140 -0.504342
O13   O     O_R   0.684760 0.998800 0.456360 -0.512815
O14   O     O_R   0.647540 0.166310 0.470260 -0.505690
O15   O     O_R   0.500960 0.181750 0.467450 -0.494181
O16   O     O_R   0.331100 0.981120 0.457080 -0.433579
O17   O     O_R   0.315560 0.821140 0.532010 -0.520173
O18   O     O_R   0.522630 0.854180 0.531710 -0.500552
O19   O     O_R   0.682160 0.995480 0.544690 -0.516066
O20   O     O_R   0.498360 0.178430 0.555780 -0.517163
O21   O     O_R   0.328690 0.978040 0.538950 -0.494179
O22   O     O_3   0.499990 0.999990 0.500010 -0.248472
O23   O     O_R   0.828710 0.851830 0.052170 -0.513900
O24   O     O_R   0.005980 0.823990 0.047210 -0.500369
O25   O     O_R   0.031900 0.688850 0.050170 -0.513613
O26   O     O_R   0.830940 0.518420 0.048680 -0.498123

loop_
_geom_bond_atom_site_label_1
_geom_bond_atom_site_label_2
_ccdc_geom_bond_type
C11   H50   S    
C64   H19   S    
C41   C42   S    
Cr1   O17   S    
C80   C81   A    
C92   H31   S    
C73   C74   A    
C19   C20   A    
C8    C105  S    
Cr2   O13   S    
C91   H30   S    
C81   C82   A    
C90   C91   A    
C26   H15   S    
C7    C8    A    
C12   O10   A    
C77   C78   T    
C25   C28   A    
C89   H28   S    
Cr3   O16   S    
C7    H44   S    
C29   C36   A    
C26   C27   A    
C37   C38   A    
Cr4   O11   S    
Cr1   O1    S    
C99   H26   S    
C16   H27   S    
C72   C79   A    
Cr2   O12   S    
C30   C31   A    
Cr5   O11   S    
C1    C46   S    
C73   H21   S    
C58   C60   S    
C15   C16   A    
Cr6   O9    S    
C46   C52   A    
C56   C57   A    
C59   O12   A    
C17   C18   A    
C18   C19   A    
C2    O8    A    
C47   O18   A    
C9    H46   S    
Cr2   O22   S    
C38   C45   A    
C80   C86   A    
C2    C79   S    
Cr5   O7    S    
C65   O25   A    
C34   C36   A    
C24   H12   S    
C4    H41   S    
C66   H22   S    
C63   C69   A    
C68   C69   A    
Cr4   O23   S    
C70   H16   S    
C31   C33   A    
C102  C108  A    
C97   H36   S    
C9    C10   A    
C15   H38   S    
Cr2   O14   S    
Cr1   O22   S    
C39   C45   A    
C81   H24   S    
C66   C67   A    
C71   C101  S    
C55   H5    S    
C96   H33   S    
C36   H56   S    
C59   O20   A    
C13   C14   A    
C3    H42   S    
C51   H7    S    
Cr3   O21   S    
C67   C78   S    
C42   C44   T    
C14   C83   A    
C76   C83   S    
C90   C100  S    
C104  C105  A    
C97   C99   A    
C57   H10   S    
C50   C51   A    
C53   C55   A    
C95   H1    S    
C15   C20   A    
C74   H20   S    
C46   C48   A    
C84   C93   S    
C9    C43   A    
C74   C75   A    
Cr6   O2    S    
C30   Cl1   S    
C67   C68   A    
C17   C27   S    
C106  H48   S    
C24   C28   A    
C76   O2    A    
Cr6   O3    S    
C84   C85   A    
C31   H4    S    
C3    C8    A    
C53   H6    S    
C65   O24   A    
C91   C92   A    
C18   H51   S    
C16   C17   A    
C25   C26   A    
C85   C86   A    
C38   H45   S    
Cr5   O25   S    
C62   C87   S    
C51   C52   A    
C60   C61   T    
C94   H32   S    
C64   C66   A    
C13   H23   S    
C12   C102  S    
C29   C30   A    
C87   O3    A    
C1    O4    A    
C103  H37   S    
C71   O21   A    
C99   C100  A    
C108  H39   S    
C94   C100  A    
C1    O13   A    
C52   H8    S    
C83   C95   A    
C20   C21   S    
C33   C34   A    
C73   C79   A    
C13   C21   A    
C21   C107  A    
C23   C28   S    
C88   C89   A    
Cr4   O6    S    
C94   C96   A    
C75   C77   S    
C22   H53   S    
C11   C54   A    
C95   C107  A    
C47   C54   S    
C23   O14   A    
Cr3   O20   S    
C48   C49   A    
C11   C32   A    
C49   C50   A    
C35   O16   A    
C82   C84   A    
C22   C27   A    
C76   O26   A    
Cr3   O22   S    
C56   C62   A    
C104  Cl2   S    
C87   O23   A    
C98   O6    A    
C3    C4    A    
C23   O15   A    
Cr5   O8    S    
C34   H55   S    
C86   H25   S    
C72   H14   S    
C32   H40   S    
Cr6   O11   S    
Cr5   O26   S    
C88   C93   A    
C40   C41   A    
C10   H47   S    
C80   C98   S    
C33   C44   S    
C59   C63   S    
C47   O19   A    
C19   H52   S    
C4    C5    A    
C37   H54   S    
C6    H43   S    
C53   C58   A    
C6    C7    A    
Cr3   O15   S    
C105  C106  A    
C29   C35   S    
C14   H3    S    
C25   H34   S    
C35   O1    A    
C98   O7    A    
C68   H17   S    
C85   H35   S    
C45   C65   S    
C57   C58   A    
C5    C6    A    
C106  C108  A    
C39   H2    S    
Cr6   O10   S    
C92   C93   A    
C32   C43   A    
C22   C24   A    
C2    O9    A    
C56   H11   S    
C37   C41   A    
C102  C103  A    
C10   C54   A    
Cr2   O19   S    
C107  H49   S    
C48   H9    S    
C63   C64   A    
C39   C40   A    
Cr1   O18   S    
C12   O5    A    
C55   C62   A    
C40   H57   S    
C69   H18   S    
Cr4   O5    S    
Cr4   O24   S    
C103  C104  A    
C50   C61   S    
C88   H29   S    
C5    C43   S    
C70   C75   A    
C70   C72   A    
C82   F1    S    
C71   O17   A    
C89   C90   A    
C96   C101  A    
C49   H13   S    
Cr1   O4    S    
C97   C101  A    
