data_mof_unit_50017.cif
_audit_creation_date              2012-12-11T17:09:28-0500
_audit_creation_method            fapswitch 2.2
_symmetry_space_group_name_H-M    P1
_symmetry_Int_Tables_number       1
_space_group_crystal_system       monoclinic
_cell_length_a                    14.798712
_cell_length_b                    6.92626
_cell_length_c                    13.534914
_cell_angle_alpha                 90.0
_cell_angle_beta                  99.859037
_cell_angle_gamma                 90.0
_cell_volume                      1366.83696483

loop_
_atom_site_label
_atom_site_type_symbol
_atom_type_description
_atom_site_fract_x
_atom_site_fract_y
_atom_site_fract_z
_atom_type_partial_charge
O1    O     O_R   0.586930 0.505770 0.416350 -0.549323
O2    O     O_R   0.413070 0.005770 0.583650 -0.549323
O3    O     O_R   0.397900 0.173100 0.389630 -0.547195
O4    O     O_R   0.602100 0.673100 0.610370 -0.547195
C1    C     C_R   0.364524 0.345459 0.362500 0.771653
C2    C     C_R   0.635476 0.845459 0.637500 0.771651
O5    O     O_R   0.585280 0.175870 0.404330 -0.520202
O6    O     O_R   0.414720 0.675870 0.595670 -0.520204
O7    O     O_R   0.601790 0.008380 0.598460 -0.521579
O8    O     O_R   0.398210 0.508380 0.401540 -0.521580
C3    C     C_R   0.615170 0.344791 0.383323 0.701932
C4    C     C_R   0.384830 0.844791 0.616677 0.701932
O9    O     O_3   0.505200 0.340120 0.563670 -0.371477
O10   O     O_3   0.494800 0.840120 0.436330 -0.371477
V1    V     V_3+5 0.499040 0.064180 0.488190 1.476170
V2    V     V_3+5 0.500960 0.564180 0.511810 1.476169
C5    C     C_R   0.247109 0.998861 0.672108 0.014732
C6    C     C_R   0.752891 0.498861 0.327892 0.014731
C7    C     C_R   0.313523 0.852269 0.681507 -0.084624
C8    C     C_R   0.686477 0.352269 0.318494 -0.084623
C9    C     C_R   0.306116 0.704144 0.751251 -0.130639
C10   C     C_R   0.693884 0.204143 0.248749 -0.130636
H1    H     H_    0.353976 0.584855 0.759733 0.115538
H2    H     H_    0.646025 0.084853 0.240268 0.115538
C11   C     C_R   0.240680 0.714923 0.815642 -0.187054
C12   C     C_R   0.759320 0.214922 0.184359 -0.187054
H3    H     H_    0.240063 0.603249 0.871422 0.117267
H4    H     H_    0.759938 0.103247 0.128578 0.117267
C13   C     C_R   0.181104 0.874734 0.812665 -0.092567
C14   C     C_R   0.818897 0.374734 0.187336 -0.092568
C15   C     C_R   0.183569 0.010470 0.736761 0.079292
C16   C     C_R   0.816431 0.510471 0.263239 0.079293
C17   C     C_3   0.187440 0.225216 0.740572 -0.451194
C18   C     C_3   0.812559 0.725217 0.259426 -0.451192
C19   C     C_3   0.255885 0.213532 0.668226 -0.161073
C20   C     C_3   0.744113 0.713533 0.331771 -0.161074
H5    H     H_    0.218593 0.278242 0.816194 0.163956
H6    H     H_    0.781405 0.778240 0.183804 0.163955
C21   C     C_1   0.783417 0.877096 0.782917 -0.190983
C22   C     C_1   0.216583 0.377096 0.217083 -0.190983
C23   C     C_1   0.716050 0.860136 0.716989 -0.174499
C24   C     C_1   0.283950 0.360136 0.283011 -0.174496
O11   O     O_R   0.101720 0.231700 0.098560 -0.536411
O12   O     O_R   0.898280 0.731700 0.901440 -0.536411
O13   O     O_R   0.914700 0.558980 0.095690 -0.540532
O14   O     O_R   0.085300 0.058980 0.904310 -0.540532
C25   C     C_R   0.885064 0.389556 0.116900 0.696427
C26   C     C_R   0.114936 0.889556 0.883100 0.696427
O15   O     O_R   0.102080 0.561590 0.110390 -0.536685
O16   O     O_R   0.897920 0.061590 0.889610 -0.536685
O17   O     O_R   0.086950 0.728940 0.916330 -0.540900
O18   O     O_R   0.913050 0.228940 0.083670 -0.540900
C27   C     C_R   0.136079 0.391895 0.137498 0.731469
C28   C     C_R   0.863921 0.891895 0.862502 0.731469
O19   O     O_3   0.994770 0.394510 0.936380 -0.367839
O20   O     O_3   0.005230 0.894510 0.063620 -0.367839
V3    V     V_3+5 0.000970 0.670520 0.011800 1.416414
V4    V     V_3+5 0.999030 0.170520 0.988200 1.416414
H7    H     H_    0.120329 0.291973 0.708955 0.171234
H8    H     H_    0.879669 0.791977 0.291043 0.171234
H9    H     H_    0.325796 0.265616 0.700410 0.142996
H10   H     H_    0.674202 0.765614 0.299587 0.142994
C29   C     C_2   0.217874 0.292807 0.566285 0.398767
H11   H     H_    0.157394 0.228787 0.521484 0.041825
O21   O     O_2   0.253756 0.432102 0.533843 -0.534897
C30   C     C_2   0.782123 0.792812 0.433712 0.398768
H12   H     H_    0.842603 0.728795 0.478514 0.041826
O22   O     O_2   0.746242 0.932108 0.466152 -0.534897

loop_
_geom_bond_atom_site_label_1
_geom_bond_atom_site_label_2
_ccdc_geom_bond_type
O4    V2    S    
C30   O22   D    
C1    C24   S    
C29   O21   D    
C6    C20   S    
C12   C14   A    
C25   O18   A    
O17   V3    S    
C11   H3    S    
O19   V3    S    
C6    C8    A    
O1    C3    A    
O12   V3    S    
O6    C4    A    
C18   H8    S    
O2    C4    A    
O3    C1    A    
C2    O7    A    
O5    V1    S    
C30   H12   S    
O9    V2    S    
O15   V3    S    
C1    O8    A    
C17   H7    S    
O1    V2    S    
O8    V2    S    
O14   V4    S    
C14   C16   A    
O2    V1    S    
O13   V3    S    
O16   C28   A    
O18   V4    S    
C13   C15   A    
O15   C27   A    
C4    C7    S    
C22   C24   T    
C17   C19   S    
C18   C20   S    
O20   V4    S    
O5    C3    A    
C20   C30   S    
O9    V1    S    
C9    H1    S    
C11   C13   A    
C5    C15   A    
O10   V2    S    
C3    C8    S    
O19   V4    S    
C21   C28   S    
C6    C16   A    
C15   C17   S    
C13   C26   S    
C22   C27   S    
C29   H11   S    
O16   V4    S    
O14   C26   A    
O12   C28   A    
C14   C25   S    
O3    V1    S    
O20   V3    S    
C21   C23   T    
C19   H9    S    
O4    C2    A    
C10   C12   A    
O13   C25   A    
C2    C23   S    
C9    C11   A    
O10   V1    S    
C19   C29   S    
O6    V2    S    
C5    C19   S    
O11   V4    S    
C5    C7    A    
C16   C18   S    
C7    C9    A    
C12   H4    S    
O11   C27   A    
C26   O17   A    
C17   H5    S    
C10   H2    S    
C8    C10   A    
C20   H10   S    
O7    V1    S    
C18   H6    S    
