data_mof_unit_12452.cif
_audit_creation_date              2012-12-10T20:08:38-0500
_audit_creation_method            fapswitch 2.2
_symmetry_space_group_name_H-M    P1
_symmetry_Int_Tables_number       1
_space_group_crystal_system       triclinic
_cell_length_a                    18.954825
_cell_length_b                    18.456218
_cell_length_c                    14.9177
_cell_angle_alpha                 89.342698
_cell_angle_beta                  90.216566
_cell_angle_gamma                 89.90065
_cell_volume                      5218.33543415

loop_
_atom_site_label
_atom_site_type_symbol
_atom_type_description
_atom_site_fract_x
_atom_site_fract_y
_atom_site_fract_z
_atom_type_partial_charge
C1    C     C_R   0.365040 0.499940 0.497824 0.906580
C2    C     C_R   0.634845 0.499820 0.497360 0.864720
C3    C     C_R   0.462565 0.631113 0.043054 0.459424
C4    C     C_R   0.593070 0.401723 0.958264 0.444514
C5    C     C_R   0.754082 0.554777 0.502561 -0.215946
C6    C     C_R   0.247305 0.558930 0.497245 -0.208102
C7    C     C_R   0.262062 0.440214 0.431061 -0.170729
C8    C     C_R   0.735077 0.442580 0.422341 -0.220022
C9    C     C_R   0.824856 0.553200 0.478279 -0.104367
C10   C     C_R   0.176505 0.558505 0.472408 -0.131570
C11   C     C_R   0.192363 0.441157 0.403376 -0.112365
C12   C     C_R   0.805035 0.442124 0.396238 -0.141255
C13   C     C_R   0.850497 0.496356 0.425890 0.242116
C14   C     C_R   0.148845 0.499219 0.426055 0.224925
C15   C     C_R   0.709437 0.498579 0.476110 -0.014990
C16   C     C_R   0.289955 0.499128 0.477993 0.012668
C17   C     C_R   0.961993 0.548375 0.365737 0.332645
C18   C     C_R   0.036734 0.433791 0.448796 0.305965
C19   C     C_R   0.035688 0.549458 0.367133 0.354901
C20   C     C_R   0.963157 0.430758 0.443562 0.343063
C21   C     C_R   0.072812 0.493454 0.411433 -0.289031
C22   C     C_R   0.925980 0.490754 0.408349 -0.292158
C23   C     C_R   0.507796 0.724610 0.579146 -0.159957
C24   C     C_R   0.437632 0.274201 0.497037 -0.075897
C25   C     C_R   0.493487 0.727552 0.421877 -0.061444
C26   C     C_R   0.562111 0.273732 0.505135 -0.065601
C27   C     C_R   0.510922 0.801144 0.582289 0.366485
C28   C     C_R   0.435672 0.197582 0.495801 0.357958
C29   C     C_R   0.492031 0.803720 0.421252 0.320107
C30   C     C_R   0.563395 0.197535 0.508593 0.332779
C31   C     C_R   0.501207 0.841617 0.502247 -0.114792
C32   C     C_R   0.499648 0.158436 0.502616 -0.095516
C33   C     C_R   0.499535 0.500539 0.326458 0.980790
C34   C     C_R   0.499109 0.499382 0.674164 0.924697
C35   C     C_R   0.457690 0.961229 0.562295 -0.163468
C36   C     C_R   0.543406 0.038846 0.443465 -0.167898
C37   C     C_R   0.544126 0.962814 0.443660 -0.157383
C38   C     C_R   0.457530 0.037282 0.562755 -0.138127
C39   C     C_R   0.500148 0.077153 0.503044 0.181889
C40   C     C_R   0.501149 0.922920 0.502920 0.177790
C41   C     C_R   0.526203 0.438413 0.821417 0.383219
C42   C     C_R   0.465215 0.555717 0.181913 0.391535
C43   C     C_R   0.502078 0.499193 0.771243 -0.225883
C44   C     C_R   0.503589 0.503039 0.230564 -0.220303
C45   C     C_R   0.484594 0.563818 0.813880 -0.279062
C46   C     C_R   0.549632 0.455431 0.188537 -0.289783
C47   C     C_R   0.488755 0.568042 0.905915 0.094543
C48   C     C_R   0.554744 0.457000 0.096170 0.098890
C49   C     C_R   0.520594 0.511060 0.954432 -0.012272
C50   C     C_R   0.520865 0.512965 0.047630 -0.018594
C51   C     C_R   0.548149 0.449947 0.910148 -0.113748
C52   C     C_R   0.483375 0.568315 0.092071 -0.111675
C53   C     C_R   0.463586 0.629246 0.949771 -0.319842
C54   C     C_R   0.594323 0.404685 0.051675 -0.292079
H1    H     H_    0.423330 0.932260 0.608061 0.173170
H2    H     H_    0.576448 0.067853 0.396166 0.172163
H3    H     H_    0.578646 0.935091 0.397601 0.178965
H4    H     H_    0.424246 0.065004 0.610246 0.183214
H5    H     H_    0.463652 0.609507 0.775858 0.165964
H6    H     H_    0.578723 0.415224 0.227465 0.165608
H7    H     H_    0.444912 0.675731 0.911431 0.169352
H8    H     H_    0.626089 0.366124 0.089587 0.169556
H9    H     H_    0.734529 0.598830 0.542961 0.152016
H10   H     H_    0.268415 0.605124 0.532489 0.150743
H11   H     H_    0.294664 0.394342 0.413272 0.146612
H12   H     H_    0.700671 0.399894 0.398922 0.146299
H13   H     H_    0.859918 0.595305 0.501669 0.154352
H14   H     H_    0.142929 0.603284 0.491382 0.162598
H15   H     H_    0.171553 0.395682 0.366550 0.152752
H16   H     H_    0.823889 0.399151 0.353772 0.132824
H17   H     H_    0.512439 0.693237 0.640240 0.161950
H18   H     H_    0.389077 0.304694 0.495751 0.148116
H19   H     H_    0.488843 0.698956 0.359557 0.225994
H20   H     H_    0.611116 0.303347 0.508153 0.156752
N1    N     N_R   0.500000 0.689440 0.500000 -0.140443
N2    N     N_R   0.500000 0.310560 0.500000 -0.120757
O1    O     O_R   0.398180 0.560840 0.499980 -0.589814
O2    O     O_R   0.601820 0.439160 0.500020 -0.630485
O3    O     O_R   0.601820 0.560840 0.500020 -0.616086
O4    O     O_R   0.398180 0.439160 0.499980 -0.636104
O5    O     O_R   0.499980 0.560820 0.367840 -0.592502
O6    O     O_R   0.500020 0.439180 0.632160 -0.516763
O7    O     O_R   0.500020 0.560820 0.632160 -0.650057
O8    O     O_R   0.499980 0.439180 0.367840 -0.632659
Zn1   Zn    Zn3+2 0.500000 0.581210 0.500000 0.981696
Zn2   Zn    Zn3+2 0.500000 0.418790 0.500000 1.003907
S1    S     S_3+6 0.501757 0.348897 0.789041 0.077614
O9    O     O_2   0.555983 0.318333 0.726692 -0.222987
O10   O     O_2   0.495050 0.299904 0.869717 -0.285062
O11   O     O_3   0.423183 0.350671 0.736137 -0.537029
H21   H     H_    0.390425 0.373508 0.779046 0.335676
S2    S     S_3+6 0.379220 0.578863 0.220336 0.047289
O12   O     O_2   0.381669 0.644633 0.278481 -0.241054
O13   O     O_2   0.330496 0.592977 0.142401 -0.312574
O14   O     O_3   0.346311 0.509566 0.280813 -0.584525
H22   H     H_    0.342686 0.468892 0.238306 0.339507
S3    S     S_3+6 0.450677 0.716912 0.093334 0.034904
O15   O     O_2   0.487847 0.718850 0.182353 -0.267799
O16   O     O_2   0.481406 0.774952 0.033778 -0.342573
O17   O     O_3   0.364504 0.734806 0.107595 -0.496943
H23   H     H_    0.344038 0.734679 0.046408 0.345226
S4    S     S_3+6 0.659146 0.349109 0.905571 0.050127
O18   O     O_2   0.674027 0.378364 0.813148 -0.265079
O19   O     O_2   0.726028 0.352252 0.959870 -0.318841
O20   O     O_3   0.633905 0.262076 0.898797 -0.481647
H24   H     H_    0.626318 0.246233 0.961684 0.351193
O21   O     O_3   0.926259 0.607318 0.329337 -0.600918
C55   C     C_3   0.892973 0.586847 0.248493 0.090281
H25   H     H_    0.843210 0.557356 0.263217 0.153422
H26   H     H_    0.927508 0.551695 0.206837 0.106735
C56   C     C_3   0.874927 0.655087 0.194177 -0.314712
H27   H     H_    0.840409 0.690781 0.234591 0.236699
H28   H     H_    0.924285 0.685002 0.178356 0.227180
C57   C     C_3   0.837083 0.636616 0.106906 -0.935863
H29   H     H_    0.871169 0.601992 0.064639 0.265067
H30   H     H_    0.824721 0.687291 0.069151 0.270338
H31   H     H_    0.786936 0.607706 0.121239 0.274177
O22   O     O_3   0.073632 0.378645 0.491785 -0.657026
C58   C     C_3   0.078929 0.394032 0.584044 0.123883
H32   H     H_    0.027090 0.384809 0.617047 0.178932
H33   H     H_    0.095991 0.451012 0.595684 0.132189
C59   C     C_3   0.133816 0.343281 0.626212 -0.345015
H34   H     H_    0.117339 0.286117 0.616478 0.229091
H35   H     H_    0.185388 0.351543 0.592359 0.232106
C60   C     C_3   0.142733 0.357247 0.726201 -0.944657
H36   H     H_    0.160775 0.413698 0.737218 0.263280
H37   H     H_    0.182823 0.319441 0.754621 0.275858
H38   H     H_    0.092017 0.348348 0.761700 0.267995
O23   O     O_3   0.071022 0.609040 0.332739 -0.600193
C61   C     C_3   0.093646 0.593373 0.244991 0.082899
H39   H     H_    0.047400 0.591446 0.198961 0.137566
H40   H     H_    0.122557 0.540719 0.242320 0.135987
C62   C     C_3   0.143496 0.653202 0.213086 -0.286874
H41   H     H_    0.117178 0.706746 0.219669 0.222605
H42   H     H_    0.191716 0.652794 0.255798 0.266478
C63   C     C_3   0.164587 0.642771 0.115460 -0.867564
H43   H     H_    0.189519 0.588835 0.106649 0.288374
H44   H     H_    0.202901 0.685359 0.095374 0.284362
H45   H     H_    0.117475 0.647049 0.071185 0.237501
O24   O     O_3   0.926880 0.374570 0.485027 -0.618314
C64   C     C_3   0.934104 0.310901 0.433954 0.117289
H46   H     H_    0.986881 0.286108 0.445510 0.188583
H47   H     H_    0.927166 0.322020 0.360715 0.109191
C65   C     C_3   0.877975 0.256449 0.463527 -0.350540
H48   H     H_    0.884869 0.243769 0.536067 0.234501
H49   H     H_    0.824709 0.280525 0.453361 0.228191
C66   C     C_3   0.883100 0.186460 0.410405 -0.957136
H50   H     H_    0.875275 0.197797 0.337735 0.269864
H51   H     H_    0.841656 0.148078 0.433101 0.270551
H52   H     H_    0.935511 0.160652 0.421046 0.266648
O25   O     O_3   0.518886 0.837450 0.662853 -0.641683
C67   C     C_3   0.577409 0.811458 0.713302 0.074202
H53   H     H_    0.611354 0.858632 0.729284 0.168432
H54   H     H_    0.611927 0.772614 0.676894 0.121786
C68   C     C_3   0.551628 0.777790 0.801533 -0.329271
H55   H     H_    0.526088 0.820311 0.842495 0.257009
H56   H     H_    0.511718 0.735493 0.787588 0.206760
C69   C     C_3   0.612264 0.743795 0.854944 -0.884103
H57   H     H_    0.636610 0.699093 0.816495 0.255935
H58   H     H_    0.592047 0.721214 0.919156 0.295889
H59   H     H_    0.652945 0.785191 0.870037 0.261275
O26   O     O_3   0.372206 0.160001 0.495669 -0.644277
C70   C     C_3   0.326539 0.183194 0.425557 0.083956
H60   H     H_    0.312139 0.134621 0.386188 0.169332
H61   H     H_    0.350560 0.222319 0.376928 0.110367
C71   C     C_3   0.259124 0.215145 0.465418 -0.335890
H62   H     H_    0.234781 0.174820 0.511720 0.238393
H63   H     H_    0.272022 0.264242 0.504495 0.211881
C72   C     C_3   0.205879 0.235353 0.392356 -0.976674
H64   H     H_    0.229220 0.275244 0.344768 0.258394
H65   H     H_    0.158376 0.259761 0.423292 0.289549
H66   H     H_    0.189611 0.186361 0.355048 0.268244
O27   O     O_3   0.483761 0.840755 0.340897 -0.617873
C73   C     C_3   0.410930 0.848031 0.322846 0.130838
H67   H     H_    0.383105 0.874094 0.379898 0.112324
H68   H     H_    0.387097 0.793963 0.310114 0.206746
C74   C     C_3   0.401031 0.895822 0.239480 -0.252886
H69   H     H_    0.424230 0.950106 0.251830 0.207869
H70   H     H_    0.429035 0.871224 0.182005 0.294456
C75   C     C_3   0.323114 0.904671 0.215621 -0.929239
H71   H     H_    0.298926 0.851069 0.202269 0.297056
H72   H     H_    0.317790 0.939130 0.154465 0.268696
H73   H     H_    0.294462 0.931054 0.271315 0.250793
O28   O     O_3   0.627086 0.161311 0.516742 -0.653141
C76   C     C_3   0.653080 0.166523 0.605649 0.114354
H74   H     H_    0.658863 0.110633 0.633240 0.164477
H75   H     H_    0.617746 0.196230 0.652607 0.187683
C77   C     C_3   0.725580 0.202699 0.604345 -0.401759
H76   H     H_    0.762087 0.170042 0.562976 0.232177
H77   H     H_    0.721154 0.257698 0.573768 0.230822
C78   C     C_3   0.756170 0.209227 0.698637 -0.804828
H78   H     H_    0.721156 0.242947 0.740740 0.333320
H79   H     H_    0.808814 0.235385 0.695123 0.256645
H80   H     H_    0.762218 0.154749 0.730190 0.250254

loop_
_geom_bond_atom_site_label_1
_geom_bond_atom_site_label_2
_ccdc_geom_bond_type
C19   O23   S    
C71   H63   S    
S1    O9    D    
C8    H12   S    
C68   H56   S    
C18   C21   A    
C1    O1    A    
C72   H64   S    
C66   H50   S    
C78   H79   S    
S3    O15   D    
O11   H21   S    
C28   O26   S    
C47   C49   A    
O27   C73   S    
O28   C76   S    
C48   C54   A    
C77   C78   S    
C36   H2    S    
C14   C21   S    
C36   C37   A    
C70   H61   S    
O8    Zn2   S    
O23   C61   S    
C37   C40   A    
C64   H47   S    
C38   C39   A    
C11   C14   A    
C76   H75   S    
C55   H25   S    
C5    H9    S    
S4    O20   S    
C77   H77   S    
C32   C39   S    
C6    H10   S    
C49   C50   A    
C9    C13   A    
C73   H67   S    
O17   H23   S    
C7    C11   A    
O4    Zn2   S    
C2    O3    A    
C69   H59   S    
C17   C19   A    
C31   C40   S    
C38   H4    S    
C53   H7    S    
N1    Zn1   S    
C70   H60   S    
C44   C46   A    
C74   H70   S    
C4    S4    S    
C62   C63   S    
C50   C52   A    
O25   C67   S    
C23   C27   A    
C18   O22   S    
C42   S2    S    
C75   H73   S    
C47   C53   A    
C4    C54   A    
O2    Zn2   S    
C58   H33   S    
C60   H36   S    
O1    Zn1   S    
O22   C58   S    
C68   C69   S    
C69   H58   S    
C41   C43   A    
C42   C44   A    
C65   C66   S    
S3    O16   D    
C75   H72   S    
C57   H29   S    
C68   H55   S    
C45   C47   A    
C25   C29   A    
C41   S1    S    
C46   C48   A    
C66   H51   S    
C4    C51   A    
C27   C31   A    
C78   H78   S    
C23   H17   S    
C28   C32   A    
C70   C71   S    
O24   C64   S    
C65   H49   S    
C10   C14   A    
C64   C65   S    
C29   O27   S    
C24   N2    A    
C76   C77   S    
C54   H8    S    
C49   C51   A    
O6    Zn2   S    
C35   H1    S    
S2    O14   S    
C77   H76   S    
C25   N1    A    
C63   H45   S    
C61   H40   S    
C9    H13   S    
C5    C9    A    
C2    O2    A    
C7    H11   S    
C62   H41   S    
C3    S3    S    
C26   N2    A    
C67   C68   S    
C8    C12   A    
C74   C75   S    
C35   C38   A    
S2    O13   D    
C56   H28   S    
C1    C16   S    
C12   C13   A    
S4    O19   D    
C2    C15   S    
C43   C45   A    
C73   C74   S    
C63   H44   S    
C7    C16   A    
O7    Zn1   S    
C67   H54   S    
C26   C30   A    
C8    C15   A    
S1    O10   D    
C71   H62   S    
C72   H66   S    
C61   C62   S    
C34   O7    A    
C20   C22   A    
O21   C55   S    
C59   H35   S    
N2    Zn2   S    
C66   H52   S    
O3    Zn1   S    
S3    O17   S    
C75   H71   S    
C24   H18   S    
C62   H42   S    
O26   C70   S    
C72   H65   S    
C58   C59   S    
C12   H16   S    
C45   H5    S    
C27   O25   S    
C56   H27   S    
C46   H6    S    
C33   C44   S    
C30   O28   S    
C36   C39   A    
C34   C43   S    
C24   C28   A    
C23   N1    A    
C63   H43   S    
C6    C10   A    
C18   C20   A    
C57   H30   S    
C58   H32   S    
C11   H15   S    
C37   H3    S    
C10   H14   S    
O20   H24   S    
C17   C22   A    
C55   C56   S    
C65   H48   S    
C20   O24   S    
C59   C60   S    
C17   O21   S    
C35   C40   A    
C78   H80   S    
C29   C31   A    
C64   H46   S    
C3    C52   A    
C30   C32   A    
C3    C53   A    
C76   H74   S    
C69   H57   S    
C60   H38   S    
C48   C50   A    
S2    O12   D    
C26   H20   S    
C55   H26   S    
C13   C22   S    
C61   H39   S    
C56   C57   S    
C25   H19   S    
S4    O18   D    
C33   O8    A    
C73   H68   S    
C5    C15   A    
C57   H31   S    
C6    C16   A    
C67   H53   S    
C71   C72   S    
C74   H69   S    
S1    O11   S    
O14   H22   S    
C60   H37   S    
C1    O4    A    
C34   O6    A    
C59   H34   S    
C33   O5    A    
C41   C51   A    
O5    Zn1   S    
C42   C52   A    
C19   C21   A    
