data_mof_unit_64464.cif
_audit_creation_date              2013-03-05T16:33:04-0500
_audit_creation_method            fapswitch 2.2
_symmetry_space_group_name_H-M    P1
_symmetry_Int_Tables_number       1
_space_group_crystal_system       triclinic
_cell_length_a                    14.235046
_cell_length_b                    14.928097
_cell_length_c                    16.841675
_cell_angle_alpha                 91.136468
_cell_angle_beta                  83.708682
_cell_angle_gamma                 91.13185
_cell_volume                      3556.08219471

loop_
_atom_site_label
_atom_site_type_symbol
_atom_site_description
_atom_site_fract_x
_atom_site_fract_y
_atom_site_fract_z
_atom_type_partial_charge
O1    O     O_R   0.420520 0.630930 0.499990 -0.595119
O2    O     O_R   0.579480 0.369070 0.500010 -0.568109
O3    O     O_R   0.579480 0.630940 0.499990 -0.581660
O4    O     O_R   0.420520 0.369060 0.500010 -0.566080
C1    C     C_R   0.501112 0.672181 0.499333 1.057480
C2    C     C_R   0.498642 0.327260 0.502552 1.018237
O5    O     O_R   0.411130 0.500010 0.615800 -0.526341
O6    O     O_R   0.588870 0.499990 0.384200 -0.579824
O7    O     O_R   0.570080 0.500020 0.615800 -0.600050
O8    O     O_R   0.429920 0.499980 0.384200 -0.577819
C3    C     C_R   0.485387 0.497707 0.652597 0.986016
C4    C     C_R   0.514540 0.498300 0.347038 1.026761
Zn1   Zn    Zn3+2 0.393860 0.499990 0.500000 1.155690
Zn2   Zn    Zn3+2 0.606140 0.500010 0.500000 1.124739
C5    C     C_R   0.472139 0.481278 0.737298 -0.319308
C6    C     C_R   0.528369 0.486122 0.260850 -0.331408
C7    C     C_R   0.497214 0.547740 0.792069 0.319591
C8    C     C_R   0.479805 0.539174 0.210640 0.331847
C9    C     C_R   0.496157 0.524960 0.871875 -0.245280
C10   C     C_R   0.493649 0.522677 0.128580 -0.239035
C11   C     C_R   0.471392 0.437856 0.896742 -0.169849
C12   C     C_R   0.554625 0.455503 0.096658 -0.164874
C13   C     C_R   0.442058 0.373626 0.843323 0.753876
C14   C     C_R   0.605817 0.406133 0.145534 0.735838
C15   C     C_R   0.441621 0.394811 0.763263 0.125879
C16   C     C_R   0.592153 0.419777 0.227869 0.119876
C17   C     C_2   0.477939 0.414689 0.979654 0.222494
C18   C     C_2   0.559469 0.433677 0.011572 0.227687
H1    H     H_    0.456278 0.561786 0.088942 0.213965
H2    H     H_    0.515499 0.574873 0.915086 0.214504
C19   C     C_R   0.442195 0.898694 0.578717 0.757495
C20   C     C_R   0.577592 0.101313 0.554122 0.758266
C21   C     C_R   0.438424 0.807526 0.564314 -0.220752
C22   C     C_R   0.574958 0.192581 0.542980 -0.197227
H3    H     H_    0.385597 0.767225 0.599396 0.248197
H4    H     H_    0.635336 0.233164 0.556431 0.242341
C23   C     C_R   0.503322 0.768193 0.506245 -0.323727
C24   C     C_R   0.495910 0.230926 0.514614 -0.311175
C25   C     C_R   0.574014 0.820060 0.461992 0.188676
C26   C     C_R   0.416854 0.176405 0.500229 0.198774
C27   C     C_R   0.576307 0.912291 0.476320 0.635977
C28   C     C_R   0.421089 0.084538 0.510170 0.629542
C29   C     C_R   0.509796 0.951115 0.533641 -0.170822
C30   C     C_R   0.501494 0.047332 0.536129 -0.161489
C31   C     C_R   0.893268 0.573517 0.530352 0.574785
C32   C     C_R   0.110617 0.473524 0.434308 0.574800
C33   C     C_R   0.794109 0.572545 0.530208 0.139460
C34   C     C_R   0.209619 0.471658 0.434062 0.157473
N1    N     N_R   0.747530 0.500020 0.500000 -0.270761
N2    N     N_R   0.252470 0.499980 0.500000 -0.260485
C35   C     C_R   0.798256 0.427063 0.471660 0.585036
C36   C     C_R   0.197064 0.527886 0.567124 0.605218
C37   C     C_R   0.896745 0.424190 0.474434 0.558927
C38   C     C_R   0.097493 0.526360 0.570507 0.553617
C39   C     C_R   0.946279 0.498472 0.503485 -0.189284
C40   C     C_R   0.052532 0.499134 0.503237 -0.183792
N3    N     N_R   0.523430 0.637731 0.767984 0.262746
O9    O     O_R   0.486217 0.674238 0.709557 -0.354642
O10   O     O_R   0.577104 0.686992 0.809740 -0.240500
N4    N     N_R   0.417257 0.609654 0.241116 0.253626
O11   O     O_R   0.347521 0.631834 0.201995 -0.246291
O12   O     O_R   0.436012 0.659289 0.301943 -0.325215
F1    F     F_    0.937319 0.648100 0.556815 -0.497393
F2    F     F_    0.071484 0.449716 0.366743 -0.495507
N5    N     N_R   0.742865 0.647806 0.564294 0.285310
O13   O     O_R   0.691043 0.639376 0.632274 -0.272298
O14   O     O_R   0.766104 0.727848 0.539028 -0.230053
N6    N     N_R   0.263760 0.437200 0.364067 0.287273
O15   O     O_R   0.310098 0.363602 0.367809 -0.267641
O16   O     O_R   0.251772 0.468304 0.294330 -0.223693
F3    F     F_    0.753941 0.355597 0.440675 -0.523730
F4    F     F_    0.237700 0.557180 0.632098 -0.536162
F5    F     F_    0.942934 0.348119 0.450020 -0.480358
F6    F     F_    0.045589 0.549763 0.639994 -0.491119
N7    N     N_R   0.638196 0.361509 0.277594 0.272319
O17   O     O_R   0.728175 0.346761 0.262059 -0.165332
O18   O     O_R   0.587758 0.311561 0.329051 -0.320660
N8    N     N_R   0.412927 0.327354 0.708552 0.212767
O19   O     O_R   0.447176 0.247215 0.708877 -0.292621
O20   O     O_R   0.339431 0.340232 0.670946 -0.273917
N9    N     N_R   0.648675 0.444912 0.962648 0.250539
O21   O     O_R   0.716357 0.492967 0.989001 -0.237439
O22   O     O_R   0.666379 0.399236 0.896225 -0.279135
N10   N     N_R   0.393323 0.385127 0.028059 0.253142
O23   O     O_R   0.310548 0.400803 0.005869 -0.224862
O24   O     O_R   0.398699 0.334418 0.089339 -0.252127
F7    F     F_    0.415853 0.290078 0.868852 -0.516858
F8    F     F_    0.663048 0.339816 0.113598 -0.521513
F9    F     F_    0.378227 0.936437 0.634635 -0.525528
F10   F     F_    0.655347 0.065154 0.579966 -0.528886
N11   N     N_R   0.640201 0.781057 0.400654 0.266461
O25   O     O_R   0.613403 0.717561 0.353681 -0.330930
O26   O     O_R   0.725404 0.814455 0.386581 -0.171833
N12   N     N_R   0.333439 0.211741 0.473090 0.280175
O27   O     O_R   0.273242 0.253624 0.523733 -0.246349
O28   O     O_R   0.305519 0.180889 0.406616 -0.181274
F11   F     F_    0.638088 0.965239 0.430191 -0.525064
F12   F     F_    0.347940 0.030932 0.491676 -0.534216

loop_
_geom_bond_atom_site_label_1
_geom_bond_atom_site_label_2
_geom_bond_distance
_ccdc_geom_bond_type
C39   C40   1.511899 S    
C1    C23   1.435706 S    
C29   C30   1.442921 S    
N1    C35   1.367580 A    
N9    O21   1.301395 A    
C33   N1    1.376353 A    
O5    C3    1.283921 A    
C19   C29   1.395853 A    
O1    C1    1.290370 A    
C17   N10   1.445087 S    
C9    C11   1.400567 A    
N10   O24   1.301773 A    
C28   F12   1.360123 S    
N8    O20   1.300258 A    
N3    O10   1.301584 A    
Zn2   N1    2.012690 S    
N4    O12   1.300670 A    
O4    Zn1   1.998391 S    
C27   F11   1.359743 S    
C21   H3    1.084147 S    
C38   F6    1.357203 S    
C3    C5    1.443522 S    
C20   F10   1.358092 S    
C4    C6    1.451599 S    
N6    O15   1.298711 A    
C19   F9    1.358222 S    
N2    C36   1.368378 A    
C2    C24   1.455499 S    
C8    C10   1.392192 A    
C31   C33   1.411592 A    
C11   C17   1.458468 S    
C13   F7    1.359139 S    
C27   C29   1.401230 A    
O2    C2    1.295177 A    
C28   C30   1.397894 A    
C25   N11   1.441655 S    
N9    O22   1.301780 A    
C36   C38   1.412048 A    
C32   C34   1.409665 A    
C10   H1    1.084006 S    
C37   C39   1.410473 A    
C6    C16   1.420212 A    
C38   C40   1.410234 A    
C15   N8    1.435040 S    
N10   O23   1.301418 A    
C25   C27   1.393454 A    
C26   N12   1.431922 S    
N11   O25   1.300749 A    
O7    Zn2   1.961533 S    
N8    O19   1.301076 A    
N5    O14   1.300733 A    
C31   F1    1.358481 S    
C21   C23   1.398319 A    
C32   F2    1.358878 S    
N4    O11   1.301594 A    
C35   C37   1.409409 A    
C20   C22   1.380796 A    
N7    O17   1.301128 A    
C36   F4    1.353885 S    
N11   O26   1.301381 A    
O7    C3    1.293907 A    
O6    C4    1.286610 A    
C19   C21   1.378711 A    
C16   N7    1.434997 S    
C20   C30   1.393705 A    
C34   N6    1.428529 S    
N12   O28   1.301246 A    
N7    O18   1.300241 A    
O3    Zn2   1.998391 S    
O8    C4    1.295633 A    
C8    N4    1.441748 S    
C10   C12   1.399549 A    
C11   C13   1.391189 A    
C12   C14   1.388714 A    
O4    C2    1.291048 A    
O1    Zn1   1.983814 S    
C5    C7    1.408736 A    
O6    Zn2   1.992243 S    
C18   N9    1.444759 S    
C22   C24   1.405764 A    
C14   F8    1.359320 S    
C37   F5    1.357447 S    
C14   C16   1.390467 A    
C26   C28   1.388147 A    
O3    C1    1.285978 A    
O8    Zn1   1.961535 S    
C35   F3    1.353476 S    
C23   C25   1.412563 A    
C24   C26   1.415397 A    
N3    O9    1.301083 A    
C34   N2    1.379753 A    
C7    C9    1.391364 A    
C22   H4    1.083385 S    
C13   C15   1.391731 A    
N12   O27   1.300953 A    
O2    Zn2   1.983811 S    
C5    C15   1.415862 A    
Zn1   N2    2.012690 S    
O5    Zn1   1.992242 S    
C31   C39   1.402722 A    
C6    C8    1.412980 A    
N5    O13   1.299130 A    
C32   C40   1.400704 A    
C17   C18   1.354221 D    
N6    O16   1.301088 A    
C12   C18   1.457780 S    
C9    H2    1.083927 S    
C33   N5    1.427920 S    
C7    N3    1.441227 S    
