data_mof_unit_15755.cif
_audit_creation_date              2012-12-11T14:56:20-0500
_audit_creation_method            fapswitch 2.2
_symmetry_space_group_name_H-M    P1
_symmetry_Int_Tables_number       1
_space_group_crystal_system       triclinic
_cell_length_a                    10.58209
_cell_length_b                    10.654811
_cell_length_c                    17.087899
_cell_angle_alpha                 80.709068
_cell_angle_beta                  90.137965
_cell_angle_gamma                 119.606731
_cell_volume                      1646.40527034

loop_
_atom_site_label
_atom_site_type_symbol
_atom_type_description
_atom_site_fract_x
_atom_site_fract_y
_atom_site_fract_z
_atom_type_partial_charge
C1    C     C_R   0.222388 0.854115 0.128615 0.579206
C2    C     C_1   0.648978 0.338613 0.706693 0.031717
C3    C     C_R   0.589807 0.710956 0.801103 0.407778
C4    C     C_R   0.639374 0.284592 0.085087 0.587174
C5    C     C_R   0.557381 0.710582 0.722827 -0.011059
C6    C     C_R   0.658575 0.830391 0.663937 0.023712
C7    C     C_R   0.771766 0.957205 0.686694 0.348896
C8    C     C_R   0.789355 0.964933 0.767068 -0.046076
C9    C     C_R   0.690307 0.843096 0.824521 0.029160
C10   C     C_R   0.015409 0.741774 0.817485 0.302778
C11   C     C_R   0.972012 0.723848 0.741246 0.270105
C12   C     C_R   0.825654 0.457296 0.254727 -0.163145
C13   C     C_R   0.077542 0.786949 0.676034 -0.070350
C14   C     C_R   0.226116 0.867794 0.686433 0.315592
C15   C     C_R   0.269453 0.882824 0.762228 0.301698
C16   C     C_R   0.641458 0.858312 0.125153 0.538653
C17   C     C_R   0.164128 0.821671 0.827400 -0.067559
C18   C     C_R   0.686274 0.809891 0.357251 0.548387
C19   C     C_R   0.727148 0.460277 0.383494 0.575437
C20   C     C_R   0.103652 0.810141 0.359167 0.553281
C21   C     C_R   0.675991 0.802100 0.585004 0.601361
C22   C     C_R   0.677723 0.380217 0.623830 0.613803
C23   C     C_R   0.808060 0.424876 0.179052 0.354203
C24   C     C_R   0.032176 0.776453 0.596819 0.645778
C25   C     C_R   0.214865 0.857177 0.902992 0.652749
C26   C     C_R   0.636296 0.281611 0.860388 0.638760
C27   C     C_R   0.648414 0.864476 0.900405 0.591305
C28   C     C_R   0.558026 0.378572 0.189629 -0.078833
C29   C     C_R   0.578643 0.414616 0.265612 0.345971
C30   C     C_R   0.708619 0.442171 0.300569 -0.050545
C31   C     C_R   0.418960 0.348313 0.155200 0.080195
C32   C     C_R   0.284678 0.234280 0.194212 -0.014225
C33   C     C_R   0.154050 0.206738 0.161542 -0.079730
C34   C     C_R   0.669874 0.370805 0.148945 -0.035844
C35   C     C_R   0.156468 0.293233 0.090098 -0.095014
C36   C     C_R   0.289527 0.407158 0.051158 -0.088757
C37   C     C_R   0.420413 0.434397 0.083283 -0.031789
C38   C     C_R   0.422223 0.580592 0.703942 0.079787
C39   C     C_R   0.326436 0.600841 0.652993 -0.092022
C40   C     C_R   0.221702 0.484247 0.619801 -0.108012
C41   C     C_R   0.208242 0.345516 0.639239 -0.083052
C42   C     C_R   0.294542 0.321388 0.694596 -0.099795
C43   C     C_R   0.399783 0.437993 0.727342 -0.025710
C44   C     C_R   0.908444 0.100673 0.790183 0.068372
C45   C     C_1   0.669902 0.849046 0.205285 -0.014768
C46   C     C_R   0.921856 0.237829 0.760377 -0.021363
C47   C     C_R   0.021966 0.362906 0.789187 -0.079035
C48   C     C_R   0.111422 0.352601 0.847032 -0.093548
C49   C     C_R   0.101992 0.217432 0.875594 -0.114076
C50   C     C_R   0.001121 0.091886 0.847288 -0.090064
C51   C     C_1   0.680168 0.838825 0.274873 -0.010577
C52   C     C_1   0.180075 0.825447 0.211093 -0.027964
C53   C     C_1   0.150775 0.819251 0.279734 -0.057774
C54   C     C_1   0.641828 0.316244 0.777357 0.044654
Cr1   Cr    Cr6+3 0.402240 0.783890 0.019450 1.088679
Cr2   Cr    Cr6+3 0.382360 0.097900 0.991800 1.044578
Cr3   Cr    Cr6+3 0.715380 0.118170 0.988700 1.064935
Cr4   Cr    Cr6+3 0.936650 0.882420 0.465510 1.102202
Cr5   Cr    Cr6+3 0.605770 0.565620 0.493360 1.106112
Cr6   Cr    Cr6+3 0.921340 0.550490 0.496380 1.047149
F1    F     F_    0.827961 0.651232 0.730353 -0.659825
F2    F     F_    0.328207 0.935806 0.622973 -0.588188
F3    F     F_    0.413908 0.962227 0.772081 -0.625857
F4    F     F_    0.470464 0.419582 0.305343 -0.601074
F5    F     F_    0.924514 0.436980 0.137951 -0.608411
F6    F     F_    0.508274 0.587313 0.856610 -0.649860
F7    F     F_    0.866705 0.072128 0.630328 -0.650062
F8    F     F_    0.913781 0.685339 0.880750 -0.600489
H1    H     H_    0.930043 0.489307 0.278676 0.172642
H2    H     H_    0.281562 0.212933 0.711245 0.142242
H3    H     H_    0.467198 0.418100 0.768714 0.177845
H4    H     H_    0.852181 0.246982 0.716369 0.168537
H5    H     H_    0.030112 0.467796 0.766598 0.117099
H6    H     H_    0.189275 0.449848 0.868761 0.149117
H7    H     H_    0.172135 0.209784 0.920021 0.135525
H8    H     H_    0.992201 0.987191 0.871347 0.154814
H9    H     H_    0.281408 0.166148 0.249431 0.154585
H10   H     H_    0.050993 0.118280 0.191594 0.127891
H11   H     H_    0.055321 0.271993 0.064903 0.156483
H12   H     H_    0.291354 0.474563 0.996132 0.149269
H13   H     H_    0.522833 0.522624 0.052345 0.152855
H14   H     H_    0.341855 0.709227 0.633420 0.187056
H15   H     H_    0.153539 0.502047 0.577436 0.155660
H16   H     H_    0.130151 0.256471 0.612010 0.201026
O1    O     O_R   0.521780 0.757110 0.108900 -0.508200
O2    O     O_R   0.805020 0.410040 0.421340 -0.499715
O3    O     O_R   0.049240 0.685450 0.403290 -0.515836
O4    O     O_R   0.275160 0.783810 0.101120 -0.463590
O5    O     O_R   0.077520 0.903010 0.551800 -0.441157
O6    O     O_R   0.802980 0.872780 0.546830 -0.443045
O7    O     O_R   0.578090 0.681300 0.569920 -0.528748
O8    O     O_R   0.608530 0.436370 0.586530 -0.484442
O9    O     O_R   0.798770 0.401880 0.597100 -0.512167
O10   O     O_R   0.043450 0.677890 0.566230 -0.510928
O11   O     O_3   0.821250 0.666180 0.485090 -0.336306
O12   O     O_R   0.513330 0.228330 0.898660 -0.484320
O13   O     O_R   0.237900 0.972600 0.090980 -0.530881
O14   O     O_R   0.511190 0.220540 0.061620 -0.519669
O15   O     O_R   0.736920 0.257720 0.063840 -0.431589
O16   O     O_R   0.710450 0.984050 0.081720 -0.512936
O17   O     O_R   0.524090 0.765520 0.933110 -0.457784
O18   O     O_R   0.277300 0.791600 0.938160 -0.471666
O19   O     O_R   0.240210 0.981010 0.915190 -0.523945
O20   O     O_R   0.739230 0.266130 0.888050 -0.499953
O21   O     O_R   0.712580 0.991850 0.918770 -0.514312
O22   O     O_3   0.499990 0.999980 0.999980 -0.274900
O23   O     O_R   0.083770 0.911170 0.376030 -0.501487
O24   O     O_R   0.808770 0.880340 0.383890 -0.511814
O25   O     O_R   0.584340 0.689460 0.394160 -0.467687
O26   O     O_R   0.614320 0.443940 0.423590 -0.405286

loop_
_geom_bond_atom_site_label_1
_geom_bond_atom_site_label_2
_ccdc_geom_bond_type
Cr3   O21   S    
C12   H1    S    
C4    O14   A    
C11   C13   A    
C41   C42   A    
C35   C36   A    
C18   O25   A    
Cr2   O14   S    
Cr3   O16   S    
C19   O2    A    
C24   O5    A    
C7    C8    A    
C12   C23   A    
C28   C29   A    
C36   C37   A    
C50   H8    S    
C38   C39   A    
C33   H10   S    
C45   C51   T    
C10   C17   A    
C14   F2    S    
C20   O3    A    
C42   H2    S    
Cr5   O26   S    
Cr2   O12   S    
Cr4   O23   S    
Cr1   O4    S    
C26   O20   A    
C32   H9    S    
C31   C32   A    
C8    C9    A    
C2    C22   S    
C49   H7    S    
C46   H4    S    
C20   O23   A    
Cr6   O9    S    
Cr2   O19   S    
C1    O4    A    
Cr3   O22   S    
C29   F4    S    
C28   C34   A    
C22   O8    A    
C13   C14   A    
C40   H15   S    
C37   H13   S    
Cr5   O11   S    
Cr2   O13   S    
Cr5   O25   S    
C26   C54   S    
C1    C52   S    
Cr6   O3    S    
C44   C46   A    
C18   C51   S    
C21   O6    A    
C26   O12   A    
C4    C34   S    
Cr1   O22   S    
C48   H6    S    
C47   H5    S    
C2    C54   T    
C1    O13   A    
C39   C40   A    
Cr6   O2    S    
C25   O19   A    
C3    C5    A    
C41   H16   S    
C27   O17   A    
C31   C37   A    
C13   C24   S    
Cr1   O1    S    
Cr4   O11   S    
C29   C30   A    
C3    C9    A    
C24   O10   A    
C47   C48   A    
Cr1   O18   S    
C23   C34   A    
Cr5   O7    S    
Cr4   O6    S    
Cr2   O22   S    
C27   O21   A    
C40   C41   A    
C36   H12   S    
C16   O1    A    
C22   O9    A    
C3    F6    S    
C42   C43   A    
C52   C53   T    
C9    C27   S    
C21   O7    A    
C19   O26   A    
C44   C50   A    
C15   C17   A    
Cr3   O20   S    
C46   C47   A    
C48   C49   A    
C43   H3    S    
C12   C30   A    
C28   C31   S    
C16   O16   A    
C8    C44   S    
C39   H14   S    
C20   C53   S    
C11   F1    S    
C16   C45   S    
C6    C7    A    
C10   F8    S    
Cr1   O17   S    
C17   C25   S    
C32   C33   A    
C23   F5    S    
C38   C43   A    
C6    C21   S    
C5    C6    A    
C35   H11   S    
C33   C35   A    
Cr4   O24   S    
Cr5   O8    S    
C25   O18   A    
Cr4   O5    S    
C18   O24   A    
C10   C11   A    
C7    F7    S    
Cr6   O11   S    
C49   C50   A    
C4    O15   A    
C15   F3    S    
C14   C15   A    
C5    C38   S    
C19   C30   S    
Cr6   O10   S    
Cr3   O15   S    
