data_mof_unit_19576.cif
_audit_creation_date              2012-12-11T15:41:23-0500
_audit_creation_method            fapswitch 2.2
_symmetry_space_group_name_H-M    P1
_symmetry_Int_Tables_number       1
_space_group_crystal_system       triclinic
_cell_length_a                    14.969822
_cell_length_b                    14.961544
_cell_length_c                    14.933704
_cell_angle_alpha                 108.993749
_cell_angle_beta                  110.072318
_cell_angle_gamma                 109.586898
_cell_volume                      2566.9683575

loop_
_atom_site_label
_atom_site_type_symbol
_atom_type_description
_atom_site_fract_x
_atom_site_fract_y
_atom_site_fract_z
_atom_type_partial_charge
C1    C     C_R   0.228079 0.043348 0.952090 -0.132094
C2    C     C_R   0.808896 0.909237 0.420368 -0.119606
C3    C     C_R   0.286294 0.310856 0.808413 -0.151271
C4    C     C_R   0.709022 0.812280 0.340700 -0.145802
C5    C     C_R   0.291033 0.345890 0.910333 0.110056
C6    C     C_R   0.705314 0.727639 0.259687 0.112585
C7    C     C_R   0.193016 0.306845 0.912854 -0.197300
C8    C     C_R   0.803598 0.741588 0.260853 -0.168392
C9    C     C_R   0.092239 0.231229 0.815353 -0.117651
C10   C     C_R   0.903145 0.838533 0.340774 -0.114551
C11   C     C_R   0.088305 0.195584 0.714528 -0.089355
C12   C     C_R   0.803649 0.004189 0.096469 -0.126600
C13   C     C_R   0.905785 0.922320 0.420241 -0.100686
C14   C     C_R   0.401031 0.531831 0.059658 -0.222530
C15   C     C_R   0.592784 0.525048 0.141377 -0.230401
C16   C     C_R   0.804286 0.209390 0.300837 -0.138334
C17   C     C_R   0.252084 0.777628 0.685612 -0.120778
C18   C     C_R   0.501956 0.627889 0.117283 0.042084
C19   C     C_R   0.494786 0.428692 0.053618 0.062406
C20   C     C_R   0.598694 0.626429 0.172325 0.032825
C21   C     C_R   0.396226 0.432887 0.012788 0.028881
C22   C     C_R   0.035591 0.477483 0.378404 -0.170282
C23   C     C_R   0.867718 0.302923 0.303204 0.048182
C24   C     C_R   0.129067 0.472382 0.572180 -0.166776
C25   C     C_R   0.127751 0.570768 0.471649 -0.164900
C26   C     C_R   0.036751 0.379081 0.479015 -0.171236
C27   C     C_R   0.166889 0.571594 0.571845 0.141524
C28   C     C_R   0.983192 0.384674 0.385099 0.140839
C29   C     C_R   0.603204 0.154849 0.624585 -0.173148
C30   C     C_R   0.404671 0.055703 0.430606 -0.168678
C31   C     C_R   0.603858 0.148258 0.530510 -0.171744
C32   C     C_R   0.403904 0.061311 0.524553 -0.177388
C33   C     C_R   0.504118 0.087472 0.430710 0.148305
C34   C     C_R   0.226624 0.674894 0.674962 0.039813
C35   C     C_R   0.502809 0.100139 0.618335 0.143451
C36   C     C_R   0.107853 0.033905 0.135465 -0.169889
C37   C     C_R   0.030052 0.152862 0.055406 -0.172456
C38   C     C_R   0.030067 0.052457 0.154147 -0.171405
C39   C     C_R   0.107181 0.133698 0.036203 -0.178042
C40   C     C_R   0.410462 0.964010 0.225532 -0.126118
C41   C     C_R   0.592263 0.093968 0.791734 -0.123188
C42   C     C_R   0.981280 0.099687 0.101654 0.145788
C43   C     C_R   0.136767 0.063918 0.065597 0.153334
C44   C     C_R   0.591259 0.315676 0.044311 -0.126086
C45   C     C_R   0.502997 0.042695 0.327808 0.040888
C46   C     C_R   0.410813 0.706481 0.013431 -0.132884
C47   C     C_R   0.594006 0.062573 0.315388 -0.130041
C48   C     C_R   0.409158 0.004719 0.700035 -0.142336
C49   C     C_R   0.407351 0.222034 0.949021 -0.136417
C50   C     C_R   0.593094 0.795029 0.099762 -0.131777
C51   C     C_R   0.803240 0.300904 0.209674 -0.130474
C52   C     C_R   0.252505 0.686034 0.778147 -0.126321
C53   C     C_R   0.227073 0.950238 0.041995 -0.128752
C54   C     C_R   0.803763 0.095922 0.005022 -0.122348
C55   C     C_R   0.193680 0.019903 0.020570 0.044248
C56   C     C_R   0.501159 0.066343 0.699051 0.045172
C57   C     C_R   0.867838 0.068385 0.069566 0.043598
C58   C     C_R   0.497698 0.326604 0.014237 0.055637
C59   C     C_R   0.503153 0.708102 0.080667 0.065793
C60   C     C_R   0.185189 0.235202 0.710958 -0.127990
H1    H     H_    0.201346 0.080618 0.906202 0.097303
H2    H     H_    0.002503 0.306746 0.485166 0.106737
H3    H     H_    0.681568 0.192400 0.697866 0.105469
H4    H     H_    0.326591 0.016731 0.356309 0.104307
H5    H     H_    0.682478 0.180887 0.534993 0.107444
H6    H     H_    0.325224 0.025203 0.519306 0.104750
H7    H     H_    0.137406 0.988440 0.168256 0.101970
H8    H     H_    0.000123 0.197569 0.021656 0.102774
H9    H     H_    0.832524 0.176631 0.352121 0.083762
H10   H     H_    0.242153 0.799716 0.622381 0.093608
H11   H     H_    0.999985 0.018095 0.198193 0.107162
H12   H     H_    0.829928 0.978504 0.155635 0.090638
H13   H     H_    0.135568 0.165779 0.990308 0.117443
H14   H     H_    0.328019 0.920334 0.208487 0.083031
H15   H     H_    0.677236 0.152415 0.825205 0.082034
H16   H     H_    0.676638 0.379367 0.091857 0.089187
H17   H     H_    0.326919 0.658967 0.992187 0.087581
H18   H     H_    0.679735 0.116493 0.377767 0.093132
H19   H     H_    0.325090 0.981434 0.648112 0.087248
H20   H     H_    0.322801 0.197193 0.905278 0.117263
H21   H     H_    0.678977 0.827660 0.154613 0.116710
H22   H     H_    0.829876 0.352471 0.176960 0.080236
H23   H     H_    0.181790 0.208155 0.632631 0.107586
H24   H     H_    0.243546 0.623677 0.801216 0.098082
H25   H     H_    0.199710 0.902540 0.077365 0.082438
H26   H     H_    0.830097 0.154917 0.979597 0.081116
H27   H     H_    0.360645 0.342579 0.804662 0.118085
H28   H     H_    0.634535 0.803582 0.341474 0.116320
H29   H     H_    0.325084 0.533173 0.028898 0.122018
H30   H     H_    0.666154 0.522660 0.183269 0.124207
H31   H     H_    0.000530 0.482727 0.305179 0.104390
H32   H     H_    0.162394 0.468283 0.646462 0.115158
H33   H     H_    0.009919 0.138322 0.639258 0.091133
H34   H     H_    0.811051 0.974359 0.481931 0.102859
H35   H     H_    0.983034 0.997367 0.481352 0.095378
H36   H     H_    0.194820 0.336087 0.990367 0.117273
H37   H     H_    0.803008 0.678603 0.198529 0.107165
H38   H     H_    0.017053 0.201222 0.817908 0.106042
H39   H     H_    0.978227 0.849031 0.340609 0.101729
H40   H     H_    0.159948 0.644250 0.466737 0.107048
N1    N     N_R   0.293810 0.002730 0.945950 -0.039161
N2    N     N_R   0.443210 0.997250 0.791090 -0.038884
N3    N     N_R   0.443180 0.152110 0.945950 -0.040210
N4    N     N_R   0.556820 0.847890 0.054050 -0.042071
N5    N     N_R   0.706170 0.208950 0.152090 -0.037007
N6    N     N_R   0.293830 0.791050 0.847910 -0.042242
N7    N     N_R   0.293800 0.945910 0.002760 -0.037863
N8    N     N_R   0.706200 0.054090 0.997240 -0.039145
N9    N     N_R   0.706190 0.997270 0.054050 -0.039257
N10   N     N_R   0.706160 0.152130 0.208910 -0.036839
N11   N     N_R   0.293840 0.847870 0.791090 -0.041762
N12   N     N_R   0.443140 0.945920 0.152090 -0.038772
N13   N     N_R   0.556860 0.054080 0.847910 -0.038949
N14   N     N_R   0.556830 0.208940 0.002760 -0.039682
N15   N     N_R   0.443170 0.791060 0.997240 -0.041719
N16   N     N_R   0.556790 0.002750 0.208910 -0.039266
Ni1   Ni    Ni4+2 0.369690 0.999990 0.869700 0.216392
Ni2   Ni    Ni4+2 0.630310 0.000010 0.130300 0.211168
Ni3   Ni    Ni4+2 0.369670 0.869670 0.000000 0.211181
Ni4   Ni    Ni4+2 0.630330 0.130330 0.000000 0.206895

loop_
_geom_bond_atom_site_label_1
_geom_bond_atom_site_label_2
_ccdc_geom_bond_type
N1    N7    A    
N5    N10   A    
C29   H3    S    
C50   N4    A    
C9    H38   S    
C30   H4    S    
N6    Ni3   S    
C33   C45   S    
C14   C18   A    
C24   C27   A    
N10   Ni2   S    
C36   H7    S    
C16   N10   A    
C40   N12   A    
C15   C19   A    
C7    H36   S    
C46   N15   A    
C13   H35   S    
C50   C59   A    
C14   C21   A    
C32   H6    S    
C19   C21   A    
C24   C26   A    
C38   C42   A    
C41   C56   A    
C46   C59   A    
C60   H23   S    
N4    N15   A    
C37   H8    S    
C17   N11   A    
N8    N9    A    
C31   H5    S    
C37   C42   A    
C52   H24   S    
C2    C13   A    
N8    Ni4   S    
C44   C58   A    
C22   C25   A    
C22   H31   S    
C31   C33   A    
N5    Ni4   S    
C3    C60   A    
C11   H33   S    
C45   C47   A    
C12   H12   S    
C44   N14   A    
C17   H10   S    
C19   C58   S    
C22   C28   A    
N3    Ni1   S    
C24   H32   S    
C42   C57   S    
N7    Ni3   S    
C12   N9    A    
N9    Ni2   S    
N4    Ni2   S    
N6    N11   A    
C53   C55   A    
C27   C34   S    
C47   N16   A    
C3    H27   S    
C32   C35   A    
C2    H34   S    
N3    N14   A    
C4    C6    A    
C54   H26   S    
C39   C43   A    
C49   C58   A    
C15   C20   A    
C2    C4    A    
C8    H37   S    
C14   H29   S    
C41   H15   S    
N13   Ni4   S    
C53   N7    A    
C25   H40   S    
C23   C51   A    
C51   N5    A    
C48   N2    A    
C23   C28   S    
C9    C11   A    
C51   H22   S    
N2    Ni1   S    
N16   Ni2   S    
C12   C57   A    
C43   C55   S    
C16   C23   A    
N15   Ni3   S    
C17   C34   A    
C11   C60   A    
C1    N1    A    
N12   N16   A    
C48   H19   S    
C5    C7    A    
C48   C56   A    
C38   H11   S    
C30   C33   A    
C35   C56   S    
C26   C28   A    
C8    C10   A    
C16   H9    S    
C41   N13   A    
C3    C5    A    
C10   C13   A    
C1    H1    S    
C49   N3    A    
N12   Ni3   S    
C6    C8    A    
C4    H28   S    
C25   C27   A    
C46   H17   S    
C6    C20   S    
C29   C35   A    
C34   C52   A    
C49   H20   S    
C54   N8    A    
N11   Ni1   S    
N1    Ni1   S    
C36   C38   A    
C26   H2    S    
C29   C31   A    
N2    N13   A    
C15   H30   S    
C30   C32   A    
C40   H14   S    
C18   C20   A    
C39   H13   S    
C1    C55   A    
C10   H39   S    
C52   N6    A    
C7    C9    A    
C18   C59   S    
C5    C21   S    
C40   C45   A    
C37   C39   A    
C36   C43   A    
C53   H25   S    
C47   H18   S    
C44   H16   S    
N14   Ni4   S    
C50   H21   S    
C54   C57   A    
