data_mof_unit_5239.cif
_audit_creation_date              2012-12-10T21:25:18-0500
_audit_creation_method            fapswitch 2.2
_symmetry_space_group_name_H-M    P1
_symmetry_Int_Tables_number       1
_space_group_crystal_system       triclinic
_cell_length_a                    10.712482
_cell_length_b                    17.563557
_cell_length_c                    16.727936
_cell_angle_alpha                 90.283047
_cell_angle_beta                  89.901852
_cell_angle_gamma                 90.061552
_cell_volume                      3147.30444153

loop_
_atom_site_label
_atom_site_type_symbol
_atom_type_description
_atom_site_fract_x
_atom_site_fract_y
_atom_site_fract_z
_atom_type_partial_charge
C1    C     C_R   0.499462 0.353166 0.499821 0.871196
C2    C     C_R   0.510316 0.230900 0.426942 -0.255724
C3    C     C_R   0.488629 0.729135 0.500718 -0.047014
C4    C     C_R   0.493810 0.270650 0.499074 -0.049529
C5    C     C_R   0.506853 0.769764 0.429918 -0.228475
C6    C     C_R   0.468396 0.231323 0.569862 -0.227862
C7    C     C_R   0.491698 0.847940 0.429703 -0.193802
C8    C     C_R   0.459028 0.152769 0.568566 -0.187234
C9    C     C_R   0.458499 0.885723 0.500097 0.112990
C10   C     C_R   0.475220 0.113362 0.496743 0.113242
C11   C     C_1   0.458419 0.965986 0.498942 -0.063066
C12   C     C_R   0.498863 0.646815 0.500177 0.871622
C13   C     C_1   0.463664 0.033404 0.498078 -0.061212
C14   C     C_R   0.421017 0.451205 0.832107 -0.280124
C15   C     C_R   0.575785 0.550533 0.167858 -0.280396
C16   C     C_R   0.259682 0.502301 0.499969 0.882313
C17   C     C_R   0.740286 0.497585 0.500008 0.881892
C18   C     C_R   0.422163 0.452280 0.747857 0.016248
C19   C     C_R   0.574774 0.549471 0.252107 0.017639
C20   C     C_R   0.578729 0.547242 0.748217 0.031297
C21   C     C_R   0.424308 0.450908 0.251816 0.030567
C22   C     C_R   0.580491 0.547882 0.832476 -0.284274
C23   C     C_R   0.872581 0.495605 0.499931 -0.081704
C24   C     C_R   0.422569 0.450162 0.167558 -0.284757
C25   C     C_R   0.500697 0.499559 0.875544 0.162963
C26   C     C_R   0.499200 0.500316 0.124456 0.162986
C27   C     C_1   0.500199 0.499797 0.963409 -0.059028
C28   C     C_1   0.499662 0.500053 0.036591 -0.059196
C29   C     C_R   0.246197 0.685458 0.322488 -0.125565
C30   C     C_R   0.747639 0.313936 0.673702 -0.123948
C31   C     C_R   0.186925 0.647262 0.385150 -0.116930
C32   C     C_R   0.808623 0.352531 0.612003 -0.113334
C33   C     C_R   0.122080 0.579124 0.370196 0.136213
C34   C     C_R   0.127353 0.503823 0.499908 -0.081040
C35   C     C_R   0.877465 0.418868 0.628650 0.135944
C36   C     C_R   0.116852 0.550019 0.291913 -0.153985
C37   C     C_R   0.885518 0.445483 0.707796 -0.158322
C38   C     C_R   0.177379 0.588018 0.229629 -0.133601
C39   C     C_R   0.823663 0.406969 0.769205 -0.134473
C40   C     C_R   0.242176 0.655615 0.244928 -0.111541
C41   C     C_R   0.754523 0.341368 0.752142 -0.110470
C42   C     C_R   0.933298 0.532249 0.437045 -0.252840
C43   C     C_R   0.066634 0.467018 0.562739 -0.252167
C44   C     C_R   0.404634 0.885048 0.647732 0.113505
C45   C     C_R   0.938615 0.461635 0.563115 -0.004651
C46   C     C_R   0.301684 0.934625 0.650767 -0.145557
C47   C     C_R   0.270061 0.971593 0.722175 -0.148015
C48   C     C_R   0.340158 0.959011 0.791206 -0.115971
C49   C     C_R   0.441852 0.909291 0.788999 -0.136272
C50   C     C_R   0.473975 0.872293 0.717683 -0.160094
C51   C     C_R   0.521052 0.111042 0.347975 0.115070
C52   C     C_R   0.611870 0.053642 0.340788 -0.146659
C53   C     C_R   0.628813 0.015404 0.268083 -0.153649
C54   C     C_R   0.556202 0.034545 0.201864 -0.113026
C55   C     C_R   0.466742 0.092119 0.208178 -0.135097
C56   C     C_R   0.061257 0.537353 0.436491 -0.006065
C57   C     C_R   0.449285 0.130406 0.280825 -0.160729
C58   C     C_R   0.439239 0.845920 0.571926 0.030353
C59   C     C_R   0.502134 0.151763 0.425051 0.029256
C60   C     C_R   0.455255 0.767181 0.571479 -0.257478
H1    H     H_    0.288982 0.684965 0.196657 0.122599
H2    H     H_    0.364784 0.412176 0.284524 0.120888
H3    H     H_    0.643678 0.585885 0.863678 0.134422
H4    H     H_    0.361832 0.410674 0.136384 0.134199
H5    H     H_    0.295156 0.738238 0.333960 0.134402
H6    H     H_    0.694855 0.262840 0.660710 0.130861
H7    H     H_    0.191695 0.670537 0.445158 0.109728
H8    H     H_    0.801577 0.331161 0.551321 0.104942
H9    H     H_    0.067618 0.497396 0.279472 0.124361
H10   H     H_    0.937777 0.496696 0.721604 0.124949
H11   H     H_    0.174384 0.564939 0.169548 0.130626
H12   H     H_    0.706453 0.311739 0.799713 0.122476
H13   H     H_    0.828800 0.428198 0.829964 0.130521
H14   H     H_    0.880786 0.559202 0.389511 0.156703
H15   H     H_    0.119206 0.440009 0.610204 0.155896
H16   H     H_    0.439388 0.735549 0.626056 0.160623
H17   H     H_    0.530836 0.261292 0.372205 0.159993
H18   H     H_    0.533085 0.741197 0.374859 0.153305
H19   H     H_    0.454352 0.261232 0.625949 0.154100
H20   H     H_    0.245579 0.944367 0.598011 0.128796
H21   H     H_    0.190980 0.009867 0.724027 0.127951
H22   H     H_    0.315515 0.987655 0.846444 0.119025
H23   H     H_    0.508188 0.879191 0.374937 0.148992
H24   H     H_    0.495980 0.899510 0.842542 0.123348
H25   H     H_    0.553599 0.834340 0.716808 0.124410
H26   H     H_    0.669863 0.038730 0.391300 0.129988
H27   H     H_    0.698463 0.971036 0.263047 0.126665
H28   H     H_    0.569483 0.004913 0.145612 0.118210
H29   H     H_    0.410760 0.107021 0.156788 0.122994
H30   H     H_    0.379132 0.174628 0.284942 0.123800
H31   H     H_    0.438517 0.122684 0.623510 0.148704
H32   H     H_    0.358192 0.412958 0.863026 0.135416
H33   H     H_    0.636127 0.590212 0.136910 0.135291
H34   H     H_    0.360476 0.414818 0.714891 0.116739
H35   H     H_    0.634119 0.588344 0.285042 0.116387
H36   H     H_    0.640657 0.584572 0.715536 0.122039
N1    N     N_R   0.500030 0.500030 0.707230 -0.084483
N2    N     N_R   0.499970 0.499970 0.292770 -0.084031
O1    O     O_R   0.500000 0.389130 0.566570 -0.621297
O2    O     O_R   0.500000 0.610870 0.433430 -0.621409
O3    O     O_R   0.499990 0.389100 0.433480 -0.628435
O4    O     O_R   0.500010 0.610900 0.566520 -0.628241
O5    O     O_R   0.316760 0.500020 0.566540 -0.630729
O6    O     O_R   0.683240 0.499980 0.433460 -0.629955
O7    O     O_R   0.316760 0.499990 0.433460 -0.610199
O8    O     O_R   0.683240 0.500010 0.566540 -0.610502
Zn1   Zn    Zn3+2 0.500010 0.500020 0.588860 0.947035
Zn2   Zn    Zn3+2 0.499990 0.499980 0.411140 0.947477

loop_
_geom_bond_atom_site_label_1
_geom_bond_atom_site_label_2
_ccdc_geom_bond_type
C7    H23   S    
C34   C56   A    
C23   C45   A    
C14   C18   A    
C1    O1    A    
C39   C41   A    
C53   C54   A    
C36   H9    S    
C15   C19   A    
C17   C23   S    
C23   C42   A    
C49   H24   S    
C35   C37   A    
C17   O6    A    
C24   C26   A    
O8    Zn1   S    
C58   C60   A    
C33   C36   A    
N2    Zn2   S    
C9    C58   A    
C46   C47   A    
C3    C12   S    
C50   H25   S    
C16   C34   S    
C22   H3    S    
C38   H11   S    
C20   N1    A    
C44   C58   S    
C22   C25   A    
C31   C33   A    
C30   C41   A    
C51   C57   A    
C18   N1    A    
C30   C32   A    
C32   H8    S    
C42   C56   A    
C3    C60   A    
C33   C56   S    
C39   H13   S    
C20   H36   S    
C24   H4    S    
C37   H10   S    
C19   N2    A    
C44   C46   A    
C43   H15   S    
O7    Zn2   S    
C42   H14   S    
O2    Zn2   S    
C57   H30   S    
C51   C52   A    
C32   C35   A    
C4    C6    A    
C5    C7    A    
C2    C59   A    
C15   C26   A    
C6    C8    A    
C60   H16   S    
C40   H1    S    
C2    C4    A    
C12   O4    A    
C9    C11   S    
C16   O5    A    
C47   C48   A    
O4    Zn1   S    
C53   H27   S    
C8    H31   S    
C43   C45   A    
C14   H32   S    
C21   H2    S    
C30   H6    S    
C16   O7    A    
C41   H12   S    
C29   H5    S    
C8    C10   A    
C48   C49   A    
C20   C22   A    
C55   C57   A    
C18   H34   S    
C51   C59   S    
C35   C45   S    
C1    O3    A    
O6    Zn2   S    
C19   H35   S    
C52   C53   A    
C44   C50   A    
C7    C9    A    
C54   C55   A    
C34   C43   A    
C3    C5    A    
C10   C13   S    
C15   H33   S    
C25   C27   S    
O1    Zn1   S    
C26   C28   S    
C1    C4    S    
C54   H28   S    
C52   H26   S    
C10   C59   A    
C29   C31   A    
C2    H17   S    
C17   O8    A    
C38   C40   A    
C21   N2    A    
C11   C13   T    
C6    H19   S    
O3    Zn2   S    
C29   C40   A    
C36   C38   A    
C48   H22   S    
C47   H21   S    
C14   C25   A    
C55   H29   S    
C12   O2    A    
C31   H7    S    
N1    Zn1   S    
C37   C39   A    
C49   C50   A    
C21   C24   A    
C27   C28   T    
O5    Zn1   S    
C46   H20   S    
C5    H18   S    
