data_mof_unit_10015.cif
_audit_creation_date              2013-03-05T15:48:18-0500
_audit_creation_method            fapswitch 2.2
_symmetry_space_group_name_H-M    P1
_symmetry_Int_Tables_number       1
_space_group_crystal_system       triclinic
_cell_length_a                    15.710903
_cell_length_b                    15.712556
_cell_length_c                    34.279513
_cell_angle_alpha                 89.992421
_cell_angle_beta                  89.946456
_cell_angle_gamma                 119.98445
_cell_volume                      7329.61218609

loop_
_atom_site_label
_atom_site_type_symbol
_atom_site_description
_atom_site_fract_x
_atom_site_fract_y
_atom_site_fract_z
_atom_type_partial_charge
O1    O     O_R   0.498680 0.159540 0.541860 -0.522883
O2    O     O_R   0.840460 0.339140 0.541860 -0.518587
O3    O     O_R   0.660860 0.501320 0.541860 -0.522824
O4    O     O_R   0.159540 0.498680 0.041860 -0.518847
O5    O     O_R   0.339140 0.840460 0.041860 -0.518504
O6    O     O_R   0.501320 0.660860 0.041860 -0.518336
O7    O     O_R   0.532760 0.358060 0.540030 -0.505479
O8    O     O_R   0.641940 0.174700 0.540030 -0.505105
O9    O     O_R   0.825300 0.467240 0.540030 -0.504721
O10   O     O_R   0.358060 0.532760 0.040030 -0.505387
O11   O     O_R   0.174700 0.641940 0.040030 -0.504681
O12   O     O_R   0.467240 0.825300 0.040030 -0.505544
C1    C     C_R   0.578857 0.440960 0.555434 0.544692
C2    C     C_R   0.559007 0.137973 0.555462 0.545395
C3    C     C_R   0.861927 0.420994 0.555474 0.550513
C4    C     C_R   0.440766 0.579223 0.055639 0.549688
C5    C     C_R   0.138058 0.559025 0.055503 0.549827
C6    C     C_R   0.421084 0.862250 0.055358 0.550503
O13   O     O_R   0.498590 0.161190 0.456930 -0.503209
O14   O     O_R   0.838810 0.337400 0.456930 -0.506998
O15   O     O_R   0.662600 0.501410 0.456930 -0.503264
O16   O     O_R   0.161190 0.498590 0.956930 -0.505053
O17   O     O_R   0.337400 0.838810 0.956930 -0.505296
O18   O     O_R   0.501410 0.662600 0.956930 -0.505078
O19   O     O_R   0.532680 0.359580 0.461300 -0.505260
O20   O     O_R   0.640420 0.173100 0.461300 -0.507577
O21   O     O_R   0.826900 0.467320 0.461300 -0.503909
O22   O     O_R   0.359580 0.532680 0.961300 -0.507294
O23   O     O_R   0.173100 0.640420 0.961300 -0.507601
O24   O     O_R   0.467320 0.826900 0.961300 -0.507520
C7    C     C_R   0.576887 0.443217 0.446020 0.546030
C8    C     C_R   0.556768 0.133698 0.446002 0.545647
C9    C     C_R   0.865509 0.422555 0.445612 0.551257
C10   C     C_R   0.443049 0.577480 0.945680 0.550544
C11   C     C_R   0.134521 0.557057 0.945657 0.550303
C12   C     C_R   0.422569 0.865533 0.945656 0.550135
Cr1   Cr    Cr6+3 0.522350 0.263930 0.500020 1.018114
Cr2   Cr    Cr6+3 0.736070 0.258420 0.500020 1.019007
Cr3   Cr    Cr6+3 0.741580 0.477650 0.500020 1.021205
Cr4   Cr    Cr6+3 0.263930 0.522350 0.000020 1.019300
Cr5   Cr    Cr6+3 0.258420 0.736070 0.000020 1.019511
Cr6   Cr    Cr6+3 0.477650 0.741580 0.000020 1.019376
O25   O     O_3   0.666667 0.333333 0.499990 -0.237315
O26   O     O_3   0.333333 0.666667 0.999990 -0.239404
N1    N     N_R   0.913516 0.409947 0.779042 -0.234220
N2    N     N_R   0.590425 0.508444 0.778698 -0.234540
N3    N     N_R   0.496603 0.086919 0.779039 -0.233925
N4    N     N_R   0.410136 0.928191 0.278014 -0.241612
N5    N     N_R   0.511918 0.592571 0.279674 -0.237243
N6    N     N_R   0.091078 0.500955 0.279146 -0.235375
N7    N     N_R   0.908228 0.403450 0.740386 -0.222302
N8    N     N_R   0.596447 0.509751 0.740026 -0.223129
N9    N     N_R   0.495260 0.092004 0.740377 -0.222094
N10   N     N_R   0.404262 0.923887 0.239318 -0.226194
N11   N     N_R   0.513215 0.598830 0.240972 -0.224065
N12   N     N_R   0.095820 0.499191 0.240466 -0.222097
C13   C     C_R   0.906309 0.449623 0.594483 0.022818
C14   C     C_R   0.549760 0.456813 0.594356 0.021853
C15   C     C_R   0.543153 0.093466 0.594473 0.022009
C16   C     C_R   0.450372 0.908770 0.093957 0.022584
C17   C     C_R   0.456338 0.551246 0.094896 0.022312
C18   C     C_R   0.093503 0.542906 0.094541 0.022593
C19   C     C_R   0.916652 0.381170 0.617320 -0.127558
C20   C     C_R   0.617134 0.536897 0.616880 -0.129527
C21   C     C_R   0.464335 0.083122 0.617331 -0.129020
C22   C     C_R   0.383672 0.924003 0.115929 -0.127516
C23   C     C_R   0.536588 0.619080 0.117276 -0.127517
C24   C     C_R   0.084597 0.464786 0.117478 -0.127143
C25   C     C_R   0.930366 0.394589 0.657434 -0.118188
C26   C     C_R   0.603847 0.537699 0.656999 -0.118191
C27   C     C_R   0.464066 0.069488 0.657458 -0.118164
C28   C     C_R   0.397112 0.940625 0.155908 -0.118446
C29   C     C_R   0.537886 0.606604 0.157467 -0.117860
C30   C     C_R   0.070470 0.464256 0.157581 -0.118025
C31   C     C_R   0.935461 0.477358 0.675339 0.037072
C32   C     C_R   0.522327 0.459147 0.675209 0.037106
C33   C     C_R   0.541778 0.064456 0.675346 0.037263
C34   C     C_R   0.478135 0.943657 0.174483 0.036937
C35   C     C_R   0.459654 0.525426 0.175975 0.036746
C36   C     C_R   0.063257 0.540835 0.175364 0.037311
C37   C     C_R   0.934215 0.550248 0.652091 -0.118394
C38   C     C_R   0.450248 0.383633 0.652234 -0.118420
C39   C     C_R   0.615883 0.065608 0.652077 -0.118644
C40   C     C_R   0.549620 0.937651 0.151954 -0.117841
C41   C     C_R   0.383565 0.453250 0.153187 -0.117855
C42   C     C_R   0.063057 0.614154 0.152040 -0.117247
C43   C     C_R   0.919343 0.536300 0.611932 -0.131685
C44   C     C_R   0.464006 0.382314 0.612077 -0.131491
C45   C     C_R   0.616782 0.080400 0.611909 -0.132135
C46   C     C_R   0.535676 0.919996 0.111960 -0.132008
C47   C     C_R   0.381737 0.466218 0.112968 -0.131724
C48   C     C_R   0.078625 0.615494 0.111892 -0.131234
N13   N     N_R   0.969796 0.572577 0.736088 -0.228390
N14   N     N_R   0.428864 0.395171 0.736267 -0.228212
N15   N     N_R   0.602874 0.030444 0.736104 -0.228542
N16   N     N_R   0.571069 0.973627 0.235453 -0.227123
N17   N     N_R   0.395332 0.432383 0.237098 -0.226669
N18   N     N_R   0.022951 0.596965 0.235982 -0.226464
N19   N     N_R   0.975597 0.578995 0.774809 -0.207377
N20   N     N_R   0.422900 0.394432 0.775010 -0.206664
N21   N     N_R   0.603624 0.024846 0.774830 -0.207325
N22   N     N_R   0.576870 0.978425 0.274162 -0.204791
N23   N     N_R   0.394562 0.426171 0.275826 -0.205039
N24   N     N_R   0.017581 0.598017 0.274707 -0.205743
C49   C     C_R   0.948100 0.497954 0.797169 0.347036
C50   C     C_R   0.503395 0.451422 0.797119 0.347295
C51   C     C_R   0.550124 0.052443 0.797182 0.347222
C52   C     C_R   0.496677 0.955850 0.296359 0.345615
C53   C     C_R   0.452897 0.505983 0.298039 0.346218
C54   C     C_R   0.051410 0.549991 0.297167 0.341649
C55   C     C_R   0.937811 0.484845 0.718140 0.346323
C56   C     C_R   0.515485 0.454428 0.718037 0.346575
C57   C     C_R   0.547024 0.062309 0.718144 0.346223
C58   C     C_R   0.484898 0.947697 0.217285 0.347468
C59   C     C_R   0.455941 0.518558 0.218894 0.347700
C60   C     C_R   0.060618 0.545999 0.218140 0.345296
C61   C     C_R   0.974161 0.428040 0.857723 -0.142983
C62   C     C_R   0.572923 0.546384 0.857885 -0.142808
C63   C     C_R   0.454197 0.026451 0.857788 -0.142988
C64   C     C_R   0.426258 0.973414 0.358650 -0.139043
C65   C     C_R   0.542431 0.575496 0.360200 -0.138548
C66   C     C_R   0.027921 0.455505 0.357923 -0.141518
C67   C     C_R   0.021044 0.439745 0.893541 -0.030548
C68   C     C_R   0.560892 0.581360 0.893710 -0.030508
C69   C     C_R   0.418935 0.979389 0.893603 -0.030545
C70   C     C_R   0.437642 0.016172 0.395500 -0.025511
C71   C     C_R   0.575115 0.563298 0.396691 -0.025961
C72   C     C_R   0.980756 0.420023 0.393726 -0.030148
C73   C     C_R   0.054045 0.608031 0.895938 -0.157459
C74   C     C_R   0.392601 0.446123 0.895974 -0.157633
C75   C     C_R   0.554191 0.946292 0.895943 -0.157428
C76   C     C_R   0.608226 0.055583 0.395442 -0.153363
C77   C     C_R   0.446256 0.391866 0.396003 -0.152336
C78   C     C_R   0.945749 0.554144 0.395796 -0.148058
C79   C     C_R   0.005715 0.595539 0.860315 -0.021440
C80   C     C_R   0.405404 0.410468 0.860336 -0.021600
C81   C     C_R   0.590139 0.994842 0.860331 -0.021390
C82   C     C_R   0.595480 0.009689 0.359246 -0.019860
C83   C     C_R   0.410589 0.405870 0.360645 -0.020676
C84   C     C_R   0.995476 0.590911 0.360391 -0.017935
C85   C     C_R   0.971876 0.506825 0.839396 0.013046
C86   C     C_R   0.494247 0.465581 0.839429 0.012854
C87   C     C_R   0.535282 0.028754 0.839432 0.013045
C88   C     C_R   0.505891 0.975870 0.338950 0.011839
C89   C     C_R   0.464958 0.496081 0.340539 0.010726
C90   C     C_R   0.029532 0.536085 0.339554 0.009132
C91   C     C_R   0.067639 0.533181 0.911819 0.000270
C92   C     C_R   0.467259 0.534515 0.911895 0.000255
C93   C     C_R   0.465692 0.932619 0.911838 0.000270
C94   C     C_R   0.532385 0.065398 0.412645 -0.003639
C95   C     C_R   0.531843 0.467834 0.413116 -0.005619
C96   C     C_R   0.932733 0.465891 0.411782 -0.001052
H1    H     H_    0.907061 0.313712 0.604719 0.129392
H2    H     H_    0.683783 0.595508 0.604040 0.127307
H3    H     H_    0.406464 0.092706 0.604734 0.127432
H4    H     H_    0.317404 0.916145 0.102828 0.130136
H5    H     H_    0.595202 0.685355 0.104223 0.129492
H6    H     H_    0.095671 0.407743 0.104969 0.129563
H7    H     H_    0.911730 0.590323 0.594997 0.121627
H8    H     H_    0.410760 0.319713 0.595381 0.122031
H9    H     H_    0.678419 0.087986 0.594953 0.121385
H10   H     H_    0.588376 0.908753 0.095685 0.123053
H11   H     H_    0.318869 0.412751 0.096462 0.122458
H12   H     H_    0.085171 0.676596 0.094883 0.122066
H13   H     H_    0.933356 0.338268 0.674600 0.134706
H14   H     H_    0.659474 0.598077 0.673932 0.134668
H15   H     H_    0.404769 0.066547 0.674645 0.134462
H16   H     H_    0.341959 0.947198 0.172488 0.134397
H17   H     H_    0.598572 0.662439 0.174202 0.135397
H18   H     H_    0.068715 0.405657 0.174846 0.134096
H19   H     H_    0.939117 0.615306 0.665152 0.133060
H20   H     H_    0.386094 0.322776 0.665504 0.133338
H21   H     H_    0.676059 0.060735 0.665125 0.132867
H22   H     H_    0.613384 0.940841 0.165513 0.134696
H23   H     H_    0.322792 0.389378 0.166638 0.134045
H24   H     H_    0.056645 0.673504 0.165060 0.133462
H25   H     H_    0.944371 0.357710 0.843108 0.132288
H26   H     H_    0.643465 0.586907 0.843371 0.132534
H27   H     H_    0.413694 0.056330 0.843191 0.132414
H28   H     H_    0.354949 0.940893 0.344741 0.124234
H29   H     H_    0.579971 0.647378 0.346616 0.126527
H30   H     H_    0.058007 0.415297 0.343226 0.130116
H31   H     H_    0.083567 0.677988 0.910782 0.122202
H32   H     H_    0.322523 0.405633 0.910782 0.122166
H33   H     H_    0.594584 0.916668 0.910766 0.122168
H34   H     H_    0.679023 0.086391 0.409673 0.121263
H35   H     H_    0.407840 0.320051 0.409689 0.135607
H36   H     H_    0.915025 0.593893 0.410428 0.135038
C97   C     C_R   0.020635 0.352377 0.909787 0.050435
C98   C     C_R   0.099802 0.336747 0.902832 -0.066480
C99   C     C_R   0.095702 0.250167 0.915582 -0.117559
C100  C     C_R   0.011952 0.178151 0.934744 -0.106152
C101  C     C_R   0.932447 0.192871 0.941417 -0.113823
C102  C     C_R   0.936604 0.279648 0.928943 -0.100436
H37   H     H_    0.164298 0.391754 0.887596 0.105006
H38   H     H_    0.157025 0.238443 0.910365 0.111853
H39   H     H_    0.008514 0.110818 0.944278 0.098246
H40   H     H_    0.867280 0.136692 0.955959 0.105228
H41   H     H_    0.873960 0.289608 0.933681 0.103403
C103  C     C_R   0.648121 0.668211 0.910032 0.050508
C104  C     C_R   0.663909 0.763026 0.903038 -0.066485
C105  C     C_R   0.750401 0.845418 0.915838 -0.117789
C106  C     C_R   0.822180 0.833576 0.935095 -0.106248
C107  C     C_R   0.807305 0.739331 0.941810 -0.113937
C108  C     C_R   0.720612 0.656798 0.929282 -0.100538
H42   H     H_    0.609081 0.772591 0.887735 0.104964
H43   H     H_    0.762237 0.918477 0.910587 0.111754
H44   H     H_    0.889450 0.897401 0.944670 0.098226
H45   H     H_    0.863304 0.730259 0.956426 0.105163
H46   H     H_    0.710539 0.584178 0.934049 0.103358
C109  C     C_R   0.331962 0.979775 0.909890 0.050404
C110  C     C_R   0.237195 0.900708 0.902941 -0.066521
C111  C     C_R   0.154707 0.904789 0.915736 -0.117675
C112  C     C_R   0.166407 0.988428 0.934939 -0.106315
C113  C     C_R   0.260606 0.067837 0.941608 -0.114115
C114  C     C_R   0.343233 0.063695 0.929088 -0.100660
H47   H     H_    0.227739 0.836297 0.887680 0.104996
H48   H     H_    0.081682 0.843538 0.910523 0.111883
H49   H     H_    0.102508 0.991855 0.944509 0.098222
H50   H     H_    0.269570 0.132920 0.956183 0.105208
H51   H     H_    0.415818 0.126265 0.933825 0.103374
C115  C     C_R   0.349134 0.008001 0.414766 0.054680
C116  C     C_R   0.321717 0.967366 0.452344 -0.058983
C117  C     C_R   0.236783 0.957299 0.469939 -0.106522
C118  C     C_R   0.178165 0.986801 0.450077 -0.108842
C119  C     C_R   0.204354 0.026408 0.412581 -0.113930
C120  C     C_R   0.289308 0.036765 0.394951 -0.096221
H52   H     H_    0.365942 0.943316 0.467906 0.099305
H53   H     H_    0.216198 0.926243 0.498922 0.103135
H54   H     H_    0.112299 0.978683 0.463681 0.099346
H55   H     H_    0.158669 0.048780 0.397139 0.114548
H56   H     H_    0.308579 0.066971 0.365844 0.093529
C121  C     C_R   0.653532 0.651762 0.416611 0.054228
C122  C     C_R   0.639189 0.675216 0.454737 -0.059465
C123  C     C_R   0.711920 0.760328 0.472922 -0.107533
C124  C     C_R   0.798979 0.823106 0.453118 -0.110488
C125  C     C_R   0.813487 0.800832 0.415109 -0.115497
C126  C     C_R   0.741040 0.715668 0.396908 -0.099013
H57   H     H_    0.571612 0.627845 0.470257 0.098469
H58   H     H_    0.700562 0.777858 0.502310 0.102925
H59   H     H_    0.855025 0.889158 0.467162 0.098243
H60   H     H_    0.880674 0.849737 0.399698 0.111694
H61   H     H_    0.752679 0.699434 0.367417 0.090177
C127  C     C_R   0.981947 0.333363 0.409915 0.049825
C128  C     C_R   0.068239 0.344396 0.426842 -0.101759
C129  C     C_R   0.073151 0.261744 0.438673 -0.111624
C130  C     C_R   0.992240 0.167689 0.433474 -0.106526
C131  C     C_R   0.906317 0.156186 0.416450 -0.117147
C132  C     C_R   0.901419 0.238722 0.404430 -0.063354
H62   H     H_    0.132022 0.416799 0.430296 0.104084
H63   H     H_    0.140000 0.270564 0.451518 0.107998
H64   H     H_    0.996278 0.103748 0.442462 0.098744
H65   H     H_    0.843906 0.083293 0.412270 0.110945
H66   H     H_    0.835219 0.229510 0.390898 0.106080
C133  C     C_R   0.991498 0.676347 0.846217 0.040293
C134  C     C_R   0.070297 0.761084 0.829893 -0.078278
C135  C     C_R   0.057277 0.838797 0.817813 -0.104229
C136  C     C_R   0.965738 0.832381 0.822067 -0.098924
C137  C     C_R   0.886915 0.748056 0.838217 -0.094535
C138  C     C_R   0.899553 0.669996 0.850203 -0.079965
H67   H     H_    0.141397 0.766611 0.826406 0.112392
H68   H     H_    0.118220 0.904011 0.805240 0.108928
H69   H     H_    0.955855 0.892633 0.812780 0.096036
H70   H     H_    0.816190 0.743376 0.841563 0.115096
H71   H     H_    0.838215 0.605235 0.862933 0.107400
C139  C     C_R   0.324655 0.315532 0.846207 0.040705
C140  C     C_R   0.240101 0.309726 0.829802 -0.078494
C141  C     C_R   0.162442 0.219072 0.817684 -0.104086
C142  C     C_R   0.168734 0.133903 0.821978 -0.098867
C143  C     C_R   0.252872 0.139276 0.838213 -0.094471
C144  C     C_R   0.330869 0.229887 0.850244 -0.079227
H72   H     H_    0.234670 0.375335 0.826287 0.112035
H73   H     H_    0.097365 0.214896 0.805051 0.108891
H74   H     H_    0.108533 0.063830 0.812657 0.095990
H75   H     H_    0.257452 0.073195 0.841591 0.114947
H76   H     H_    0.395485 0.233210 0.863037 0.107535
C145  C     C_R   0.685243 0.009204 0.846215 0.040265
C146  C     C_R   0.691409 0.930470 0.829979 -0.078317
C147  C     C_R   0.782203 0.943660 0.817849 -0.104291
C148  C     C_R   0.867166 0.035306 0.821967 -0.099019
C149  C     C_R   0.861438 0.114064 0.838028 -0.094453
C150  C     C_R   0.770676 0.101257 0.850060 -0.079781
H77   H     H_    0.625957 0.859298 0.826583 0.112497
H78   H     H_    0.786639 0.882770 0.805335 0.109153
H79   H     H_    0.937352 0.045332 0.812638 0.096059
H80   H     H_    0.927360 0.184871 0.841267 0.114913
H81   H     H_    0.767078 0.162556 0.862714 0.107588
C151  C     C_R   0.676846 0.998128 0.343690 0.041171
C152  C     C_R   0.667225 0.904459 0.341820 -0.068033
C153  C     C_R   0.743708 0.893115 0.326801 -0.094296
C154  C     C_R   0.830296 0.975077 0.313849 -0.101534
C155  C     C_R   0.840079 0.068461 0.315471 -0.101448
C156  C     C_R   0.763412 0.080020 0.330162 -0.080734
H82   H     H_    0.600558 0.840450 0.351871 0.111345
H83   H     H_    0.735605 0.820734 0.325038 0.103705
H84   H     H_    0.889408 0.966094 0.302257 0.096189
H85   H     H_    0.906703 0.131786 0.305079 0.108578
H86   H     H_    0.770780 0.152283 0.330469 0.109463
C157  C     C_R   0.316088 0.325239 0.346050 0.047706
C158  C     C_R   0.232237 0.335462 0.346101 -0.071304
C159  C     C_R   0.142051 0.258193 0.333310 -0.088709
C160  C     C_R   0.135392 0.170937 0.320068 -0.100422
C161  C     C_R   0.218815 0.160723 0.319678 -0.113583
C162  C     C_R   0.308853 0.237317 0.332912 -0.076777
H87   H     H_    0.236567 0.402687 0.356409 0.106366
H88   H     H_    0.077330 0.265847 0.333725 0.110340
H89   H     H_    0.065691 0.111321 0.310069 0.096104
H90   H     H_    0.213726 0.093354 0.309261 0.100253
H91   H     H_    0.373060 0.228679 0.332610 0.113683
C163  C     C_R   0.010504 0.686277 0.345966 0.047876
C164  C     C_R   0.105998 0.764921 0.339312 -0.063848
C165  C     C_R   0.120019 0.854649 0.325304 -0.090868
C166  C     C_R   0.039066 0.866400 0.317847 -0.100807
C167  C     C_R   0.944003 0.788428 0.324282 -0.110075
C168  C     C_R   0.929592 0.698711 0.338459 -0.078548
H92   H     H_    0.169315 0.756651 0.344950 0.111404
H93   H     H_    0.193546 0.914929 0.320049 0.107112
H94   H     H_    0.049839 0.935627 0.306846 0.095450
H95   H     H_    0.881500 0.797406 0.318067 0.096515
H96   H     H_    0.855604 0.638338 0.342932 0.111224

loop_
_geom_bond_atom_site_label_1
_geom_bond_atom_site_label_2
_geom_bond_distance
_ccdc_geom_bond_type
N21   C51   1.358240 A    
C128  H62   1.083148 S    
N16   N22   1.329674 A    
C63   C87   1.404468 A    
C154  C155  1.397980 A    
C64   C88   1.404620 A    
C35   C41   1.404374 A    
C166  H94   1.081560 S    
C159  C160  1.397702 A    
C2    C15   1.471194 S    
C125  H60   1.082534 S    
O22   Cr4   1.949035 S    
N6    C54   1.357581 A    
C76   C94   1.404876 A    
C127  C128  1.404025 A    
O10   Cr4   1.963910 S    
C99   H38   1.082222 S    
O12   Cr6   1.962995 S    
O13   Cr1   2.080025 S    
C10   C92   1.482478 S    
C97   C102  1.403662 A    
C22   C28   1.391576 A    
C116  C117  1.398878 A    
C77   C95   1.405126 A    
C104  H42   1.081666 S    
N17   C59   1.356263 A    
O3    C1    1.246310 A    
O1    Cr1   2.067477 S    
N3    N9    1.328552 A    
C73   H31   1.083197 S    
O3    Cr3   2.066856 S    
C128  C129  1.398971 A    
C20   H2    1.083254 S    
N16   C58   1.355368 A    
C155  H85   1.082023 S    
O8    Cr2   1.962093 S    
C24   H6    1.083201 S    
O13   C8    1.247574 A    
C61   H25   1.083888 S    
C50   C86   1.485066 S    
C105  C106  1.397584 A    
C99   C100  1.397574 A    
C78   H36   1.084262 S    
C19   H1    1.083202 S    
O20   Cr2   1.951343 S    
O5    C6    1.244723 A    
C167  C168  1.398299 A    
C130  H64   1.082577 S    
O18   C10   1.246305 A    
C113  C114  1.398929 A    
C140  H72   1.082797 S    
C161  C162  1.398180 A    
N12   C60   1.356344 A    
C62   C68   1.396216 A    
N17   N23   1.330759 A    
C69   C93   1.418008 A    
O14   C9    1.247119 A    
C77   C83   1.398557 A    
C72   C127  1.479077 S    
C75   C93   1.405786 A    
C51   C87   1.484245 S    
C52   C88   1.485425 S    
C158  C159  1.398477 A    
C149  H80   1.082269 S    
C112  C113  1.397970 A    
C53   C89   1.487467 S    
C14   C44   1.405815 A    
C16   C46   1.404780 A    
O23   C11   1.256126 A    
N20   C50   1.358554 A    
C118  H54   1.082469 S    
O17   Cr5   2.078772 S    
O24   C12   1.256026 A    
O9    C3    1.248138 A    
Cr2   O25   1.964011 S    
C21   C27   1.391777 A    
C117  H53   1.082299 S    
N24   C54   1.358753 A    
C115  C120  1.405290 A    
N10   C58   1.356372 A    
C43   H7    1.083205 S    
C66   C90   1.402814 A    
C73   C91   1.405788 A    
O6    C4    1.246109 A    
O7    C1    1.248196 A    
C8    C94   1.481955 S    
C110  C111  1.399287 A    
O17   C12   1.246409 A    
O6    Cr6   2.067842 S    
O10   C4    1.249360 A    
C113  H50   1.082370 S    
C158  H87   1.083292 S    
O19   C7    1.253223 A    
C145  C150  1.403887 A    
O20   C8    1.254437 A    
C98   C99   1.399297 A    
C35   C59   1.474163 S    
C123  H58   1.082312 S    
O9    Cr3   1.963732 S    
O21   C9    1.256121 A    
O15   C7    1.248851 A    
C81   C145  1.476222 S    
C168  H96   1.082617 S    
C142  H74   1.081058 S    
C46   H10   1.083214 S    
C139  C144  1.403878 A    
N8    C56   1.355931 A    
C24   C30   1.391670 A    
C124  C125  1.396903 A    
C80   C139  1.476133 S    
C135  C136  1.398009 A    
C15   C45   1.405746 A    
C156  H86   1.082294 S    
C17   C23   1.404658 A    
C28   C34   1.403210 A    
C71   C95   1.417358 A    
C148  H79   1.081060 S    
C72   C96   1.419333 A    
C19   C25   1.391765 A    
C36   C42   1.403492 A    
C121  C122  1.406140 A    
C44   H8    1.083262 S    
C109  C114  1.403654 A    
C150  H81   1.083275 S    
C27   H15   1.083092 S    
C145  C146  1.403367 A    
C28   H16   1.083070 S    
C40   C46   1.394438 A    
N1    C49   1.357704 A    
C13   C19   1.403861 A    
C129  H63   1.082366 S    
C14   C20   1.403713 A    
C144  H76   1.083280 S    
C39   C45   1.395294 A    
C71   C121  1.485383 S    
C127  C132  1.402628 A    
C36   C60   1.470295 S    
C148  C149  1.397865 A    
C32   C38   1.403350 A    
C131  H65   1.082387 S    
N5    N11   1.329725 A    
C126  H61   1.080219 S    
N6    N12   1.329033 A    
C13   C43   1.405789 A    
C124  H59   1.082465 S    
C7    C95   1.482458 S    
O2    Cr2   2.069122 S    
N14   N20   1.330918 A    
C147  C148  1.398022 A    
C152  C153  1.397726 A    
C29   C35   1.404085 A    
C23   H5    1.083164 S    
C98   H37   1.081703 S    
C75   H33   1.083214 S    
C101  C102  1.398925 A    
C105  H43   1.082245 S    
C4    C17   1.473789 S    
C62   H26   1.083888 S    
C27   C33   1.403834 A    
C167  H95   1.080926 S    
C129  C130  1.398020 A    
O23   Cr5   1.951280 S    
C143  H75   1.082274 S    
C140  C141  1.397900 A    
C161  H90   1.081663 S    
C106  H44   1.082483 S    
C146  H77   1.082776 S    
C136  C137  1.397890 A    
C21   H3    1.083220 S    
C82   C88   1.414870 A    
C15   C21   1.403842 A    
C22   H4    1.083188 S    
C70   C94   1.417841 A    
C108  H46   1.083120 S    
C38   C44   1.394991 A    
N2    C50   1.358238 A    
N14   C56   1.356916 A    
C18   C24   1.404383 A    
C25   H13   1.083092 S    
C77   H35   1.084547 S    
O22   C10   1.256118 A    
Cr4   O26   1.964560 S    
C107  C108  1.398941 A    
C119  C120  1.398038 A    
C146  C147  1.397861 A    
O1    C2    1.245943 A    
C54   C90   1.483598 S    
C137  C138  1.398569 A    
C103  C108  1.403641 A    
O18   Cr6   2.079346 S    
C106  C107  1.397986 A    
C117  C118  1.398004 A    
C69   C109  1.478403 S    
C111  C112  1.397575 A    
C68   C92   1.417841 A    
C63   H27   1.083907 S    
C65   C71   1.401663 A    
C64   C70   1.399856 A    
C110  H47   1.081677 S    
C76   C82   1.398593 A    
C101  H40   1.082371 S    
C100  H39   1.082484 S    
C153  C154  1.397810 A    
C114  H51   1.083119 S    
C80   C86   1.414771 A    
C133  C138  1.403872 A    
C84   C163  1.480391 S    
N9    C57   1.355777 A    
C107  H45   1.082372 S    
O8    C2    1.248055 A    
C123  C124  1.397936 A    
C23   C29   1.393181 A    
N13   N19   1.330927 A    
C16   C22   1.404289 A    
C132  H66   1.080886 S    
C30   C36   1.403086 A    
C142  C143  1.397885 A    
C47   H11   1.083185 S    
C34   C58   1.470242 S    
C40   H22   1.082956 S    
C45   H9    1.083207 S    
C163  C168  1.403266 A    
C162  H91   1.083013 S    
C38   H20   1.082999 S    
C135  H68   1.082092 S    
C137  H70   1.082272 S    
C84   C90   1.413776 A    
C160  H89   1.081471 S    
O7    Cr1   1.963289 S    
Cr1   O25   1.964349 S    
C61   C85   1.404509 A    
C121  C126  1.404578 A    
C83   C157  1.476870 S    
C75   C81   1.399634 A    
C5    C18   1.471708 S    
C109  C110  1.403153 A    
C111  H48   1.082229 S    
C78   C96   1.407521 A    
C151  C156  1.403520 A    
O2    C3    1.246031 A    
C37   C43   1.395426 A    
N13   C55   1.356362 A    
O4    C5    1.245529 A    
C63   C69   1.396459 A    
Cr5   O26   1.964000 S    
C122  C123  1.398898 A    
C29   H17   1.083001 S    
C131  C132  1.399001 A    
C65   H29   1.083456 S    
C163  C164  1.405752 A    
O11   C5    1.248854 A    
C68   C103  1.478441 S    
C31   C55   1.470947 S    
C152  H82   1.083311 S    
N23   C53   1.358364 A    
C154  H84   1.081971 S    
C64   H28   1.082793 S    
C74   H32   1.083220 S    
C151  C152  1.403845 A    
C49   C85   1.484369 S    
C166  C167  1.396658 A    
N4    C52   1.357944 A    
N11   C59   1.356610 A    
C159  H88   1.082044 S    
C25   C31   1.403818 A    
C66   C72   1.396952 A    
C97   C98   1.403179 A    
C141  C142  1.398031 A    
C33   C39   1.403295 A    
C143  C144  1.398565 A    
O24   Cr6   1.950042 S    
C79   C133  1.476170 S    
C138  H71   1.083277 S    
C164  C165  1.398578 A    
Cr6   O26   1.964378 S    
C82   C151  1.477280 S    
C104  C105  1.399262 A    
C136  H69   1.081041 S    
C157  C158  1.404569 A    
C41   C47   1.396047 A    
C165  C166  1.397257 A    
N4    N10   1.329179 A    
O16   C11   1.246508 A    
C155  C156  1.398210 A    
C112  H49   1.082482 S    
C26   H14   1.083107 S    
C78   C84   1.401412 A    
C12   C93   1.482700 S    
N1    N7    1.328543 A    
C119  H55   1.082509 S    
N2    N8    1.328353 A    
O19   Cr1   1.949886 S    
O21   Cr3   1.949124 S    
C103  C104  1.403173 A    
C18   C48   1.405572 A    
C141  H73   1.082105 S    
N22   C52   1.357804 A    
C20   C26   1.391817 A    
C67   C97   1.478407 S    
C134  H67   1.082790 S    
C48   H12   1.083187 S    
C120  H56   1.080805 S    
C81   C87   1.414234 A    
C73   C79   1.399667 A    
C164  H92   1.083218 S    
C37   H19   1.082978 S    
C3    C13   1.471397 S    
N19   C49   1.358262 A    
C74   C92   1.405592 A    
C153  H83   1.081029 S    
O4    Cr4   2.066642 S    
C76   H34   1.082760 S    
C116  H52   1.083150 S    
C31   C37   1.403333 A    
Cr3   O25   1.964580 S    
C1    C14   1.471054 S    
C149  C150  1.398579 A    
C147  H78   1.082074 S    
C34   C40   1.403931 A    
O14   Cr2   2.078504 S    
N18   C60   1.355981 A    
C102  H41   1.083122 S    
O15   Cr3   2.080195 S    
C79   C85   1.414256 A    
C32   C56   1.471108 S    
O16   Cr4   2.080606 S    
C134  C135  1.397867 A    
C118  C119  1.396960 A    
C11   C91   1.482818 S    
C6    C16   1.470345 S    
C33   C57   1.470826 S    
C67   C91   1.418006 A    
N3    C51   1.357719 A    
C39   H21   1.082978 S    
C26   C32   1.404170 A    
C65   C89   1.405858 A    
C133  C134  1.403375 A    
N5    C53   1.358247 A    
C157  C162  1.402698 A    
O5    Cr5   2.068970 S    
C160  C161  1.397846 A    
C83   C89   1.415016 A    
N7    C55   1.355769 A    
C74   C80   1.399675 A    
C62   C86   1.404686 A    
C9    C96   1.484126 S    
C130  C131  1.397549 A    
C70   C115  1.485267 S    
C100  C101  1.397963 A    
C61   C67   1.396509 A    
C42   C48   1.395922 A    
N15   C57   1.356336 A    
N18   N24   1.330680 A    
C41   H23   1.082918 S    
O11   Cr5   1.962211 S    
C42   H24   1.083011 S    
C122  H57   1.083163 S    
C115  C116  1.405848 A    
C30   H18   1.083170 S    
C139  C140  1.403405 A    
N15   N21   1.330868 A    
C66   H30   1.083737 S    
O12   C6    1.248681 A    
C165  H93   1.081626 S    
C125  C126  1.398072 A    
C17   C47   1.405581 A    
