data_mof_unit_6300.cif
_audit_creation_date              2012-12-10T17:52:21-0500
_audit_creation_method            fapswitch 2.2
_symmetry_space_group_name_H-M    P1
_symmetry_Int_Tables_number       1
_space_group_crystal_system       triclinic
_cell_length_a                    19.027818
_cell_length_b                    10.627879
_cell_length_c                    9.913436
_cell_angle_alpha                 89.83932
_cell_angle_beta                  89.391214
_cell_angle_gamma                 91.793873
_cell_volume                      2003.6425602

loop_
_atom_site_label
_atom_site_type_symbol
_atom_type_description
_atom_site_fract_x
_atom_site_fract_y
_atom_site_fract_z
_atom_type_partial_charge
C1    C     C_R   0.501749 0.260716 0.500137 0.849760
C2    C     C_R   0.289188 0.474972 0.503594 -0.026691
C3    C     C_R   0.927415 0.390513 0.515470 0.298395
C4    C     C_R   0.069331 0.391046 0.514564 0.286150
C5    C     C_R   0.817278 0.457134 0.626263 -0.169832
C6    C     C_R   0.747229 0.488327 0.619324 -0.256997
C7    C     C_R   0.710171 0.472922 0.498596 -0.040369
C8    C     C_R   0.744536 0.424561 0.383611 0.104243
C9    C     C_R   0.815081 0.394031 0.391610 -0.217738
C10   C     C_R   0.851823 0.410639 0.512232 0.069157
C11   C     C_R   0.620101 0.137639 0.620367 -0.171582
C12   C     C_R   0.365219 0.496653 0.500837 0.841823
C13   C     C_R   0.675553 0.074968 0.678545 -0.129453
C14   C     C_R   0.675623 0.944025 0.678426 -0.144352
C15   C     C_R   0.620314 0.875310 0.619873 -0.189532
C16   C     C_R   0.563292 0.937460 0.561555 0.097678
C17   C     C_R   0.563143 0.069370 0.561932 0.096706
C18   C     C_R   0.506535 0.128699 0.499912 -0.092183
C19   C     C_R   0.453195 0.061788 0.434099 -0.209793
C20   C     C_R   0.453408 0.933249 0.433536 -0.196385
C21   C     C_R   0.506899 0.872040 0.498975 -0.104838
C22   C     C_R   0.407724 0.334603 0.142040 -0.165462
C23   C     C_R   0.502094 0.739463 0.499744 0.876763
C24   C     C_R   0.361726 0.253126 0.073446 0.120938
C25   C     C_R   0.361986 0.254036 0.932979 -0.231741
C26   C     C_R   0.407589 0.335475 0.862105 -0.181871
C27   C     C_R   0.454451 0.418836 0.928816 0.162060
C28   C     C_R   0.454491 0.418666 0.073267 0.091944
C29   C     C_R   0.543842 0.577861 0.070581 0.168436
C30   C     C_R   0.543670 0.577523 0.926985 -0.172332
C31   C     C_R   0.634738 0.496073 0.499155 0.843021
C32   C     C_R   0.253526 0.462920 0.627745 -0.200977
C33   C     C_R   0.182282 0.431395 0.631406 -0.165189
C34   C     C_R   0.145606 0.411701 0.510983 0.092111
C35   C     C_R   0.181405 0.422929 0.386779 -0.167407
C36   C     C_R   0.252695 0.454845 0.383113 -0.213006
H1    H     H_    0.280665 0.476655 0.722321 0.161486
H2    H     H_    0.622962 0.239308 0.620049 0.153434
H3    H     H_    0.718895 0.128227 0.722714 0.142753
H4    H     H_    0.719008 0.895524 0.722584 0.136261
H5    H     H_    0.623364 0.773888 0.618979 0.140205
H6    H     H_    0.410938 0.881092 0.384664 0.157462
H7    H     H_    0.405139 0.328984 0.249060 0.203377
H8    H     H_    0.326794 0.191449 0.877679 0.149555
H9    H     H_    0.404549 0.330240 0.755170 0.211179
H10   H     H_    0.155935 0.423659 0.728580 0.149343
H11   H     H_    0.579223 0.640712 0.871602 0.143684
H12   H     H_    0.154277 0.409132 0.292243 0.149079
H13   H     H_    0.279232 0.462419 0.286101 0.156122
H14   H     H_    0.844589 0.471827 0.720465 0.153710
H15   H     H_    0.721997 0.524353 0.709124 0.160904
H16   H     H_    0.841013 0.357970 0.302571 0.148621
H17   H     H_    0.410589 0.109351 0.385588 0.159973
N1    N     N_R   0.033412 0.371953 0.398730 -0.180966
N2    N     N_R   0.963678 0.371610 0.399211 -0.179173
N3    N     N_R   0.963258 0.404863 0.632097 -0.182025
N4    N     N_R   0.032990 0.405029 0.631647 -0.180470
N5    N     N_R   0.499340 0.498800 0.142780 -0.110539
N6    N     N_R   0.499320 0.498720 0.857170 -0.118620
O1    O     O_R   0.500000 0.316780 0.614690 -0.636961
O2    O     O_R   0.499990 0.316750 0.385360 -0.627054
O3    O     O_R   0.398140 0.500000 0.614700 -0.633638
O4    O     O_R   0.398130 0.499970 0.385370 -0.640370
O5    O     O_R   0.500010 0.683250 0.614640 -0.613017
O6    O     O_R   0.500000 0.683220 0.385310 -0.591679
O7    O     O_R   0.601870 0.500030 0.614630 -0.638555
O8    O     O_R   0.601860 0.500000 0.385300 -0.561432
Zn1   Zn    Zn3+2 0.500000 0.500020 0.653130 0.930721
Zn2   Zn    Zn3+2 0.500000 0.499980 0.346870 0.963939
N7    N     N_3   0.590869 0.661368 0.140858 -0.388335
H18   H     H_    0.642142 0.642278 0.110005 0.161628
H19   H     H_    0.580538 0.753364 0.111145 0.170678
N8    N     N_3   0.315621 0.168898 0.148724 -0.469661
H20   H     H_    0.280006 0.223630 0.201757 0.178511
H21   H     H_    0.285921 0.112006 0.083353 0.189147
N9    N     N_3   0.708108 0.403501 0.259482 -0.428059
H22   H     H_    0.710854 0.308071 0.235266 0.183057
H23   H     H_    0.734403 0.455388 0.183554 0.174275

loop_
_geom_bond_atom_site_label_1
_geom_bond_atom_site_label_2
_ccdc_geom_bond_type
C31   O7    A    
O7    Zn1   S    
C16   C21   A    
N8    H20   S    
C19   C20   A    
C2    C12   S    
C7    C8    A    
C31   O8    A    
C1    C18   S    
O5    Zn1   S    
N9    H23   S    
C18   C19   A    
C5    C6    A    
C24   N8    S    
O2    Zn2   S    
C15   C16   A    
C8    N9    S    
N3    N4    A    
C2    C32   A    
C34   C35   A    
C26   H9    S    
C3    N2    A    
C35   C36   A    
C8    C9    A    
C4    N4    A    
N7    H18   S    
C6    H15   S    
C9    C10   A    
C19   H17   S    
C22   C28   A    
C13   C14   A    
C33   H10   S    
N8    H21   S    
C9    H16   S    
C35   H12   S    
C25   H8    S    
C33   C34   A    
C4    C34   S    
C7    C31   S    
O4    Zn2   S    
C30   H11   S    
C24   C25   A    
C15   H5    S    
C1    O1    A    
C12   O4    A    
C16   C17   A    
C25   C26   A    
O8    Zn2   S    
C11   H2    S    
C29   C30   A    
N6    Zn1   S    
C12   O3    A    
C3    N3    A    
C22   H7    S    
C30   N6    A    
C20   C21   A    
C17   C18   A    
C26   C27   A    
C32   H1    S    
N9    H22   S    
C23   O5    A    
C21   C23   S    
C22   C24   A    
C5    H14   S    
C29   N7    S    
C2    C36   A    
N1    N2    A    
C11   C17   A    
C4    N1    A    
C1    O2    A    
C20   H6    S    
N5    Zn2   S    
C6    C7    A    
C28   N5    A    
O3    Zn1   S    
C32   C33   A    
C23   O6    A    
C5    C10   A    
C3    C10   S    
C27   N6    A    
C11   C13   A    
O6    Zn2   S    
C13   H3    S    
C14   H4    S    
C29   N5    A    
O1    Zn1   S    
C27   C28   A    
C14   C15   A    
N7    H19   S    
C36   H13   S    
