data_mof_unit_49044.cif
_audit_creation_date              2012-12-11T17:29:43-0500
_audit_creation_method            fapswitch 2.2
_symmetry_space_group_name_H-M    P1
_symmetry_Int_Tables_number       1
_space_group_crystal_system       triclinic
_cell_length_a                    18.833208
_cell_length_b                    18.843333
_cell_length_c                    20.364249
_cell_angle_alpha                 107.025257
_cell_angle_beta                  106.379101
_cell_angle_gamma                 111.161493
_cell_volume                      5803.23613865

loop_
_atom_site_label
_atom_site_type_symbol
_atom_type_description
_atom_site_fract_x
_atom_site_fract_y
_atom_site_fract_z
_atom_type_partial_charge
C1    C     C_R   0.087607 0.087984 0.354493 -0.150182
C2    C     C_R   0.245422 0.069918 0.544478 -0.129376
C3    C     C_R   0.153285 0.222240 0.710455 -0.140246
C4    C     C_R   0.761596 0.925654 0.505532 -0.143404
C5    C     C_R   0.003657 0.764747 0.436977 -0.159934
C6    C     C_R   0.230100 0.272309 0.713071 0.048330
C7    C     C_R   0.955839 0.713337 0.462466 0.115166
C8    C     C_R   0.253660 0.997444 0.534223 0.074191
C9    C     C_R   0.019377 0.977937 0.725665 0.039632
C10   C     C_R   0.890330 0.580805 0.480220 -0.104345
C11   C     C_R   0.930121 0.622905 0.442524 0.069723
C12   C     C_R   0.757577 0.994161 0.550167 0.086553
C13   C     C_R   0.946009 0.578020 0.385032 -0.277800
C14   C     C_R   0.930367 0.495497 0.369367 0.145753
C15   C     C_R   0.888720 0.453163 0.404861 0.039211
C16   C     C_R   0.839090 0.818112 0.281220 -0.127048
C17   C     C_R   0.861982 0.493313 0.455381 0.048308
C18   C     C_R   0.960971 0.456794 0.322782 -0.204453
C19   C     C_R   0.959591 0.381150 0.319035 -0.206937
C20   C     C_R   0.924624 0.342193 0.359483 0.137952
C21   C     C_R   0.882933 0.374579 0.397216 0.036844
C22   C     C_R   0.844451 0.333608 0.435185 0.139016
C23   C     C_R   0.757156 0.795815 0.273931 0.041871
C24   C     C_R   0.805099 0.366757 0.474255 -0.189935
C25   C     C_R   0.815177 0.446790 0.485668 -0.200671
C26   C     C_R   0.939958 0.278726 0.371395 -0.256597
C27   C     C_R   0.913691 0.248510 0.420428 0.115833
C28   C     C_R   0.945408 0.191430 0.517620 -0.127227
C29   C     C_R   0.856039 0.267227 0.442591 -0.256705
C30   C     C_R   0.329852 0.915574 0.551733 -0.250737
C31   C     C_R   0.330474 0.993866 0.572002 0.115914
C32   C     C_R   0.407082 0.069178 0.620972 -0.256214
C33   C     C_R   0.483409 0.067844 0.637247 0.141493
C34   C     C_R   0.957711 0.212383 0.460342 0.074270
C35   C     C_R   0.482418 0.989845 0.606268 0.026469
C36   C     C_R   0.405531 0.913087 0.567005 0.138459
C37   C     C_R   0.560173 0.143870 0.676513 -0.205139
C38   C     C_R   0.634302 0.143301 0.677706 -0.208163
C39   C     C_R   0.631938 0.066717 0.639552 0.142609
C40   C     C_R   0.761109 0.812164 0.346400 -0.133944
C41   C     C_R   0.556848 0.989291 0.607210 0.027811
C42   C     C_R   0.553943 0.912036 0.568589 0.143149
C43   C     C_R   0.479020 0.835296 0.536833 -0.208254
C44   C     C_R   0.405007 0.835807 0.536204 -0.201912
C45   C     C_R   0.230649 0.228116 0.645900 -0.144162
C46   C     C_R   0.700696 0.067010 0.626579 -0.262229
C47   C     C_R   0.694314 0.991217 0.579796 0.114017
C48   C     C_R   0.623216 0.913470 0.555805 -0.262286
C49   C     C_R   0.290784 0.361719 0.767152 0.145757
C50   C     C_R   0.269399 0.409749 0.817132 -0.189857
C51   C     C_R   0.329316 0.492158 0.871773 -0.163374
C52   C     C_R   0.022653 0.197602 0.452164 -0.128939
C53   C     C_R   0.412025 0.527844 0.877382 0.226224
C54   C     C_R   0.431137 0.482233 0.823947 -0.182632
C55   C     C_R   0.371459 0.399670 0.769628 -0.183113
C56   C     C_R   0.923490 0.758716 0.498659 -0.069903
C57   C     C_R   0.617339 0.728628 0.069233 -0.163810
C58   C     C_R   0.689173 0.767229 0.137741 -0.187796
C59   C     C_R   0.536428 0.687122 0.065907 0.224595
C60   C     C_R   0.681529 0.765186 0.203892 0.146287
C61   C     C_R   0.600600 0.731171 0.201738 -0.177040
C62   C     C_R   0.528795 0.693115 0.133286 -0.182774
C63   C     C_R   0.107333 0.028332 0.235892 0.146068
C64   C     C_R   0.830992 0.065686 0.570063 -0.150391
C65   C     C_R   0.110719 0.958380 0.190657 -0.190849
C66   C     C_R   0.140517 0.962371 0.135919 -0.165400
C67   C     C_R   0.175933 0.928817 0.479265 -0.124588
C68   C     C_R   0.167158 0.036663 0.125381 0.224894
C69   C     C_R   0.171400 0.108692 0.175411 -0.182272
C70   C     C_R   0.141159 0.104611 0.229954 -0.184646
C71   C     C_R   0.167979 0.039865 0.925456 -0.163791
C72   C     C_R   0.134274 0.042804 0.856738 -0.184284
C73   C     C_R   0.129343 0.965213 0.933123 0.218202
C74   C     C_R   0.061882 0.971475 0.794700 0.136977
C75   C     C_R   0.029375 0.894703 0.800143 -0.143163
C76   C     C_R   0.018309 0.947883 0.290157 -0.137498
C77   C     C_R   0.063507 0.891696 0.868853 -0.174742
C78   C     C_R   0.032962 0.052381 0.718464 -0.123759
C79   C     C_R   0.067537 0.021690 0.288097 0.048173
C80   C     C_2   0.891195 0.628685 0.553077 0.483212
C81   C     C_R   0.963696 0.911138 0.653733 -0.128037
H1    H     H_    0.136505 0.152891 0.377763 0.091816
H2    H     H_    0.991922 0.488265 0.294193 0.128157
H3    H     H_    0.722017 0.859637 0.489600 0.085123
H4    H     H_    0.990220 0.355991 0.288389 0.129965
H5    H     H_    0.979881 0.260369 0.349463 0.118794
H6    H     H_    0.829424 0.239271 0.475107 0.119080
H7    H     H_    0.773572 0.334679 0.502214 0.126556
H8    H     H_    0.789261 0.472950 0.521164 0.117079
H9    H     H_    0.271143 0.856533 0.517769 0.120778
H10   H     H_    0.408479 0.129774 0.640596 0.117652
H11   H     H_    0.561925 0.204101 0.701648 0.129189
H12   H     H_    0.869975 0.734049 0.510882 0.068250
H13   H     H_    0.692097 0.203118 0.703901 0.128995
H14   H     H_    0.755997 0.127389 0.647942 0.116650
H15   H     H_    0.859879 0.814521 0.236698 0.094343
H16   H     H_    0.618247 0.854213 0.521891 0.116498
H17   H     H_    0.476374 0.775397 0.508169 0.128837
H18   H     H_    0.346426 0.776295 0.506920 0.131481
H19   H     H_    0.750373 0.795762 0.137802 0.116542
H20   H     H_    0.625316 0.726988 0.018279 0.124980
H21   H     H_    0.494513 0.508670 0.827822 0.119473
H22   H     H_    0.390077 0.364588 0.731957 0.111728
H23   H     H_    0.159028 0.862777 0.456805 0.095651
H24   H     H_    0.591993 0.729470 0.251640 0.111536
H25   H     H_    0.311947 0.526172 0.911606 0.124402
H26   H     H_    0.467004 0.661812 0.131612 0.119301
H27   H     H_    0.900154 0.194476 0.539333 0.096599
H28   H     H_    0.207206 0.383564 0.815537 0.113400
H29   H     H_    0.163300 0.101953 0.853466 0.118574
H30   H     H_    0.220591 0.097305 0.973721 0.125462
H31   H     H_    0.191686 0.166191 0.167939 0.119254
H32   H     H_    0.140184 0.159858 0.264518 0.112523
H33   H     H_    0.974529 0.838154 0.753075 0.133339
H34   H     H_    0.073500 0.116433 0.762807 0.094461
H35   H     H_    0.138152 0.905973 0.099177 0.124697
H36   H     H_    0.033464 0.833779 0.873863 0.124178
H37   H     H_    0.088298 0.899612 0.195697 0.113044
H38   H     H_    0.710149 0.804726 0.362787 0.095829
H39   H     H_    0.048297 0.206321 0.412299 0.096679
H40   H     H_    0.855840 0.128734 0.613670 0.087918
H41   H     H_    0.001727 0.884180 0.253641 0.085563
H42   H     H_    0.273285 0.253864 0.622740 0.089321
H43   H     H_    0.833248 0.611857 0.560057 -0.021093
H44   H     H_    0.941533 0.844528 0.637906 0.128513
H45   H     H_    0.292981 0.134642 0.582996 0.094479
H46   H     H_    0.125780 0.241693 0.747489 0.086056
H47   H     H_    0.027264 0.745829 0.396161 0.088538
H48   H     H_    0.975909 0.608574 0.355552 0.123121
N1    N     N_R   0.052570 0.055840 0.395080 -0.036847
N2    N     N_2   0.463901 0.626818 0.996399 -0.106141
N3    N     N_2   0.174352 0.037322 0.058138 -0.105002
N4    N     N_R   0.834730 0.954500 0.499860 -0.038397
N5    N     N_2   0.142229 0.965263 0.005114 -0.104556
N6    N     N_R   0.890190 0.849120 0.355200 -0.040275
N7    N     N_R   0.997110 0.161210 0.539740 -0.041781
N8    N     N_R   0.841940 0.845190 0.395070 -0.042515
N9    N     N_R   0.045360 0.165140 0.499870 -0.041171
N10   N     N_R   0.877490 0.041590 0.539730 -0.038342
N11   N     N_R   0.009810 0.968740 0.355210 -0.036756
N12   N     N_R   0.954640 0.834860 0.500130 -0.047872
N13   N     N_R   0.158060 0.154810 0.604930 -0.036316
N14   N     N_R   0.122510 0.958410 0.460270 -0.040884
N15   N     N_R   0.990190 0.031260 0.644790 -0.038765
N16   N     N_R   0.947430 0.944160 0.604920 -0.042586
N17   N     N_R   0.165270 0.045500 0.500140 -0.040791
N18   N     N_R   0.109810 0.150880 0.644800 -0.036516
N19   N     N_R   0.002890 0.838790 0.460260 -0.040509
N20   N     N_2   0.480780 0.601559 0.941998 -0.105257
Ni1   Ni    Ni4+2 0.104370 0.104380 0.500010 0.214356
Ni2   Ni    Ni4+2 0.895630 0.895620 0.499990 0.209215
Ni3   Ni    Ni4+2 0.006290 0.904630 0.408560 0.210835
Ni4   Ni    Ni4+2 0.993710 0.095370 0.591440 0.212464
O1    O     O_2   0.957628 0.686566 0.606543 -0.581300

loop_
_geom_bond_atom_site_label_1
_geom_bond_atom_site_label_2
_ccdc_geom_bond_type
N14   N17   A    
C66   C68   A    
C63   C65   A    
C3    N18   A    
C6    C45   A    
C27   C29   A    
C41   C42   A    
C14   C18   A    
C35   C36   A    
N4    Ni2   S    
C43   H17   S    
C30   H9    S    
C3    C6    A    
N1    N11   A    
C39   C41   A    
C63   C79   S    
C53   C54   A    
N9    Ni1   S    
C7    C11   S    
C48   H16   S    
C59   N2    S    
C26   C27   A    
C66   H35   S    
C22   C29   A    
C77   H36   S    
C30   C31   A    
C12   C64   A    
C69   H31   S    
C3    H46   S    
C57   C59   A    
C32   H10   S    
N10   Ni4   S    
C10   C17   A    
C58   C60   A    
C64   H40   S    
C55   H22   S    
C15   C17   A    
C18   C19   A    
C46   C47   A    
N15   Ni4   S    
C68   N3    S    
N12   N19   A    
N17   Ni1   S    
C46   H14   S    
C78   H34   S    
C68   C69   A    
C71   H30   S    
N1    Ni1   S    
C52   N9    A    
C65   H37   S    
C76   C79   A    
C4    C12   A    
C61   H24   S    
N11   Ni3   S    
C61   C62   A    
C67   N14   A    
C27   C34   S    
C5    N19   A    
C13   C14   A    
C53   N20   S    
C23   C60   S    
C7    C56   A    
C12   C47   S    
C35   C41   A    
C67   H23   S    
C50   C51   A    
C76   N11   A    
C70   H32   S    
C56   H12   S    
C72   H29   S    
C16   H15   S    
C74   C75   A    
C58   H19   S    
C24   C25   A    
C72   C74   A    
C1    N1    A    
C5    C7    A    
C10   C80   S    
C62   H26   S    
C1    H1    S    
C49   C55   A    
C50   H28   S    
C33   C37   A    
C60   C61   A    
C51   C53   A    
C43   C44   A    
C37   C38   A    
C78   N15   A    
C75   C77   A    
C47   C48   A    
C4    H3    S    
C63   C70   A    
C26   H5    S    
C40   N8    A    
C38   H13   S    
C18   H2    S    
C45   H42   S    
C75   H33   S    
C42   C48   A    
C20   C21   A    
C24   H7    S    
N16   Ni2   S    
C39   C46   A    
C56   N12   A    
C2    H45   S    
N7    N9    A    
N14   Ni3   S    
N4    N10   A    
C16   C23   A    
C81   N16   A    
C45   N13   A    
C1    C79   A    
C22   C24   A    
C36   C44   A    
C42   C43   A    
C52   H39   S    
N12   Ni2   S    
C71   C73   A    
C80   H43   S    
N6    N8    A    
C54   C55   A    
C59   C62   A    
C73   C77   A    
C37   H11   S    
C81   H44   S    
C28   N7    A    
C8    C31   S    
C34   C52   A    
N13   N18   A    
C54   H21   S    
C31   C32   A    
C2    C8    A    
N19   Ni3   S    
N15   N16   A    
C19   H4    S    
C80   O1    D    
C2    N17   A    
C57   H20   S    
C25   H8    S    
C30   C36   A    
C17   C25   A    
C32   C33   A    
N13   Ni1   S    
C19   C20   A    
C76   H41   S    
C71   C72   A    
N7    Ni4   S    
C11   C13   A    
C57   C58   A    
C38   C39   A    
C20   C26   A    
C28   H27   S    
C51   H25   S    
C5    H47   S    
C33   C35   A    
C9    C78   A    
C65   C66   A    
C6    C49   S    
C69   C70   A    
N18   Ni4   S    
C44   H18   S    
C29   H6    S    
N2    N20   D    
C10   C11   A    
C28   C34   A    
C15   C21   A    
C40   H38   S    
C73   N5    S    
C8    C67   A    
N3    N5    D    
C49   C50   A    
C9    C74   S    
C13   H48   S    
C14   C15   A    
N8    Ni2   S    
N6    Ni3   S    
C21   C22   A    
C16   N6    A    
C23   C40   A    
C9    C81   A    
C4    N4    A    
C64   N10   A    
