data_mof_unit_57744.cif
_audit_creation_date              2012-12-10T18:58:47-0500
_audit_creation_method            fapswitch 2.2
_symmetry_space_group_name_H-M    P1
_symmetry_Int_Tables_number       1
_space_group_crystal_system       triclinic
_cell_length_a                    12.979381
_cell_length_b                    10.926962
_cell_length_c                    9.551988
_cell_angle_alpha                 91.017566
_cell_angle_beta                  96.029202
_cell_angle_gamma                 91.204157
_cell_volume                      1346.64989548

loop_
_atom_site_label
_atom_site_type_symbol
_atom_type_description
_atom_site_fract_x
_atom_site_fract_y
_atom_site_fract_z
_atom_type_partial_charge
C1    C     C_R   0.497417 0.262775 0.498506 0.790942
C2    C     C_R   0.027411 0.471427 0.565518 0.163426
C3    C     C_R   0.971595 0.483547 0.431579 0.168072
C4    C     C_R   0.864159 0.485711 0.419877 -0.250818
C5    C     C_R   0.866890 0.461676 0.672176 -0.120885
C6    C     C_R   0.974545 0.457537 0.684874 -0.209718
C7    C     C_R   0.519200 0.067023 0.619091 0.076630
C8    C     C_R   0.495338 0.130216 0.495678 -0.167454
C9    C     C_R   0.467534 0.063728 0.370417 -0.190700
C10   C     C_R   0.457197 0.935431 0.371333 -0.004691
C11   C     C_R   0.488015 0.871783 0.497794 -0.182794
C12   C     C_R   0.300496 0.497577 0.473777 0.791759
C13   C     C_R   0.522448 0.940708 0.619638 0.025004
C14   C     C_3   0.483627 0.938588 0.762089 -0.447348
C15   C     C_3   0.474223 0.076942 0.757522 0.200779
C16   C     C_R   0.580540 0.553809 0.086925 0.231349
C17   C     C_R   0.423701 0.441633 0.062304 -0.083866
C18   C     C_R   0.422761 0.443481 0.913770 -0.118802
C19   C     C_R   0.580569 0.553782 0.938215 0.275931
C20   C     C_3   0.603849 0.687979 0.941488 -0.302264
C21   C     C_3   0.608913 0.686739 0.101169 -0.317414
C22   C     C_R   0.494305 0.737665 0.499758 0.788439
C23   C     C_R   0.699246 0.494107 0.526019 0.830840
C24   C     C_R   0.811600 0.480917 0.540339 -0.076254
C25   C     C_R   0.187582 0.491026 0.458409 -0.049544
C26   C     C_R   0.024035 0.496025 0.311751 -0.180290
C27   C     C_R   0.131692 0.500109 0.325150 -0.210297
C28   C     C_R   0.135101 0.474638 0.577955 -0.257960
Cu1   Cu    Cu3+1 0.499990 0.499980 0.640670 0.947666
Cu2   Cu    Cu3+1 0.500010 0.500020 0.359330 0.935224
H1    H     H_    0.821687 0.492709 0.316882 0.201454
H2    H     H_    0.545390 0.914092 0.844100 0.168922
H3    H     H_    0.361370 0.395017 0.108042 0.142052
H4    H     H_    0.359424 0.398793 0.848692 0.142447
H5    H     H_    0.533579 0.732197 0.893900 0.145490
H6    H     H_    0.547119 0.741598 0.140590 0.176563
H7    H     H_    0.827196 0.450090 0.765354 0.196025
H8    H     H_    0.981910 0.504730 0.208383 0.172702
H9    H     H_    0.016356 0.445277 0.787812 0.138571
H10   H     H_    0.171033 0.511652 0.231543 0.157910
H11   H     H_    0.177768 0.465671 0.680997 0.145084
H12   H     H_    0.445196 0.112332 0.274372 0.187539
H13   H     H_    0.409621 0.885436 0.762457 0.195534
N1    N     N_R   0.500660 0.500930 0.148010 -0.201449
N2    N     N_R   0.500660 0.500890 0.852110 -0.208163
O1    O     O_R   0.500000 0.319640 0.618810 -0.598781
O2    O     O_R   0.500010 0.319680 0.381230 -0.582685
O3    O     O_R   0.348990 0.499960 0.599490 -0.592739
O4    O     O_R   0.349000 0.500000 0.361910 -0.596509
O5    O     O_R   0.499990 0.680320 0.618770 -0.568792
O6    O     O_R   0.500000 0.680360 0.381190 -0.610272
O7    O     O_R   0.651000 0.500000 0.638090 -0.549044
O8    O     O_R   0.651010 0.500040 0.400510 -0.588702
C29   C     C_3   0.359245 0.117332 0.741341 -0.413606
C30   C     C_3   0.305282 0.101744 0.875724 -0.326442
C31   C     C_3   0.194893 0.148818 0.855898 -0.866994
H14   H     H_    0.195584 0.247941 0.831931 0.239292
H15   H     H_    0.148544 0.097608 0.768621 0.262912
H16   H     H_    0.157553 0.135855 0.954142 0.252962
H17   H     H_    0.301925 0.003446 0.902408 0.268848
H18   H     H_    0.348570 0.153444 0.965170 0.222025
H19   H     H_    0.355294 0.214646 0.711481 0.208888
H20   H     H_    0.314670 0.063668 0.654100 0.199043
C32   C     C_3   0.544446 0.147449 0.876164 -0.356634
C33   C     C_3   0.661618 0.146372 0.862387 -0.363279
C34   C     C_3   0.722587 0.216324 0.985026 -0.827565
H21   H     H_    0.698508 0.313247 0.987333 0.256026
H22   H     H_    0.709526 0.173431 0.086445 0.255794
H23   H     H_    0.806627 0.214576 0.972432 0.241538
H24   H     H_    0.689034 0.050919 0.860500 0.210450
H25   H     H_    0.678046 0.190718 0.763027 0.227219
H26   H     H_    0.521267 0.243957 0.877572 0.218843
H27   H     H_    0.530053 0.108941 0.979529 0.211230
C35   C     C_2   0.700964 0.729329 0.880322 0.527687
H28   H     H_    0.719216 0.826372 0.876633 0.022296
O9    O     O_2   0.760459 0.656183 0.837434 -0.536373
C36   C     C_2   0.712745 0.711172 0.185041 0.403067
H29   H     H_    0.717124 0.770556 0.277811 0.073497
O10   O     O_2   0.791553 0.664386 0.152073 -0.555370
C37   C     C_2   0.403036 0.873266 0.244150 0.320546
H30   H     H_    0.361075 0.787263 0.252278 0.106640
O11   O     O_2   0.403230 0.918659 0.128334 -0.610661

loop_
_geom_bond_atom_site_label_1
_geom_bond_atom_site_label_2
_ccdc_geom_bond_type
C34   H22   S    
Cu2   O6    S    
C16   C21   S    
C5    H7    S    
C1    C8    S    
C19   C20   S    
C12   O3    A    
C12   O4    A    
C7    C8    A    
C21   H6    S    
C36   H29   S    
C25   C28   A    
C26   C27   A    
C35   O9    D    
C5    C6    A    
C4    C24   A    
C1    O1    A    
C34   H23   S    
C29   H20   S    
C33   H24   S    
C28   H11   S    
C31   H14   S    
C20   H5    S    
C8    C9    A    
C32   H27   S    
C9    C10   A    
C16   N1    A    
C22   O5    A    
C7    C15   S    
C34   H21   S    
C30   H17   S    
Cu2   N1    S    
C2    C6    A    
C17   H3    S    
C23   O8    A    
Cu1   O5    S    
C36   O10   D    
Cu2   O8    S    
C35   H28   S    
Cu1   O3    S    
C15   C29   S    
Cu2   O2    S    
C37   O11   D    
C10   C37   S    
C26   H8    S    
C29   H19   S    
C33   H25   S    
Cu1   N2    S    
Cu1   Cu2   S    
C27   H10   S    
C15   C32   S    
C30   C31   S    
C17   C18   A    
C9    H12   S    
C20   C35   S    
C18   H4    S    
Cu2   O4    S    
C3    C4    A    
C18   N2    A    
C29   C30   S    
C6    H9    S    
C3    C26   A    
C1    O2    A    
C14   H2    S    
C37   H30   S    
C19   N2    A    
C25   C27   A    
C12   C25   S    
C11   C22   S    
C31   H16   S    
Cu1   O1    S    
C32   C33   S    
C2    C3    A    
C17   N1    A    
C11   C13   A    
C23   O7    A    
C5    C24   A    
C16   C19   A    
C30   H18   S    
C31   H15   S    
C32   H26   S    
C4    H1    S    
C10   C11   A    
C23   C24   S    
C7    C13   A    
C20   C21   S    
C33   C34   S    
C21   C36   S    
C14   C15   S    
C14   H13   S    
C2    C28   A    
C13   C14   S    
C22   O6    A    
Cu1   O7    S    
