data_mof_unit_21783.cif
_audit_creation_date              2013-03-05T16:01:17-0500
_audit_creation_method            fapswitch 2.2
_symmetry_space_group_name_H-M    P1
_symmetry_Int_Tables_number       1
_space_group_crystal_system       triclinic
_cell_length_a                    14.823306
_cell_length_b                    14.758433
_cell_length_c                    17.365885
_cell_angle_alpha                 107.093725
_cell_angle_beta                  72.082571
_cell_angle_gamma                 115.295462
_cell_volume                      3209.42918163

loop_
_atom_site_label
_atom_site_type_symbol
_atom_site_description
_atom_site_fract_x
_atom_site_fract_y
_atom_site_fract_z
_atom_type_partial_charge
O1    O     O_R   0.020090 0.662480 0.528530 -0.558932
O2    O     O_R   0.979910 0.337520 0.471470 -0.520086
O3    O     O_R   0.160710 0.620650 0.491980 -0.602855
O4    O     O_R   0.839290 0.379350 0.508020 -0.604442
C1    C     C_R   0.118645 0.688396 0.512753 0.804710
C2    C     C_R   0.881268 0.311793 0.488547 0.826046
O5    O     O_R   0.921540 0.523360 0.633990 -0.598884
O6    O     O_R   0.078460 0.476640 0.366010 -0.594727
O7    O     O_R   0.062170 0.481520 0.597440 -0.573867
O8    O     O_R   0.937830 0.518480 0.402560 -0.580106
C3    C     C_R   0.989229 0.504127 0.652731 0.788134
C4    C     C_R   0.010848 0.496022 0.347265 0.768836
Cu1   Cu    Cu3+1 0.916740 0.524770 0.521640 0.944223
Cu2   Cu    Cu3+1 0.083260 0.475230 0.478360 0.960070
C5    C     C_R   0.984763 0.509525 0.739016 -0.027350
C6    C     C_R   0.015222 0.490678 0.260972 -0.034889
C7    C     C_R   0.073043 0.525471 0.763289 -0.199252
C8    C     C_R   0.926955 0.475383 0.236972 -0.208549
C9    C     C_R   0.069796 0.530099 0.845016 -0.140168
C10   C     C_R   0.929977 0.470892 0.155322 -0.144426
C11   C     C_R   0.977549 0.517100 0.903418 0.184493
C12   C     C_R   0.021980 0.483368 0.096692 0.185478
C13   C     C_R   0.889861 0.503512 0.879579 -0.168669
C14   C     C_R   0.109632 0.496305 0.120226 -0.165487
C15   C     C_R   0.893216 0.499036 0.797600 -0.187005
C16   C     C_R   0.106535 0.500589 0.202107 -0.199133
C17   C     C_2   0.970559 0.517131 0.989519 -0.230141
C18   C     C_2   0.028794 0.483310 0.010619 -0.228330
H1    H     H_    0.144831 0.535087 0.719207 0.192303
H2    H     H_    0.855299 0.466150 0.281208 0.190180
H3    H     H_    0.175907 0.513987 0.219525 0.135933
H4    H     H_    0.823940 0.484971 0.779733 0.149568
H5    H     H_    0.085185 0.457159 0.964013 0.148487
H6    H     H_    0.914119 0.543248 0.036076 0.146195
H7    H     H_    0.818271 0.493886 0.924042 0.125638
H8    H     H_    0.181026 0.505491 0.075565 0.123752
H9    H     H_    0.860052 0.456695 0.138384 0.132861
H10   H     H_    0.139715 0.544771 0.862202 0.134642
C19   C     C_R   0.185636 0.796946 0.515059 -0.148836
C20   C     C_R   0.814172 0.203243 0.485783 -0.146829
C21   C     C_R   0.216800 0.973756 0.521171 -0.290570
C22   C     C_R   0.779135 0.027145 0.485542 -0.318410
C23   C     C_R   0.149131 0.872376 0.519266 0.488051
C24   C     C_R   0.848128 0.129742 0.490866 0.512382
C25   C     C_R   0.289809 0.823917 0.508580 -0.328678
C26   C     C_R   0.712752 0.175451 0.482017 -0.327762
C27   C     C_R   0.360524 0.923674 0.502578 0.068410
C28   C     C_R   0.641216 0.075827 0.485340 0.085301
C29   C     C_R   0.322312 0.001203 0.513836 0.067711
C30   C     C_R   0.677611 0.998651 0.478713 0.038879
C31   C     C_R   0.467671 0.948149 0.488611 0.028290
C32   C     C_R   0.534920 0.051381 0.494593 0.047791
C33   C     C_R   0.493625 0.127615 0.513094 -0.264813
C34   C     C_R   0.509448 0.871794 0.467054 -0.230136
C35   C     C_R   0.390034 0.104179 0.519488 0.151239
C36   C     C_R   0.612463 0.894836 0.464242 0.148421
H11   H     H_    0.691648 0.233260 0.474665 0.161780
H12   H     H_    0.313657 0.765598 0.510997 0.165152
H13   H     H_    0.184726 0.029883 0.528402 0.160783
H14   H     H_    0.803297 0.969777 0.489716 0.133797
H15   H     H_    0.540217 0.207509 0.525432 0.142396
H16   H     H_    0.462319 0.793275 0.451022 0.158221
N1    N     N_R   0.208390 0.438070 0.445820 -0.199284
N2    N     N_R   0.791610 0.561930 0.554180 -0.213251
C37   C     C_R   0.297181 0.325914 0.366431 -0.322706
C38   C     C_R   0.700285 0.670562 0.637342 -0.284522
C39   C     C_R   0.220525 0.362304 0.378399 0.370718
C40   C     C_R   0.784526 0.642885 0.617666 0.366507
C41   C     C_R   0.279399 0.484297 0.494432 0.012291
C42   C     C_R   0.712889 0.506451 0.513634 0.025997
C43   C     C_R   0.366201 0.455940 0.478555 0.001755
C44   C     C_R   0.624808 0.533133 0.531794 0.001600
C45   C     C_R   0.372927 0.376068 0.411479 0.050193
C46   C     C_R   0.619622 0.614388 0.597734 0.034208
C47   C     C_R   0.448810 0.505707 0.522338 -0.091124
C48   C     C_R   0.540786 0.481399 0.489882 -0.090045
C49   C     C_R   0.546569 0.408397 0.415790 0.478802
C50   C     C_R   0.445172 0.581418 0.595101 0.495390
C51   C     C_R   0.460583 0.353191 0.381490 -0.284424
C52   C     C_R   0.531588 0.636368 0.628972 -0.255615
H17   H     H_    0.465701 0.297792 0.324944 0.151458
H18   H     H_    0.527729 0.693460 0.684549 0.147916
H19   H     H_    0.718701 0.439076 0.471040 0.189854
H20   H     H_    0.268637 0.546505 0.541304 0.195409
H21   H     H_    0.304655 0.264709 0.314820 0.135716
H22   H     H_    0.695896 0.734754 0.686735 0.145354
C53   C     C_3   0.860934 0.704155 0.673030 -0.330120
C54   C     C_3   0.813521 0.689770 0.762448 -0.904811
H23   H     H_    0.772063 0.607520 0.764988 0.261456
H24   H     H_    0.759506 0.730003 0.792065 0.246476
H25   H     H_    0.874404 0.721711 0.798309 0.251931
H26   H     H_    0.928964 0.685962 0.655431 0.258919
H27   H     H_    0.888271 0.786419 0.670922 0.203079
C55   C     C_3   0.172110 0.329185 0.303820 -0.355378
C56   C     C_3   0.065413 0.246091 0.311613 -0.747025
H28   H     H_    0.050255 0.203584 0.360007 0.271089
H29   H     H_    0.006685 0.278912 0.323661 0.247531
H30   H     H_    0.058517 0.190421 0.252548 0.203693
H31   H     H_    0.178792 0.394714 0.281819 0.203822
H32   H     H_    0.219874 0.296790 0.249145 0.149131
O9    O     O_3   0.640325 0.404925 0.369250 -0.599329
C57   C     C_3   0.637276 0.303548 0.341971 -0.416112
H33   H     H_    0.616665 0.271665 0.280627 0.188416
H34   H     H_    0.584587 0.252682 0.386479 0.158962
H35   H     H_    0.714789 0.304680 0.334559 0.188039
O10   O     O_3   0.353986 0.592372 0.639821 -0.605372
C58   C     C_3   0.362410 0.694891 0.653514 -0.413993
H36   H     H_    0.410610 0.732745 0.599953 0.164710
H37   H     H_    0.391679 0.739449 0.710318 0.187591
H38   H     H_    0.285093 0.695585 0.663404 0.188270
C59   C     C_3   0.355144 0.192206 0.535033 -0.412958
C60   C     C_3   0.305497 0.218261 0.625451 -0.796050
H39   H     H_    0.237262 0.152338 0.645305 0.250748
H40   H     H_    0.361005 0.241062 0.664894 0.251015
H41   H     H_    0.281641 0.283093 0.634273 0.253070
H42   H     H_    0.421197 0.261872 0.519190 0.202770
H43   H     H_    0.302869 0.175585 0.494346 0.197181
C61   C     C_3   0.654619 0.810218 0.443831 -0.410506
C62   C     C_3   0.587203 0.703569 0.407120 -0.833060
H44   H     H_    0.515900 0.673682 0.452483 0.240512
H45   H     H_    0.568813 0.705252 0.350315 0.251322
H46   H     H_    0.628476 0.650738 0.390762 0.260561
H47   H     H_    0.727512 0.830574 0.397443 0.203241
H48   H     H_    0.671037 0.805691 0.500595 0.206840
O11   O     O_3   0.945198 0.163632 0.507334 -0.561790
C63   C     C_3   0.987655 0.087663 0.483085 -0.352253
H49   H     H_    0.978420 0.042951 0.420146 0.139014
H50   H     H_    0.954941 0.037184 0.529197 0.187852
H51   H     H_    0.070839 0.125649 0.481261 0.194794
O12   O     O_3   0.046214 0.849328 0.527938 -0.583060
C64   C     C_3   0.027746 0.839245 0.450332 -0.323085
H52   H     H_    0.944844 0.818948 0.457051 0.185236
H53   H     H_    0.048920 0.776831 0.404659 0.169474
H54   H     H_    0.068841 0.912202 0.427017 0.139138

loop_
_geom_bond_atom_site_label_1
_geom_bond_atom_site_label_2
_geom_bond_distance
_ccdc_geom_bond_type
C38   C40   1.390769 A    
C53   C54   1.531371 S    
C63   H49   1.113410 S    
C56   H28   1.106175 S    
C7    H1    1.082646 S    
C33   C35   1.397750 A    
C49   O9    1.390214 S    
C59   C60   1.526708 S    
C44   C48   1.443038 A    
C64   H54   1.112825 S    
C60   H40   1.110897 S    
C56   H30   1.111254 S    
C27   C29   1.422126 A    
C20   C26   1.396580 A    
C14   H8    1.083537 S    
O1    C1    1.301315 A    
N2    C40   1.384056 A    
C9    C11   1.404314 A    
C14   C16   1.391938 A    
C28   C32   1.425189 A    
C50   C52   1.392818 A    
C5    C15   1.401479 A    
O10   C58   1.416573 S    
C38   C46   1.383396 A    
C37   C45   1.382178 A    
C57   H35   1.109463 S    
C25   C27   1.407615 A    
O4    Cu1   1.934706 S    
C41   C43   1.442501 A    
C61   C62   1.529839 S    
C57   H33   1.110096 S    
C3    C5    1.459196 S    
N1    C41   1.371326 A    
C37   C39   1.390461 A    
C39   C55   1.526845 S    
O6    Cu2   1.980574 S    
C58   H36   1.114986 S    
C59   H42   1.109835 S    
C8    H2    1.082915 S    
N2    C42   1.370392 A    
C19   C25   1.396350 A    
C15   H4    1.081623 S    
C28   C30   1.418280 A    
C11   C17   1.466529 S    
C16   H3    1.081902 S    
C12   C18   1.466579 S    
Cu1   Cu2   2.696300 S    
C21   C23   1.398095 A    
O2    C2    1.301956 A    
C22   C24   1.414113 A    
C21   C29   1.411688 A    
C60   H39   1.109136 S    
N1    C39   1.387876 A    
C62   H45   1.110710 S    
C17   H6    1.085528 S    
C6    C16   1.402084 A    
C25   H12   1.076065 S    
C34   C36   1.403549 A    
C24   O11   1.398737 S    
C42   C44   1.439542 A    
C31   C32   1.413675 A    
O9    C57   1.415511 S    
C4    C6    1.459856 S    
C2    C20   1.476662 S    
C48   C49   1.421193 A    
C21   H13   1.080116 S    
C44   C46   1.404485 A    
C22   H14   1.077778 S    
C43   C45   1.406439 A    
O7    Cu2   1.974046 S    
C27   C31   1.426926 A    
C34   H16   1.070799 S    
C63   H51   1.109680 S    
O3    C1    1.304203 A    
C29   C35   1.412889 A    
C30   C36   1.414836 A    
O5    C3    1.300718 A    
C47   C48   1.459961 A    
C9    H10   1.081982 S    
C55   H32   1.113632 S    
C54   H25   1.110944 S    
O5    Cu1   1.980573 S    
O6    C4    1.301057 A    
C45   C51   1.388776 A    
C49   C51   1.391970 A    
C61   H48   1.111593 S    
C57   H34   1.113363 S    
C42   H19   1.070006 S    
O7    C3    1.297494 A    
O3    Cu2   1.934708 S    
O8    C4    1.297461 A    
C22   C30   1.412563 A    
C52   H18   1.083461 S    
C10   C12   1.404181 A    
C18   H5    1.085595 S    
C13   H7    1.083515 S    
C11   C13   1.400255 A    
C26   H11   1.076455 S    
O11   C63   1.411672 S    
C58   H38   1.109508 S    
C12   C14   1.400174 A    
O4    C2    1.303122 A    
O1    Cu1   1.949597 S    
C33   H15   1.076946 S    
C64   H52   1.109607 S    
C32   C33   1.413794 A    
C51   H17   1.083371 S    
C62   H46   1.110597 S    
C5    C7    1.401220 A    
C63   H50   1.111064 S    
C35   C59   1.519931 S    
C36   C61   1.531689 S    
C23   O12   1.382413 S    
C54   H24   1.109757 S    
C64   H53   1.113765 S    
O8    Cu1   1.974046 S    
C38   H22   1.085400 S    
C19   C23   1.407149 A    
C62   H44   1.107174 S    
C56   H29   1.106773 S    
C37   H21   1.086274 S    
C50   O10   1.386831 S    
C59   H43   1.110134 S    
C31   C34   1.413931 A    
C1    C19   1.476971 S    
O12   C64   1.409837 S    
C41   H20   1.066236 S    
C43   C47   1.446720 A    
C10   H9    1.081937 S    
C58   H37   1.109922 S    
Cu1   N2    2.025521 S    
C55   H31   1.096892 S    
Cu2   N1    2.025521 S    
C53   H27   1.111815 S    
C7    C9    1.387469 A    
C8    C10   1.387490 A    
C61   H47   1.111765 S    
C13   C15   1.391964 A    
C55   C56   1.527105 S    
O2    Cu2   1.949598 S    
C47   C50   1.423967 A    
C26   C28   1.403353 A    
C20   C24   1.409994 A    
C54   H23   1.109239 S    
C6    C8    1.401579 A    
C17   C18   1.341259 D    
C40   C53   1.519398 S    
C46   C52   1.387507 A    
C53   H26   1.084418 S    
C60   H41   1.110702 S    
