data_mof_unit_20530.cif
_audit_creation_date              2012-12-11T14:49:53-0500
_audit_creation_method            fapswitch 2.2
_symmetry_space_group_name_H-M    P1
_symmetry_Int_Tables_number       1
_space_group_crystal_system       triclinic
_cell_length_a                    16.915459
_cell_length_b                    16.726475
_cell_length_c                    19.412775
_cell_angle_alpha                 117.622626
_cell_angle_beta                  63.704628
_cell_angle_gamma                 99.874974
_cell_volume                      4358.98050841

loop_
_atom_site_label
_atom_site_type_symbol
_atom_type_description
_atom_site_fract_x
_atom_site_fract_y
_atom_site_fract_z
_atom_type_partial_charge
C1    C     C_R   0.037957 0.759830 0.010939 -0.125467
C2    C     C_R   0.250750 0.527465 0.829165 -0.181199
C3    C     C_R   0.182475 0.491958 0.090016 -0.110533
C4    C     C_R   0.768281 0.415300 0.161482 0.397874
C5    C     C_R   0.981674 0.344313 0.762444 -0.075896
C6    C     C_R   0.255634 0.542841 0.069364 0.096826
C7    C     C_R   0.930960 0.270509 0.762552 -0.027843
C8    C     C_R   0.256938 0.471751 0.747813 -0.134777
C9    C     C_R   0.048345 0.223887 0.986386 -0.165960
C10   C     C_R   0.914707 0.227959 0.628369 -0.267744
C11   C     C_R   0.893097 0.214046 0.700694 0.128688
C12   C     C_R   0.775906 0.431803 0.235519 -0.108424
C13   C     C_R   0.845830 0.138319 0.707202 -0.258449
C14   C     C_R   0.834279 0.069463 0.636628 0.139251
C15   C     C_R   0.868384 0.077964 0.559674 0.027728
C16   C     C_R   0.805119 0.560337 0.960072 -0.124190
C17   C     C_R   0.904550 0.159373 0.556865 0.144338
C18   C     C_R   0.798036 0.988423 0.639019 -0.201507
C19   C     C_R   0.803955 0.913214 0.563630 -0.195433
C20   C     C_R   0.846580 0.918601 0.485467 0.143145
C21   C     C_R   0.874990 0.002163 0.483756 0.025406
C22   C     C_R   0.918239 0.007885 0.405241 0.139842
C23   C     C_R   0.724843 0.548824 0.019242 0.038959
C24   C     C_R   0.945625 0.091535 0.404338 -0.204783
C25   C     C_R   0.938681 0.167135 0.479993 -0.204340
C26   C     C_R   0.869172 0.840448 0.408837 -0.259974
C27   C     C_R   0.922918 0.844403 0.330820 0.120335
C28   C     C_R   0.954877 0.674547 0.247375 -0.117949
C29   C     C_R   0.941001 0.928723 0.328954 -0.250156
C30   C     C_R   0.394146 0.391345 0.631221 -0.311084
C31   C     C_R   0.334890 0.464418 0.674372 0.103393
C32   C     C_R   0.345888 0.529577 0.645825 -0.190379
C33   C     C_R   0.417962 0.522648 0.571638 0.015503
C34   C     C_R   0.966127 0.761129 0.253505 0.047683
C35   C     C_R   0.479536 0.448817 0.527157 0.038404
C36   C     C_R   0.466750 0.382497 0.556548 0.169809
C37   C     C_R   0.429931 0.586921 0.540494 0.195823
C38   C     C_R   0.503365 0.577875 0.466178 -0.243128
C39   C     C_R   0.565273 0.506600 0.423661 0.131384
C40   C     C_R   0.739666 0.484094 0.038280 -0.128909
C41   C     C_R   0.554156 0.441646 0.453724 -0.006741
C42   C     C_R   0.618045 0.370322 0.411017 -0.078593
C43   C     C_R   0.600049 0.300998 0.436887 -0.196298
C44   C     C_R   0.525611 0.307811 0.510020 -0.204392
C45   C     C_R   0.248396 0.569857 0.014588 -0.140513
C46   C     C_R   0.637978 0.499016 0.350583 -0.410181
C47   C     C_R   0.702693 0.431370 0.310186 -0.057223
C48   C     C_R   0.698068 0.370859 0.343376 0.496858
C49   C     C_R   0.639189 0.592332 0.052149 0.125398
C50   C     C_R   0.324152 0.571219 0.103275 -0.004628
C51   C     C_R   0.408174 0.550951 0.168797 -0.408596
C52   C     C_R   0.026315 0.753410 0.173300 -0.116187
C53   C     C_R   0.329436 0.539634 0.157643 0.564076
C54   C     C_R   0.392248 0.622812 0.071329 -0.345243
C55   C     C_R   0.471686 0.626853 0.076798 0.191667
C56   C     C_R   0.915539 0.266259 0.836837 -0.037585
C57   C     C_R   0.481029 0.586575 0.122316 0.149922
C58   C     C_R   0.564765 0.573721 0.113138 -0.239090
C59   C     C_R   0.628722 0.642748 0.015420 -0.171430
C60   C     C_R   0.544766 0.661409 0.029045 -0.201737
C61   C     C_R   0.847574 0.182961 0.116010 0.271029
C62   C     C_R   0.952823 0.859427 0.992379 0.128160
C63   C     C_R   0.845608 0.936744 0.988697 -0.211911
C64   C     C_R   0.845316 0.488316 0.239617 0.433220
C65   C     C_R   0.887697 0.857557 0.964851 -0.162647
C66   C     C_R   0.977276 0.943722 0.042039 -0.266014
C67   C     C_R   0.171773 0.457206 0.751138 0.542442
C68   C     C_R   0.935321 0.024038 0.065892 0.186222
C69   C     C_R   0.867718 0.020102 0.040280 0.147596
C70   C     C_R   0.823456 0.099739 0.066576 -0.273665
C71   C     C_R   0.915479 0.187301 0.139697 -0.136492
C72   C     C_R   0.958936 0.108435 0.115600 -0.274436
C73   C     C_R   0.961760 0.688216 0.932889 -0.125584
C74   C     C_R   0.986291 0.773210 0.977012 0.059743
C75   C     C_3   0.202459 0.346456 0.612279 0.275113
C76   C     C_3   0.153171 0.283690 0.559230 -0.933945
C77   C     C_3   0.989395 0.090552 0.866750 0.261405
C78   C     C_R   0.063561 0.308899 0.041027 -0.187730
C79   C     C_3   0.941368 0.024311 0.814000 -0.899394
C80   C     C_3   0.638944 0.341605 0.166065 0.282693
C81   C     C_3   0.595803 0.281420 0.106170 -0.932421
C82   C     C_3   0.796949 0.329938 0.376397 0.306408
C83   C     C_3   0.896897 0.331943 0.345599 -0.941558
C84   C     C_3   0.277814 0.425666 0.202068 0.251145
C85   C     C_3   0.195585 0.371667 0.222045 -0.902778
C86   C     C_3   0.836433 0.555402 0.376718 0.266979
C87   C     C_3   0.894960 0.597921 0.424777 -0.914185
C88   C     C_R   0.984577 0.238995 0.965446 0.561851
H1    H     H_    0.077690 0.809644 0.039407 0.086761
H2    H     H_    0.780727 0.849477 0.565717 0.132881
H3    H     H_    0.850680 0.776561 0.411615 0.117227
H4    H     H_    0.978471 0.933140 0.269039 0.117075
H5    H     H_    0.977480 0.097209 0.344612 0.130292
H6    H     H_    0.965468 0.229845 0.477336 0.133547
H7    H     H_    0.382408 0.341106 0.654912 0.137082
H8    H     H_    0.296822 0.584421 0.681856 0.172540
H9    H     H_    0.512504 0.627199 0.442018 0.161467
H10   H     H_    0.645708 0.547240 0.325343 0.147675
H11   H     H_    0.815880 0.602433 0.928856 0.088147
H12   H     H_    0.865104 0.228086 0.865348 0.156301
H13   H     H_    0.642451 0.240765 0.400326 0.146861
H14   H     H_    0.514118 0.254784 0.530244 0.131839
H15   H     H_    0.571427 0.540029 0.146371 0.112079
H16   H     H_    0.684683 0.662101 0.971316 0.114006
H17   H     H_    0.415036 0.526753 0.208878 0.137242
H18   H     H_    0.537974 0.694670 0.995388 0.124370
H19   H     H_    0.388646 0.652213 0.033694 0.141859
H20   H     H_    0.771188 0.097896 0.048088 0.143707
H21   H     H_    0.911999 0.655036 0.296195 0.130650
H22   H     H_    0.936047 0.252497 0.174523 0.169434
H23   H     H_    0.109164 0.323212 0.069948 0.133239
H24   H     H_    0.794689 0.932573 0.967776 0.126842
H25   H     H_    0.011300 0.113505 0.134999 0.137302
H26   H     H_    0.866034 0.794781 0.927150 0.111486
H27   H     H_    0.027047 0.947071 0.063968 0.116911
H28   H     H_    0.692781 0.457039 0.080751 0.124141
H29   H     H_    0.053533 0.807913 0.156344 0.089101
H30   H     H_    0.933665 0.669979 0.887702 0.089349
H31   H     H_    0.285016 0.620359 0.994475 0.093471
H32   H     H_    0.228478 0.305513 0.630217 0.086610
H33   H     H_    0.257776 0.372717 0.570970 0.132915
H34   H     H_    0.304194 0.556495 0.848191 0.138197
H35   H     H_    0.119479 0.322786 0.545933 0.262309
H36   H     H_    0.200407 0.233113 0.497522 0.223067
H37   H     H_    0.103777 0.247067 0.593663 0.256451
H38   H     H_    0.994079 0.062262 0.906651 0.118865
H39   H     H_    0.056915 0.097623 0.822107 0.101006
H40   H     H_    0.938336 0.048974 0.771023 0.251431
H41   H     H_    0.976984 0.957291 0.774579 0.225111
H42   H     H_    0.873200 0.016905 0.856857 0.252990
H43   H     H_    0.607471 0.410720 0.200880 0.076508
H44   H     H_    0.626107 0.313807 0.211929 0.121486
H45   H     H_    0.158534 0.470082 0.139625 0.174705
H46   H     H_    0.624278 0.211299 0.071157 0.263063
H47   H     H_    0.523668 0.280891 0.143560 0.212153
H48   H     H_    0.606890 0.307215 0.059311 0.253744
H49   H     H_    0.775985 0.272718 0.393636 0.105305
H50   H     H_    0.768009 0.393404 0.436067 0.066223
H51   H     H_    0.914130 0.357783 0.401041 0.215093
H52   H     H_    0.927077 0.262738 0.301238 0.242087
H53   H     H_    0.924851 0.376427 0.313073 0.299941
H54   H     H_    0.301349 0.444918 0.252641 0.117341
H55   H     H_    0.328841 0.381226 0.138572 0.084107
H56   H     H_    0.991157 0.378186 0.723898 0.156894
H57   H     H_    0.172073 0.347032 0.170837 0.237353
H58   H     H_    0.211088 0.312504 0.226076 0.212767
H59   H     H_    0.142373 0.414457 0.284085 0.271538
H60   H     H_    0.790064 0.513283 0.405736 0.118917
H61   H     H_    0.797368 0.610380 0.386952 0.063293
H62   H     H_    0.943362 0.641355 0.398304 0.259807
H63   H     H_    0.853681 0.639973 0.493431 0.212318
H64   H     H_    0.931286 0.544372 0.419282 0.265363
H65   H     H_    0.947333 0.287874 0.623665 0.125756
H66   H     H_    0.825376 0.128115 0.763706 0.121969
H67   H     H_    0.770474 0.981504 0.698037 0.134631
I1    I     I_    0.341173 0.699141 0.600227 -0.442793
N1    N     N_R   0.036080 0.671900 0.995420 -0.041028
N2    N     N_R   0.867430 0.509300 0.948100 -0.047587
N3    N     N_R   0.003360 0.617250 0.167070 -0.032184
N4    N     N_R   0.825450 0.461270 0.995400 -0.036460
N5    N     N_R   0.045340 0.665280 0.119770 -0.042640
N6    N     N_R   0.883740 0.497640 0.167070 -0.120397
N7    N     N_R   0.987050 0.628910 0.948110 -0.043259
N8    N     N_R   0.174550 0.538730 0.004600 -0.043448
N9    N     N_R   0.954660 0.334720 0.880230 -0.055221
N10   N     N_R   0.116260 0.502360 0.832930 -0.086935
N11   N     N_R   0.012950 0.371090 0.051890 -0.070200
N12   N     N_R   0.963920 0.328100 0.004580 -0.084251
N13   N     N_R   0.165290 0.545350 0.880240 -0.069529
N14   N     N_R   0.132570 0.490700 0.051900 -0.051005
N15   N     N_R   0.996640 0.382750 0.832930 -0.058961
N16   N     N_R   0.834710 0.454650 0.119760 -0.116313
Ni1   Ni    Ni4+2 0.104370 0.604370 0.000010 0.203100
Ni2   Ni    Ni4+2 0.895630 0.395630 0.999990 0.264201
Ni3   Ni    Ni4+2 0.991920 0.505780 0.891500 0.223756
Ni4   Ni    Ni4+2 0.008080 0.494220 0.108500 0.245231
O1    O     O_3   0.145225 0.419133 0.684505 -0.657061
O2    O     O_3   0.941857 0.174571 0.918395 -0.657082
O3    O     O_3   0.730575 0.340422 0.117524 -0.620029
O4    O     O_3   0.771943 0.316299 0.310622 -0.642366
O5    O     O_3   0.255872 0.504088 0.202826 -0.645152
O6    O     O_3   0.889683 0.502102 0.289237 -0.625579

loop_
_geom_bond_atom_site_label_1
_geom_bond_atom_site_label_2
_ccdc_geom_bond_type
C61   C70   A    
N9    N15   A    
C66   C68   A    
C79   H40   S    
C63   C65   A    
C80   H44   S    
C6    C45   A    
C27   C29   A    
C41   C42   A    
C14   C18   A    
N8    N14   A    
C35   C36   A    
C59   H16   S    
C75   C76   S    
C3    C6    A    
N7    Ni3   S    
C83   H51   S    
C81   H46   S    
C39   C41   A    
N14   Ni4   S    
C7    C11   S    
C55   C60   A    
C26   C27   A    
C50   C54   A    
C54   H19   S    
C1    C74   A    
C84   O5    S    
C22   C29   A    
C45   N8    A    
C85   H57   S    
C82   H49   S    
C38   H9    S    
C9    C88   A    
C30   C31   A    
C12   C64   A    
C23   C49   S    
N6    Ni4   S    
C10   C17   A    
C23   C40   A    
C79   H41   S    
C71   H22   S    
C30   H7    S    
C18   C19   A    
C73   C74   A    
C63   H24   S    
C46   C47   A    
C84   C85   S    
C63   C69   A    
C68   C69   A    
C88   N12   A    
C87   H62   S    
C56   N9    A    
N3    N5    A    
C78   H23   S    
C51   C57   A    
C4    C12   A    
C4    N16   A    
N1    N7    A    
C77   H39   S    
C51   H17   S    
C52   N5    A    
C64   O6    S    
C52   H29   S    
C45   H31   S    
C2    H34   S    
C46   H10   S    
C28   C34   A    
C59   C60   A    
C80   H43   S    
C87   H63   S    
C13   C14   A    
N2    N4    A    
C76   H37   S    
C76   H35   S    
C37   I1    S    
C7    C56   A    
C12   C47   S    
C75   O1    S    
C10   H65   S    
C83   H52   S    
N16   Ni2   S    
C81   H47   S    
C77   C79   S    
C27   C34   S    
C5    N15   A    
C38   C39   A    
C50   C53   A    
C66   H27   S    
C62   C66   A    
C16   N2    A    
C76   H36   S    
C80   O3    S    
C85   H58   S    
C64   N6    A    
C67   O1    S    
C86   H61   S    
N11   N12   A    
C5    C7    A    
C44   H14   S    
C86   C87   S    
C5    H56   S    
C84   H55   S    
N9    Ni2   S    
C79   H42   S    
N15   Ni3   S    
C72   H25   S    
C28   N3    A    
C33   C37   A    
C49   C58   A    
C3    H45   S    
N12   Ni2   S    
C43   C44   A    
C43   H13   S    
N10   Ni3   S    
C37   C38   A    
C53   O5    S    
N5    Ni1   S    
C47   C48   A    
C65   H26   S    
C84   H54   S    
C68   C72   A    
C78   N11   A    
N8    Ni1   S    
C3    N14   A    
C42   C48   A    
C24   C25   A    
C8    C67   A    
C39   C46   A    
C67   N10   A    
C32   H8    S    
C16   C23   A    
N3    Ni4   S    
C55   C57   A    
C22   C24   A    
C36   C44   A    
C42   C43   A    
C56   H12   S    
C4    O3    S    
C48   O4    S    
C60   H18   S    
C81   H48   S    
C83   H53   S    
C15   C17   A    
C54   C55   A    
C1    H1    S    
C73   H30   S    
C6    C50   S    
C62   C65   A    
C75   H33   S    
C8    C31   S    
N4    Ni2   S    
C40   N4    A    
C31   C32   A    
C2    C8    A    
C75   H32   S    
C85   H59   S    
C80   C81   S    
C86   H60   S    
C16   H11   S    
C88   O2    S    
C28   H21   S    
C34   C52   A    
C77   O2    S    
C49   C59   A    
C30   C36   A    
C87   H64   S    
C17   C25   A    
C32   C33   A    
C19   C20   A    
C1    N1    A    
C26   H3    S    
C25   H6    S    
C71   C72   A    
C82   H50   S    
C19   H2    S    
C70   H20   S    
C24   H5    S    
C11   C13   A    
C61   C71   A    
C57   C58   A    
C40   H28   S    
C20   C26   A    
C33   C35   A    
C9    C78   A    
C69   C70   A    
C35   C41   A    
C13   H66   S    
C10   C11   A    
C77   H38   S    
C2    N13   A    
N2    Ni3   S    
C15   C21   A    
N6    N16   A    
C20   C21   A    
N10   N13   A    
C73   N7    A    
C82   C83   S    
C82   O4    S    
C86   O6    S    
N13   Ni1   S    
C14   C15   A    
C62   C74   S    
C58   H15   S    
C51   C53   A    
C21   C22   A    
C29   H4    S    
C18   H67   S    
N1    Ni1   S    
N11   Ni4   S    
