data_mof_unit_21904.cif
_audit_creation_date              2012-12-11T14:54:21-0500
_audit_creation_method            fapswitch 2.2
_symmetry_space_group_name_H-M    P1
_symmetry_Int_Tables_number       1
_space_group_crystal_system       triclinic
_cell_length_a                    18.976148
_cell_length_b                    10.882039
_cell_length_c                    18.799526
_cell_angle_alpha                 89.823841
_cell_angle_beta                  90.104309
_cell_angle_gamma                 89.92663
_cell_volume                      3882.05875983

loop_
_atom_site_label
_atom_site_type_symbol
_atom_type_description
_atom_site_fract_x
_atom_site_fract_y
_atom_site_fract_z
_atom_type_partial_charge
C1    C     C_R   0.728355 0.373679 0.644209 0.537589
C2    C     C_R   0.307349 0.876676 0.462260 -0.141256
C3    C     C_R   0.043671 0.558793 0.447285 -0.147556
C4    C     C_R   0.208837 0.347567 0.540977 -0.158306
C5    C     C_R   0.807351 0.376687 0.462265 -0.141560
C6    C     C_R   0.710497 0.831922 0.467746 -0.142672
C7    C     C_R   0.302664 0.866793 0.535800 -0.147713
C8    C     C_R   0.210487 0.331946 0.467738 -0.142221
C9    C     C_R   0.802670 0.366804 0.535805 -0.147952
C10   C     C_R   0.750183 0.912853 0.425160 0.025598
C11   C     C_R   0.239924 0.899909 0.569655 0.031782
C12   C     C_R   0.250176 0.412872 0.425154 0.026066
C13   C     C_R   0.269742 0.376488 0.354074 0.542961
C14   C     C_R   0.739935 0.399947 0.569664 0.033012
C15   C     C_R   0.784492 0.012978 0.455455 -0.142424
C16   C     C_R   0.181392 0.937927 0.529341 -0.134114
C17   C     C_R   0.284483 0.513000 0.455447 -0.142227
C18   C     C_R   0.681409 0.438005 0.529354 -0.133760
C19   C     C_R   0.783679 0.027307 0.528054 -0.128682
C20   C     C_R   0.185081 0.942762 0.456672 -0.137219
C21   C     C_R   0.283669 0.527333 0.528047 -0.129922
C22   C     C_R   0.685093 0.442832 0.456686 -0.137363
C23   C     C_R   0.746836 0.943810 0.571352 0.028642
C24   C     C_R   0.228351 0.873666 0.644205 0.547079
C25   C     C_R   0.248884 0.918324 0.422839 0.029360
C26   C     C_R   0.246827 0.443835 0.571345 0.026267
C27   C     C_R   0.748889 0.418354 0.422847 0.029045
C28   C     C_R   0.483930 0.051705 0.957228 -0.115926
C29   C     C_R   0.463245 0.050480 0.027025 -0.135999
C30   C     C_R   0.964146 0.559985 0.950172 -0.132776
C31   C     C_R   0.945265 0.557494 0.021216 -0.137915
C32   C     C_R   0.453310 0.160492 0.063622 0.029172
C33   C     C_R   0.495336 0.162983 0.921538 0.035127
C34   C     C_R   0.954766 0.661491 0.063641 0.032314
C35   C     C_R   0.769745 0.876481 0.354077 0.546652
C36   C     C_R   0.993918 0.666284 0.920628 0.028956
C37   C     C_R   0.460141 0.273222 0.027391 -0.129856
C38   C     C_R   0.481804 0.274490 0.956303 -0.130563
C39   C     C_R   0.980480 0.770512 0.033202 -0.140279
C40   C     C_R   0.999366 0.773168 0.961724 -0.144333
C41   C     C_R   0.564945 0.150900 0.639146 0.562235
C42   C     C_R   0.469004 0.155094 0.353318 0.556693
C43   C     C_R   0.064943 0.650900 0.639146 0.562529
C44   C     C_R   0.969006 0.655095 0.353317 0.555742
C45   C     C_R   0.815259 0.927868 0.956841 -0.157784
C46   C     C_3   0.451766 0.359608 0.473693 -0.258827
C47   C     C_R   0.185133 0.944452 0.041150 -0.145797
C48   C     C_R   0.286709 0.544809 0.976608 -0.145527
C49   C     C_R   0.709064 0.519989 0.027719 -0.136977
C50   C     C_R   0.820074 0.922396 0.029607 -0.169974
C51   C     C_R   0.182244 0.938835 0.968428 -0.160172
C52   C     C_R   0.293891 0.517431 0.047663 -0.164177
C53   C     C_R   0.708885 0.507837 0.955094 -0.164666
C54   C     C_R   0.759923 0.901220 0.071423 0.074478
C55   C     C_R   0.241391 0.902306 0.928617 0.067912
C56   C     C_R   0.246442 0.437235 0.081103 0.069377
C57   C     C_3   0.474267 0.357141 0.551164 -0.262308
C58   C     C_R   0.750613 0.417915 0.923153 0.067105
C59   C     C_R   0.693928 0.884994 0.039069 0.074777
C60   C     C_R   0.304732 0.869927 0.963717 0.090980
C61   C     C_R   0.185467 0.398651 0.044223 0.089125
C62   C     C_R   0.798621 0.348077 0.964780 0.083654
C63   C     C_R   0.689037 0.894351 0.965366 -0.130128
C64   C     C_R   0.306494 0.875178 0.037972 -0.114980
C65   C     C_R   0.177311 0.431114 0.972528 -0.122153
C66   C     C_R   0.798207 0.361009 0.038365 -0.143209
C67   C     C_R   0.749470 0.920052 0.924654 0.011260
C68   C     C_3   0.951730 0.859573 0.473705 -0.258667
C69   C     C_R   0.248110 0.918496 0.076082 0.012958
C70   C     C_R   0.230147 0.498440 0.937659 0.007536
C71   C     C_R   0.752654 0.445080 0.069886 0.014679
C72   C     C_R   0.740612 0.972941 0.645991 0.535911
C73   C     C_R   0.258427 0.967356 0.352004 0.546324
C74   C     C_R   0.240608 0.472956 0.645986 0.548892
C75   C     C_R   0.758428 0.467363 0.352006 0.549452
C76   C     C_R   0.730428 0.378872 0.852211 0.566678
C77   C     C_R   0.269275 0.381475 0.148368 0.559458
C78   C     C_R   0.228851 0.876176 0.853806 0.565675
C79   C     C_3   0.974228 0.857104 0.551176 -0.262806
C80   C     C_R   0.771587 0.875812 0.146153 0.569139
C81   C     C_R   0.531213 0.156920 0.853073 0.562010
C82   C     C_R   0.436110 0.153203 0.139133 0.565325
C83   C     C_R   0.030748 0.657201 0.852746 0.546441
C84   C     C_R   0.936866 0.653341 0.138987 0.558101
C85   C     C_R   0.741275 0.969201 0.853754 0.551877
C86   C     C_R   0.258189 0.968424 0.146626 0.542564
C87   C     C_R   0.227115 0.522584 0.861244 0.567097
C88   C     C_R   0.759436 0.474820 0.144301 0.543149
C89   C     C_R   0.511020 0.164184 0.418398 0.016352
C90   C     C_R   0.708846 0.847542 0.540985 -0.158739
C91   C     C_R   0.551951 0.158848 0.562575 0.017040
C92   C     C_R   0.011017 0.664189 0.418399 0.015732
C93   C     C_R   0.051943 0.658849 0.562577 0.016438
C94   C     C_R   0.510368 0.271302 0.459338 0.005550
C95   C     C_R   0.530773 0.268765 0.530061 0.012620
C96   C     C_R   0.010348 0.771301 0.459344 0.005485
C97   C     C_R   0.030750 0.768760 0.530069 0.012780
C98   C     C_R   0.563498 0.056047 0.519077 -0.151652
C99   C     C_R   0.543663 0.058780 0.447288 -0.147060
C100  C     C_R   0.063503 0.556058 0.519075 -0.151996
Cr1   Cr    Cr6+3 0.771950 0.169480 0.750100 1.031108
Cr2   Cr    Cr6+3 0.383410 0.010620 0.249390 1.009233
Cr3   Cr    Cr6+3 0.116590 0.510620 0.750610 1.011775
Cr4   Cr    Cr6+3 0.883410 0.510620 0.249390 1.010626
Cr5   Cr    Cr6+3 0.228050 0.169480 0.249900 1.031909
Cr6   Cr    Cr6+3 0.271950 0.669480 0.750100 1.008257
Cr7   Cr    Cr6+3 0.728050 0.669480 0.249900 1.028799
Cr8   Cr    Cr6+3 0.614930 0.323340 0.749170 1.013753
Cr9   Cr    Cr6+3 0.385070 0.323340 0.250830 1.012060
Cr10  Cr    Cr6+3 0.114930 0.823340 0.749170 1.005796
Cr11  Cr    Cr6+3 0.885070 0.823340 0.250830 1.008779
Cr12  Cr    Cr6+3 0.616590 0.010620 0.750610 1.011843
H1    H     H_    0.582955 0.971064 0.541700 0.137229
H2    H     H_    0.996054 0.946187 0.569706 0.132858
H3    H     H_    0.398855 0.318597 0.464751 0.162380
H4    H     H_    0.496107 0.446218 0.569687 0.132646
H5    H     H_    0.460476 0.450140 0.447640 0.137982
H6    H     H_    0.434241 0.315228 0.586908 0.159500
H7    H     H_    0.960425 0.950115 0.447658 0.137910
H8    H     H_    0.934209 0.815163 0.586917 0.157232
H9    H     H_    0.678646 0.784726 0.573704 0.121269
H10   H     H_    0.357410 0.857902 0.436898 0.132771
H11   H     H_    0.178637 0.284749 0.573696 0.122840
H12   H     H_    0.547832 0.974992 0.416620 0.137463
H13   H     H_    0.857407 0.357887 0.436899 0.132767
H14   H     H_    0.684156 0.752867 0.445111 0.139434
H15   H     H_    0.347665 0.834234 0.566001 0.123886
H16   H     H_    0.184147 0.252890 0.445105 0.139620
H17   H     H_    0.847666 0.334219 0.566003 0.123174
H18   H     H_    0.815253 0.076138 0.423445 0.128102
H19   H     H_    0.131510 0.961646 0.553571 0.137390
H20   H     H_    0.315245 0.576159 0.423436 0.127674
H21   H     H_    0.631533 0.461750 0.553587 0.137418
H22   H     H_    0.811589 0.105027 0.550164 0.140697
H23   H     H_    0.082967 0.471079 0.541695 0.136967
H24   H     H_    0.139091 0.974100 0.427491 0.132575
H25   H     H_    0.311578 0.605052 0.550157 0.140299
H26   H     H_    0.639106 0.474190 0.427510 0.132848
H27   H     H_    0.862329 0.947277 0.926228 0.137490
H28   H     H_    0.139115 0.976962 0.069563 0.136158
H29   H     H_    0.327814 0.597251 0.951620 0.127465
H30   H     H_    0.675568 0.590054 0.050575 0.148965
H31   H     H_    0.871653 0.934060 0.053029 0.135843
H32   H     H_    0.132509 0.962499 0.943658 0.133217
H33   H     H_    0.340333 0.551783 0.074635 0.133141
H34   H     H_    0.047852 0.475012 0.416612 0.137094
H35   H     H_    0.672894 0.564388 0.924319 0.132213
H36   H     H_    0.597202 0.937842 0.071172 0.235142
H37   H     H_    0.607656 0.784472 0.062948 0.213217
H38   H     H_    0.409234 0.823162 0.960264 0.191815
H39   H     H_    0.362114 0.761424 0.896579 0.247608
H40   H     H_    0.084909 0.369190 0.074565 0.228943
H41   H     H_    0.129173 0.241556 0.049570 0.224721
H42   H     H_    0.897542 0.286108 0.947808 0.201957
H43   H     H_    0.836013 0.175659 0.955575 0.239369
H44   H     H_    0.495505 0.964154 0.932765 0.143750
H45   H     H_    0.637382 0.889399 0.940867 0.129082
H46   H     H_    0.458441 0.962269 0.053186 0.120340
H47   H     H_    0.959184 0.476520 0.919399 0.135606
H48   H     H_    0.925620 0.472777 0.043779 0.124459
H49   H     H_    0.451156 0.359557 0.054424 0.131579
H50   H     H_    0.490607 0.361557 0.929739 0.127168
H51   H     H_    0.988371 0.852196 0.064952 0.121538
H52   H     H_    0.021930 0.856331 0.939897 0.118209
H53   H     H_    0.354984 0.853692 0.065669 0.115166
H54   H     H_    0.131364 0.399127 0.943760 0.134243
H55   H     H_    0.834191 0.306865 0.070577 0.118333
H56   H     H_    0.898826 0.818536 0.464758 0.161996
N1    N     N_3   0.631869 0.864941 0.080794 -0.608839
N2    N     N_3   0.368239 0.842674 0.924838 -0.620066
N3    N     N_3   0.133345 0.323599 0.078088 -0.597603
N4    N     N_3   0.846243 0.261759 0.933330 -0.589963
O1    O     O_R   0.787510 0.042610 0.670410 -0.526126
O2    O     O_R   0.454250 0.051070 0.169440 -0.518564
O3    O     O_R   0.045750 0.551070 0.830560 -0.528536
O4    O     O_R   0.954250 0.551070 0.169440 -0.513112
O5    O     O_R   0.681210 0.959150 0.825320 -0.510298
O6    O     O_R   0.318790 0.959150 0.174680 -0.527588
O7    O     O_R   0.181210 0.459150 0.825320 -0.497560
O8    O     O_R   0.818790 0.459150 0.174680 -0.524506
O9    O     O_3   0.667820 0.167810 0.749960 -0.270641
O10   O     O_3   0.332180 0.167810 0.250040 -0.267022
O11   O     O_3   0.167820 0.667810 0.749960 -0.290241
O12   O     O_R   0.212490 0.042610 0.329590 -0.526305
O13   O     O_3   0.832180 0.667810 0.250040 -0.269741
O14   O     O_R   0.765670 0.292090 0.675090 -0.509582
O15   O     O_R   0.234330 0.292090 0.324910 -0.504917
O16   O     O_R   0.265670 0.792090 0.675090 -0.504403
O17   O     O_R   0.734330 0.792090 0.324910 -0.502877
O18   O     O_R   0.670220 0.409020 0.668560 -0.536312
O19   O     O_R   0.329780 0.409020 0.331440 -0.527517
O20   O     O_R   0.170220 0.909020 0.668560 -0.530340
O21   O     O_R   0.829780 0.909020 0.331440 -0.525682
O22   O     O_R   0.556580 0.251590 0.674980 -0.500352
O23   O     O_R   0.287510 0.542610 0.670410 -0.519937
O24   O     O_R   0.443420 0.251590 0.325020 -0.493078
O25   O     O_R   0.056580 0.751590 0.674980 -0.499468
O26   O     O_R   0.943420 0.751590 0.325020 -0.493208
O27   O     O_R   0.545890 0.049670 0.670030 -0.512281
O28   O     O_R   0.454110 0.049670 0.329970 -0.519021
O29   O     O_R   0.045890 0.549670 0.670030 -0.514137
O30   O     O_R   0.954110 0.549670 0.329970 -0.519339
O31   O     O_R   0.681340 0.957860 0.676500 -0.522377
O32   O     O_R   0.318660 0.957860 0.323500 -0.506242
O33   O     O_R   0.181340 0.457860 0.676500 -0.514864
O34   O     O_R   0.712490 0.542610 0.329590 -0.524468
O35   O     O_R   0.818660 0.457860 0.323500 -0.504503
O36   O     O_R   0.787380 0.044010 0.830940 -0.503212
O37   O     O_R   0.212620 0.044010 0.169060 -0.509625
O38   O     O_R   0.287380 0.544010 0.830940 -0.518810
O39   O     O_R   0.712620 0.544010 0.169060 -0.516960
O40   O     O_R   0.765540 0.293390 0.823910 -0.454061
O41   O     O_R   0.234460 0.293390 0.176090 -0.456864
O42   O     O_R   0.265540 0.793390 0.823910 -0.510507
O43   O     O_R   0.734460 0.793390 0.176090 -0.467019
O44   O     O_R   0.670090 0.410410 0.829090 -0.533089
O45   O     O_R   0.556450 0.252890 0.823790 -0.496423
O46   O     O_R   0.329910 0.410410 0.170910 -0.549308
O47   O     O_R   0.170090 0.910410 0.829090 -0.528730
O48   O     O_R   0.829910 0.910410 0.170910 -0.546703
O49   O     O_R   0.443550 0.252890 0.176210 -0.499564
O50   O     O_R   0.056450 0.752890 0.823790 -0.504392
O51   O     O_R   0.943550 0.752890 0.176210 -0.507090
O52   O     O_R   0.545750 0.051070 0.830560 -0.521284

loop_
_geom_bond_atom_site_label_1
_geom_bond_atom_site_label_2
_ccdc_geom_bond_type
Cr9   O10   S    
C58   C62   A    
C21   C26   A    
C44   O26   A    
C52   H33   S    
C13   O15   A    
C83   O3    A    
C14   C18   A    
Cr1   O1    S    
C2    C7    A    
C86   O37   A    
C21   H25   S    
C4    C8    A    
C78   O42   A    
Cr12  O9    S    
C58   C76   S    
Cr4   O4    S    
C82   O49   A    
H38   N2    S    
C1    O14   A    
C19   H22   S    
C15   C19   A    
Cr4   O13   S    
C50   C54   A    
H39   N2    S    
C66   H55   S    
Cr9   O24   S    
H37   N1    S    
C28   C29   A    
C37   C38   A    
C40   H52   S    
C29   C32   A    
C10   C15   A    
Cr11  O26   S    
C30   C31   A    
C75   O34   A    
C77   O46   A    
C5    H13   S    
Cr7   O39   S    
C20   C25   A    
C36   C83   S    
C65   C70   A    
Cr6   O38   S    
C11   C24   S    
C86   O6    A    
Cr5   O37   S    
C18   H21   S    
Cr4   O35   S    
C89   C94   A    
C16   H19   S    
Cr2   O32   S    
C47   C69   A    
Cr7   O34   S    
Cr9   O46   S    
C43   C93   S    
C5    C27   A    
C83   O50   A    
C75   O35   A    
H43   N4    S    
C8    H16   S    
C45   H27   S    
C82   O2    A    
C88   O39   A    
C47   H28   S    
C45   C67   A    
C10   C35   S    
C61   N3    S    
Cr5   O10   S    
C80   O43   A    
Cr12  O27   S    
C51   C55   A    
C31   H48   S    
C44   C92   S    
C100  H23   S    
C41   O27   A    
C1    O18   A    
C76   O40   A    
C68   C79   S    
C73   O12   A    
C35   O17   A    
C55   C60   A    
C49   H30   S    
Cr10  O25   S    
C44   O30   A    
Cr12  O52   S    
Cr8   O18   S    
C25   C73   S    
C34   C84   S    
C27   C75   S    
C70   C87   S    
C3    C100  A    
C88   O8    A    
C57   H4    S    
C54   C80   S    
C54   C59   A    
C2    H10   S    
C92   C96   A    
C30   H47   S    
Cr6   O42   S    
C73   O32   A    
C63   C67   A    
C67   C85   S    
Cr11  O13   S    
Cr10  O11   S    
C62   C66   A    
C77   O41   A    
C34   C39   A    
Cr2   O10   S    
C36   C40   A    
Cr5   O41   S    
C6    H14   S    
C41   O22   A    
C24   O20   A    
C39   C40   A    
H40   N3    S    
C19   C23   A    
C98   H1    S    
C47   C51   A    
C64   C69   A    
C6    C90   A    
C87   O7    A    
C65   H54   S    
C17   C21   A    
C56   C77   S    
C4    H11   S    
C3    C92   A    
Cr4   O30   S    
C12   C17   A    
C7    C11   A    
C9    C14   A    
Cr3   O29   S    
C96   C97   A    
C5    C9    A    
C64   H53   S    
Cr1   O36   S    
Cr2   O28   S    
C78   O47   A    
C11   C16   A    
C76   O44   A    
C66   C71   A    
C46   C94   S    
C48   C52   A    
C16   C20   A    
C81   O45   A    
C79   H8    S    
H41   N3    S    
Cr3   O3    S    
H36   N1    S    
C23   C90   A    
H42   N4    S    
C43   O25   A    
Cr11  O51   S    
C32   C37   A    
C20   H24   S    
C42   O24   A    
Cr10  O47   S    
C93   C100  A    
Cr8   O44   S    
Cr11  O21   S    
C72   O31   A    
Cr8   O45   S    
C46   H3    S    
C41   C91   S    
C72   O1    A    
C28   C33   A    
C22   C27   A    
C46   C57   S    
C57   C95   S    
C91   C98   A    
Cr2   O6    S    
C87   O38   A    
Cr3   O11   S    
C90   H9    S    
Cr11  O48   S    
C63   H45   S    
Cr8   O22   S    
Cr1   O14   S    
Cr10  O50   S    
C93   C97   A    
Cr9   O49   S    
C50   H31   S    
C52   C56   A    
C37   H49   S    
C24   O16   A    
C55   C78   S    
C81   O52   A    
C22   H26   S    
C74   O23   A    
C18   C22   A    
C23   C72   S    
C79   C97   S    
C31   C34   A    
Cr3   O33   S    
C48   C70   A    
C89   C99   A    
C84   O51   A    
Cr1   O40   S    
C80   O48   A    
C4    C26   A    
C53   C58   A    
C29   H46   S    
C9    H17   S    
Cr2   O2    S    
C62   N4    S    
Cr7   O13   S    
C59   C63   A    
C33   C38   A    
C13   O19   A    
C30   C36   A    
C60   C64   A    
C42   C89   S    
C60   N2    S    
Cr5   O15   S    
C42   O28   A    
Cr6   O23   S    
Cr6   O16   S    
C68   H7    S    
C59   N1    S    
C32   C82   S    
Cr4   O8    S    
C15   H18   S    
C33   C81   S    
C45   C50   A    
Cr9   O19   S    
C49   C53   A    
Cr10  O20   S    
C26   C74   S    
C48   H29   S    
C2    C25   A    
Cr3   O7    S    
Cr5   O12   S    
C94   C95   A    
Cr1   O9    S    
Cr6   O11   S    
C68   H56   S    
C6    C10   A    
C35   O21   A    
C91   C95   A    
C71   C88   S    
C61   C65   A    
C38   H50   S    
Cr7   O43   S    
C12   C13   S    
C46   H5    S    
C3    H34   S    
C85   O5    A    
C98   C99   A    
C49   C71   A    
C79   H2    S    
Cr8   O9    S    
C28   H44   S    
C51   H32   S    
C43   O29   A    
C57   H6    S    
Cr7   O17   S    
C1    C14   S    
C99   H12   S    
Cr12  O31   S    
C7    H15   S    
C84   O4    A    
C39   H51   S    
C53   H35   S    
C69   C86   S    
C8    C12   A    
C85   O36   A    
C68   C96   S    
Cr12  O5    S    
C17   H20   S    
C74   O33   A    
C56   C61   A    
