data_mof_unit_64298.cif
_audit_creation_date              2012-12-10T18:24:07-0500
_audit_creation_method            fapswitch 2.2
_symmetry_space_group_name_H-M    P1
_symmetry_Int_Tables_number       1
_space_group_crystal_system       triclinic
_cell_length_a                    16.110815
_cell_length_b                    16.088509
_cell_length_c                    16.088332
_cell_angle_alpha                 95.858883
_cell_angle_beta                  84.393042
_cell_angle_gamma                 90.107888
_cell_volume                      4128.31110578

loop_
_atom_site_label
_atom_site_type_symbol
_atom_type_description
_atom_site_fract_x
_atom_site_fract_y
_atom_site_fract_z
_atom_type_partial_charge
C1    C     C_R   0.510673 0.724322 0.510736 0.506882
C2    C     C_1   0.485081 0.186270 0.485029 0.027553
C3    C     C_1   0.515079 0.483470 0.184676 0.027427
C4    C     C_R   0.489323 0.275690 0.489283 0.510639
C5    C     C_2   0.523216 0.474600 0.018863 -0.114445
C6    C     C_2   0.476863 0.525426 0.981147 -0.115771
C7    C     C_1   0.481320 0.520546 0.890863 -0.036633
C8    C     C_1   0.518746 0.479475 0.109149 -0.032338
C9    C     C_1   0.484964 0.516549 0.815337 0.021532
C10   C     C_R   0.510739 0.488193 0.274558 0.509658
C11   C     C_R   0.489263 0.511827 0.725458 0.507866
C12   C     C_1   0.111570 0.521630 0.521613 0.044180
C13   C     C_R   0.724239 0.488065 0.488108 0.510937
C14   C     C_R   0.275772 0.511896 0.511859 0.508115
C15   C     C_1   0.813456 0.483518 0.483587 0.010859
C16   C     C_2   0.978356 0.476236 0.476306 0.247990
C17   C     C_2   0.021329 0.528010 0.528014 0.022154
C18   C     C_3   0.975877 0.592506 0.592447 -0.302897
C19   C     C_3   0.033068 0.646223 0.646128 -0.426512
C20   C     C_1   0.888448 0.479990 0.480065 -0.002157
C21   C     C_1   0.186567 0.516866 0.516836 0.037975
C22   C     C_1   0.514965 0.813743 0.515080 0.021399
C23   C     C_2   0.523024 0.978691 0.523214 -0.116067
C24   C     C_2   0.477045 0.021326 0.476966 -0.114864
C25   C     C_1   0.481470 0.111134 0.481407 -0.032027
C26   C     C_1   0.518598 0.888881 0.518750 -0.036952
Cl1   Cl    Cl    0.029202 0.400910 0.401048 -0.553878
H1    H     H_    0.435632 0.988944 0.435309 0.142886
H2    H     H_    0.564439 0.011069 0.564871 0.142811
H3    H     H_    0.435109 0.571196 0.017961 0.142362
H4    H     H_    0.564969 0.428829 0.982050 0.143136
H5    H     H_    0.069093 0.606370 0.682473 0.163918
H6    H     H_    0.076715 0.682125 0.605836 0.163583
H7    H     H_    0.994826 0.691180 0.691052 0.151196
H8    H     H_    0.939168 0.634800 0.559223 0.150870
H9    H     H_    0.931605 0.559737 0.635177 0.150640
O1    O     O_3   0.500000 0.500000 0.500000 -0.444522
O2    O     O_R   0.689040 0.536050 0.444000 -0.531499
O3    O     O_R   0.315570 0.560650 0.560630 -0.544783
O4    O     O_R   0.679800 0.444450 0.536560 -0.532401
O5    O     O_R   0.315590 0.458850 0.458810 -0.514379
O6    O     O_R   0.458170 0.444480 0.314880 -0.528773
O7    O     O_R   0.445130 0.560630 0.690220 -0.534352
O8    O     O_R   0.559450 0.679320 0.457680 -0.534076
O9    O     O_R   0.537250 0.315570 0.537220 -0.533998
O10   O     O_R   0.458120 0.689530 0.559970 -0.534837
O11   O     O_R   0.445170 0.315580 0.445130 -0.528472
O12   O     O_R   0.559480 0.536070 0.314410 -0.533031
O13   O     O_R   0.537220 0.458810 0.680490 -0.535230
Zn1   Zn    Zn3+2 0.430930 0.430930 0.430910 0.977994
Zn2   Zn    Zn3+2 0.575680 0.561790 0.430230 0.960036
Zn3   Zn    Zn3+2 0.562480 0.430910 0.562480 0.958772
Zn4   Zn    Zn3+2 0.430910 0.576380 0.576380 0.951527

loop_
_geom_bond_atom_site_label_1
_geom_bond_atom_site_label_2
_ccdc_geom_bond_type
C12   C17   S    
C5    C8    S    
C2    C4    S    
C23   C24   D    
C19   H7    S    
C11   O7    A    
C6    C7    S    
C11   O13   A    
C10   O6    A    
C18   H8    S    
O5    Zn1   S    
C1    O8    A    
C16   C20   S    
O13   Zn3   S    
O1    Zn4   S    
C16   Cl1   S    
O10   Zn4   S    
C17   C18   S    
C1    C22   S    
C3    C10   S    
O1    Zn1   S    
C9    C11   S    
C13   O2    A    
O3    Zn4   S    
O6    Zn1   S    
C14   O5    A    
C5    C6    D    
C19   H5    S    
C23   H2    S    
O8    Zn2   S    
C6    H3    S    
C3    C8    T    
O11   Zn1   S    
C4    O9    A    
C13   C15   S    
C10   O12   A    
C15   C20   T    
O1    Zn2   S    
C1    O10   A    
C2    C25   T    
C24   C25   S    
C14   C21   S    
C18   C19   S    
C22   C26   T    
C23   C26   S    
C7    C9    T    
O1    Zn3   S    
C13   O4    A    
O2    Zn2   S    
O9    Zn3   S    
C14   O3    A    
O4    Zn3   S    
C18   H9    S    
C12   C21   T    
O7    Zn4   S    
O12   Zn2   S    
C24   H1    S    
C19   H6    S    
C16   C17   D    
C5    H4    S    
C4    O11   A    
