data_mof_unit_9613.cif
_audit_creation_date              2012-12-10T17:40:32-0500
_audit_creation_method            fapswitch 2.2
_symmetry_space_group_name_H-M    P1
_symmetry_Int_Tables_number       1
_space_group_crystal_system       triclinic
_cell_length_a                    13.87748
_cell_length_b                    14.921448
_cell_length_c                    15.755525
_cell_angle_alpha                 86.655307
_cell_angle_beta                  70.359046
_cell_angle_gamma                 89.990058
_cell_volume                      3066.81769838

loop_
_atom_site_label
_atom_site_type_symbol
_atom_type_description
_atom_site_fract_x
_atom_site_fract_y
_atom_site_fract_z
_atom_type_partial_charge
C1    C     C_R   0.498936 0.670960 0.500814 0.908067
C2    C     C_R   0.498864 0.328809 0.502368 0.925284
C3    C     C_R   0.381556 0.422359 0.094712 -0.060797
C4    C     C_R   0.625981 0.481604 0.908506 -0.120516
C5    C     C_R   0.306629 0.438367 0.052819 0.403743
C6    C     C_R   0.692609 0.443541 0.950382 0.403496
C7    C     C_R   0.433247 0.182951 0.582588 0.330537
C8    C     C_R   0.515743 0.817689 0.417722 0.334786
C9    C     C_R   0.495428 0.231555 0.504177 -0.203375
C10   C     C_R   0.493644 0.767983 0.500768 -0.236957
C11   C     C_R   0.542502 0.189592 0.423749 0.327913
C12   C     C_R   0.447492 0.807729 0.583200 0.322174
C13   C     C_R   0.516007 0.098997 0.418424 -0.117906
C14   C     C_R   0.424452 0.900437 0.581936 -0.098342
C15   C     C_R   0.467585 0.047092 0.499879 -0.069971
C16   C     C_R   0.465952 0.952943 0.499567 -0.069344
C17   C     C_R   0.420493 0.089265 0.581249 -0.119065
C18   C     C_R   0.504004 0.911493 0.416655 -0.087438
C19   C     C_R   0.532788 0.059157 0.335231 -0.112151
C20   C     C_R   0.359960 0.942556 0.658733 -0.097534
C21   C     C_R   0.524007 0.965000 0.335102 0.434398
C22   C     C_R   0.356259 0.037212 0.656947 0.431821
C23   C     C_R   0.437050 0.500325 0.672816 0.831959
C24   C     C_R   0.562764 0.494002 0.327987 0.816566
C25   C     C_R   0.223778 0.566661 0.451503 0.056313
C26   C     C_R   0.775451 0.431764 0.547407 0.057286
C27   C     C_R   0.191033 0.428237 0.537155 0.637807
C28   C     C_R   0.812522 0.567655 0.454639 0.563550
C29   C     C_R   0.084530 0.434380 0.551111 -0.101774
C30   C     C_R   0.919425 0.559300 0.441831 -0.178952
C31   C     C_R   0.052250 0.498504 0.498118 -0.037720
C32   C     C_R   0.949564 0.496440 0.497669 0.046497
C33   C     C_R   0.125404 0.560274 0.440385 -0.034960
C34   C     C_R   0.879142 0.428399 0.548285 -0.084265
C35   C     C_R   0.014508 0.367947 0.604450 -0.009795
C36   C     C_R   0.996924 0.609232 0.371945 -0.094332
C37   C     C_R   0.916934 0.359080 0.595435 -0.106089
C38   C     C_R   0.099915 0.608772 0.370285 0.040037
C39   C     C_R   0.398644 0.498993 0.773257 -0.220094
C40   C     C_R   0.601068 0.474311 0.230799 -0.185761
C41   C     C_R   0.265397 0.501628 0.921445 0.494169
C42   C     C_R   0.735511 0.437406 0.090440 0.462257
C43   C     C_R   0.294750 0.510868 0.826035 -0.159596
C44   C     C_R   0.705474 0.456186 0.182726 -0.087499
C45   C     C_R   0.469820 0.483629 0.817355 -0.175724
C46   C     C_R   0.529553 0.471078 0.185935 -0.226385
C47   C     C_R   0.443296 0.481262 0.911551 -0.002024
C48   C     C_R   0.558260 0.453122 0.094466 -0.039163
C49   C     C_R   0.337977 0.476680 0.963316 -0.093770
C50   C     C_R   0.662998 0.442964 0.044997 -0.068724
C51   C     C_R   0.518187 0.473271 0.955056 0.027412
C52   C     C_R   0.484813 0.450970 0.049374 -0.082156
Cu1   Cu    Cu3+1 0.402580 0.500010 0.499990 1.003923
Cu2   Cu    Cu3+1 0.597420 0.499990 0.500010 0.973133
H1    H     H_    0.450977 0.487765 0.221576 0.219094
H2    H     H_    0.546082 0.468003 0.777074 0.164676
N1    N     N_R   0.256170 0.500070 0.500040 -0.285384
N2    N     N_R   0.743830 0.499930 0.499960 -0.248968
O1    O     O_R   0.417730 0.629750 0.499970 -0.586671
O2    O     O_R   0.582270 0.370250 0.500030 -0.561025
O3    O     O_R   0.582270 0.629730 0.499980 -0.559811
O4    O     O_R   0.417730 0.370270 0.500020 -0.541532
O5    O     O_R   0.371590 0.500020 0.629830 -0.569574
O6    O     O_R   0.628410 0.499980 0.370170 -0.583674
O7    O     O_R   0.536130 0.499990 0.629840 -0.604859
O8    O     O_R   0.463870 0.500010 0.370160 -0.610911
O9    O     O_3   0.214670 0.389630 0.083408 -0.595403
C53   C     C_3   0.142056 0.427496 0.157988 0.154573
H3    H     H_    0.089299 0.469777 0.134455 0.193494
H4    H     H_    0.176842 0.470635 0.195620 0.195620
C54   C     C_3   0.077426 0.351383 0.220718 -0.313801
H5    H     H_    0.023198 0.324086 0.190128 0.199426
H6    H     H_    0.127120 0.295886 0.229787 0.255340
C55   C     C_3   0.017442 0.384336 0.312708 -0.896921
H7    H     H_    0.071287 0.411652 0.343496 0.279685
H8    H     H_    0.973304 0.328291 0.358177 0.267070
H9    H     H_    0.963544 0.436771 0.305736 0.260810
O10   O     O_3   0.789729 0.417382 0.899451 -0.562053
C56   C     C_3   0.781557 0.343562 0.849139 0.039704
H10   H     H_    0.857092 0.336268 0.796816 0.158735
H11   H     H_    0.726340 0.355629 0.812397 0.087944
C57   C     C_3   0.754921 0.254988 0.908075 -0.368464
H12   H     H_    0.688504 0.263909 0.970213 0.221898
H13   H     H_    0.821714 0.234206 0.927406 0.218044
C58   C     C_3   0.728797 0.179002 0.858344 -0.892527
H14   H     H_    0.665933 0.198438 0.832608 0.255372
H15   H     H_    0.703526 0.118561 0.905399 0.273590
H16   H     H_    0.797349 0.161430 0.801439 0.259580
C59   C     C_2   0.290236 0.645944 0.411000 0.502869
H17   H     H_    0.367582 0.638233 0.365476 0.129979
O11   O     O_2   0.257944 0.721439 0.427222 -0.589892
C60   C     C_2   0.697340 0.369474 0.608072 0.414473
H18   H     H_    0.652294 0.388746 0.674377 0.002266
O12   O     O_2   0.686922 0.293827 0.586465 -0.598146
O13   O     O_3   0.230502 0.343681 0.541109 -0.560168
C61   C     C_3   0.239075 0.302445 0.459624 0.085017
H19   H     H_    0.314466 0.320903 0.407888 0.196647
H20   H     H_    0.178647 0.322703 0.430457 0.145357
C62   C     C_3   0.230304 0.200559 0.476726 -0.356069
H21   H     H_    0.287808 0.177286 0.506859 0.224830
H22   H     H_    0.152909 0.181684 0.524822 0.221944
C63   C     C_3   0.247920 0.153737 0.389335 -0.882575
H23   H     H_    0.189213 0.173842 0.358684 0.272237
H24   H     H_    0.242630 0.079841 0.403952 0.249660
H25   H     H_    0.325187 0.171383 0.340471 0.242040
O14   O     O_3   0.775821 0.644335 0.422620 -0.618523
C64   C     C_3   0.802161 0.723639 0.457276 0.043961
H26   H     H_    0.792943 0.782007 0.413758 0.155479
H27   H     H_    0.882973 0.727447 0.454050 0.177138
C65   C     C_3   0.733076 0.736842 0.554118 -0.367822
H28   H     H_    0.658673 0.760720 0.551983 0.208801
H29   H     H_    0.721660 0.672639 0.596043 0.244862
C66   C     C_3   0.777295 0.807514 0.597775 -0.891855
H30   H     H_    0.851520 0.785269 0.603182 0.269649
H31   H     H_    0.723440 0.817442 0.666712 0.259026
H32   H     H_    0.788888 0.872564 0.557249 0.260295
C67   C     C_2   0.040593 0.309459 0.673676 0.383503
H33   H     H_    0.007154 0.242879 0.693464 0.062425
O15   O     O_2   0.096154 0.337168 0.712691 -0.488322
C68   C     C_2   0.971141 0.652264 0.294886 0.311058
H34   H     H_    0.920350 0.617516 0.268274 0.152902
O16   O     O_2   0.001232 0.728135 0.264373 -0.587826
C69   C     C_2   0.863367 0.271488 0.627065 0.341676
H35   H     H_    0.794335 0.266029 0.685121 0.082818
O17   O     O_2   0.898368 0.203901 0.588810 -0.552509
C70   C     C_2   0.181506 0.646444 0.287606 0.323578
H36   H     H_    0.175843 0.713398 0.259747 0.142733
O18   O     O_2   0.255559 0.601927 0.249266 -0.605799
C71   C     C_2   0.785747 0.458705 0.225603 0.341388
H37   H     H_    0.774613 0.423501 0.290408 0.101709
O19   O     O_2   0.867729 0.497031 0.186389 -0.577833
C72   C     C_2   0.215673 0.532245 0.783997 0.453042
H38   H     H_    0.232430 0.579775 0.725929 0.088793
O20   O     O_2   0.130097 0.498009 0.815088 -0.475158
O21   O     O_3   0.165517 0.517451 0.974648 -0.582951
C73   C     C_3   0.147634 0.611161 0.976137 0.074107
H39   H     H_    0.064073 0.620154 0.991922 0.210224
H40   H     H_    0.185597 0.648425 0.909813 0.109254
C74   C     C_3   0.179629 0.653624 0.049152 -0.413565
H41   H     H_    0.136714 0.620756 0.116223 0.233520
H42   H     H_    0.262765 0.644640 0.035880 0.220104
C75   C     C_3   0.157334 0.753760 0.051227 -0.801674
H43   H     H_    0.203620 0.789506 0.986498 0.262798
H44   H     H_    0.177062 0.782190 0.106870 0.269429
H45   H     H_    0.074784 0.764807 0.063040 0.272006
O22   O     O_3   0.838148 0.425384 0.041891 -0.513259
C76   C     C_3   0.867537 0.338115 0.062428 0.087573
H46   H     H_    0.811731 0.285960 0.059586 0.107623
H47   H     H_    0.872956 0.332144 0.131094 0.125174
C77   C     C_3   0.973597 0.320006 0.995678 -0.229511
H48   H     H_    0.971882 0.325832 0.925551 0.258037
H49   H     H_    0.029075 0.371086 0.001329 0.284021
C78   C     C_3   0.009810 0.226767 0.014593 -0.953716
H50   H     H_    0.009754 0.218431 0.085069 0.256138
H51   H     H_    0.089064 0.217755 0.968307 0.271523
H52   H     H_    0.959026 0.174301 0.003978 0.256820
C79   C     C_2   0.359490 0.358270 0.175117 0.373116
H53   H     H_    0.412108 0.304310 0.174677 0.064202
O23   O     O_2   0.287933 0.368482 0.244081 -0.592713
C80   C     C_2   0.674535 0.539497 0.824681 0.332815
H54   H     H_    0.750923 0.525612 0.779948 0.103149
O24   O     O_2   0.632260 0.606388 0.807446 -0.568932
O25   O     O_3   0.381248 0.228173 0.658614 -0.559590
C81   C     C_3   0.441412 0.230490 0.715237 0.115776
H55   H     H_    0.499615 0.285389 0.689637 0.144876
H56   H     H_    0.480515 0.165678 0.719001 0.153195
C82   C     C_3   0.372994 0.249964 0.810716 -0.282488
H57   H     H_    0.337733 0.316531 0.809318 0.232251
H58   H     H_    0.310257 0.198715 0.836104 0.258711
C83   C     C_3   0.433697 0.248904 0.875599 -0.932236
H59   H     H_    0.462120 0.180405 0.883457 0.264577
H60   H     H_    0.383604 0.268641 0.942809 0.275476
H61   H     H_    0.499996 0.296585 0.850086 0.246326
O26   O     O_3   0.537497 0.772936 0.338936 -0.600553
C84   C     C_3   0.644245 0.763665 0.299655 0.078326
H62   H     H_    0.669781 0.709337 0.337482 0.193137
H63   H     H_    0.687101 0.827156 0.298966 0.150403
C85   C     C_3   0.668577 0.737513 0.202367 -0.332816
H64   H     H_    0.623643 0.676088 0.201581 0.218699
H65   H     H_    0.646722 0.792573 0.162365 0.250510
C86   C     C_3   0.782119 0.719740 0.158091 -0.836879
H66   H     H_    0.828691 0.780675 0.156792 0.261572
H67   H     H_    0.797159 0.700839 0.087730 0.263618
H68   H     H_    0.805005 0.663725 0.195962 0.285767
O27   O     O_3   0.610508 0.240347 0.351434 -0.640973
C87   C     C_3   0.709712 0.203002 0.324564 0.023211
H69   H     H_    0.755818 0.238646 0.259770 0.143047
H70   H     H_    0.709120 0.131099 0.310357 0.167736
C88   C     C_3   0.764268 0.214703 0.393330 -0.298751
H71   H     H_    0.776484 0.287347 0.399207 0.240777
H72   H     H_    0.716878 0.184252 0.460357 0.262613
C89   C     C_3   0.867029 0.167819 0.364843 -0.903076
H73   H     H_    0.855302 0.094466 0.362600 0.258441
H74   H     H_    0.906242 0.178324 0.414425 0.301440
H75   H     H_    0.916550 0.195072 0.297108 0.242650
O28   O     O_3   0.417526 0.752921 0.662639 -0.645462
C90   C     C_3   0.478969 0.771238 0.715810 0.030014
H76   H     H_    0.499067 0.843977 0.712926 0.157259
H77   H     H_    0.550477 0.733114 0.692227 0.178485
C91   C     C_3   0.423107 0.738576 0.814322 -0.303906
H78   H     H_    0.341107 0.755793 0.835309 0.224867
H79   H     H_    0.427022 0.664700 0.821083 0.235045
C92   C     C_3   0.470412 0.778804 0.878432 -0.831275
H80   H     H_    0.457783 0.852287 0.880197 0.258168
H81   H     H_    0.553850 0.766526 0.856584 0.285966
H82   H     H_    0.433915 0.747304 0.947544 0.247474
C93   C     C_2   0.550513 0.115631 0.249867 0.366476
H83   H     H_    0.521681 0.183340 0.252061 0.095448
O29   O     O_2   0.598034 0.087645 0.176438 -0.532635
C94   C     C_2   0.287511 0.889498 0.737027 0.395544
H84   H     H_    0.254323 0.826890 0.726980 0.104588
O30   O     O_2   0.263732 0.915265 0.813405 -0.545893
O31   O     O_3   0.534399 0.925832 0.255133 -0.556418
C95   C     C_3   0.436673 0.919600 0.246132 0.134573
H85   H     H_    0.403306 0.987473 0.245082 0.126925
H86   H     H_    0.383586 0.876639 0.302878 0.172763
C96   C     C_3   0.446922 0.877415 0.157548 -0.311955
H87   H     H_    0.506831 0.914469 0.100962 0.240360
H88   H     H_    0.470231 0.806442 0.161353 0.225102
C97   C     C_3   0.346215 0.879958 0.138545 -0.909421
H89   H     H_    0.284831 0.844473 0.194902 0.259196
H90   H     H_    0.355271 0.846482 0.075338 0.262645
H91   H     H_    0.323745 0.950509 0.130208 0.263929
O32   O     O_3   0.288316 0.078332 0.729098 -0.558348
C98   C     C_3   0.191552 0.082510 0.717439 0.135898
H92   H     H_    0.169852 0.018084 0.695354 0.119524
H93   H     H_    0.192751 0.136674 0.665619 0.151406
C99   C     C_3   0.110135 0.103881 0.806810 -0.313518
H94   H     H_    0.128195 0.070029 0.864258 0.258147
H95   H     H_    0.110491 0.177477 0.814068 0.233641
C100  C     C_3   0.003450 0.072483 0.811805 -0.915085
H96   H     H_    0.986193 0.097124 0.750818 0.255959
H97   H     H_    0.945138 0.097954 0.872288 0.259687
H98   H     H_    0.998475 0.997949 0.817109 0.270061

loop_
_geom_bond_atom_site_label_1
_geom_bond_atom_site_label_2
_ccdc_geom_bond_type
C90   C91   S    
C92   H80   S    
C8    C10   A    
C70   H36   S    
C27   C29   A    
C34   C37   A    
C74   H42   S    
C27   O13   S    
O13   C61   S    
C5    O9    S    
O32   C98   S    
C67   O15   D    
C97   H90   S    
C85   H64   S    
Cu1   O1    S    
C69   H35   S    
C84   H63   S    
Cu2   O7    S    
Cu2   O2    S    
Cu1   Cu2   S    
C96   C97   S    
C40   C46   A    
C92   H81   S    
C79   H53   S    
C25   N1    A    
C3    C79   S    
C81   H55   S    
C76   H47   S    
C66   H30   S    
C1    O1    A    
C58   H14   S    
O26   C84   S    
C74   C75   S    
C2    O2    A    
C23   O5    A    
C69   O17   D    
O14   C64   S    
C26   C60   S    
C15   C16   A    
C18   C21   A    
C61   C62   S    
C11   C13   A    
C98   C99   S    
C63   H25   S    
C88   H72   S    
C90   H77   S    
C65   H28   S    
C99   H94   S    
C21   O31   S    
C76   H46   S    
C24   C40   S    
C37   C69   S    
C26   C34   A    
C78   H50   S    
O25   C81   S    
C45   H2    S    
C28   O14   S    
C91   H78   S    
C7    C17   A    
C77   C78   S    
C61   H20   S    
C46   H1    S    
C64   H26   S    
C31   C33   A    
C20   C94   S    
C59   O11   D    
C40   C44   A    
C24   O8    A    
C39   C45   A    
C66   H32   S    
C86   H67   S    
C87   H69   S    
C24   O6    A    
C11   O27   S    
C19   C93   S    
C41   C43   A    
C75   H45   S    
C5    C49   A    
C90   H76   S    
C42   C44   A    
C73   C74   S    
C41   C49   A    
C97   H89   S    
C38   C70   S    
C68   O16   D    
C84   C85   S    
C45   C47   A    
C92   H82   S    
C46   C48   A    
C55   H7    S    
C13   C19   A    
C58   H15   S    
C93   H83   S    
C89   H75   S    
C14   C20   A    
O21   C73   S    
C76   C77   S    
C91   H79   S    
C4    C6    A    
C27   N1    A    
C82   H57   S    
C56   H11   S    
Cu1   N1    S    
O10   C56   S    
C72   H38   S    
C47   C51   A    
C4    C51   A    
C96   H87   S    
C86   H66   S    
C7    O25   S    
C55   H9    S    
C8    C18   A    
C51   C52   A    
C82   H58   S    
C32   C34   A    
C88   C89   S    
O9    C53   S    
C77   H49   S    
C56   C57   S    
C9    C11   A    
Cu1   O4    S    
C12   O28   S    
C85   H65   S    
C31   C32   A    
O31   C95   S    
C74   H41   S    
C61   H19   S    
C60   O12   D    
C98   H92   S    
C100  H97   S    
C16   C18   A    
C6    C50   A    
C78   H52   S    
C63   H24   S    
Cu1   O8    S    
C26   N2    A    
C65   C66   S    
O22   C76   S    
C10   C12   A    
C42   C50   A    
C53   C54   S    
C82   C83   S    
C72   O20   D    
C62   H22   S    
C12   C14   A    
C57   H12   S    
C94   O30   D    
C13   C15   A    
C99   H95   S    
C64   C65   S    
C14   C16   A    
C35   C67   S    
C78   H51   S    
C55   H8    S    
C87   H70   S    
C36   C38   A    
C42   O22   S    
C41   O21   S    
C75   H44   S    
C68   H34   S    
C35   C37   A    
C73   H40   S    
C54   H6    S    
C71   H37   S    
Cu2   N2    S    
C58   H16   S    
C88   H71   S    
C7    C9    A    
C43   C72   S    
C70   O18   D    
C86   H68   S    
C19   C21   A    
C95   H85   S    
C25   C59   S    
C53   H3    S    
C81   C82   S    
C1    C10   S    
C17   C22   A    
C20   C22   A    
O28   C90   S    
C3    C5    A    
C95   C96   S    
C1    O3    A    
C4    C80   S    
C54   C55   S    
C39   C43   A    
C3    C52   A    
C15   C17   A    
Cu2   O3    S    
C28   N2    A    
C96   H88   S    
C57   C58   S    
C29   C35   A    
C57   H13   S    
C33   C38   A    
C77   H48   S    
C62   H21   S    
C30   C36   A    
C89   H73   S    
C23   O7    A    
C87   C88   S    
C81   H56   S    
C44   C71   S    
C95   H86   S    
C28   C30   A    
C29   C31   A    
C84   H62   S    
C47   C49   A    
C80   H54   S    
C30   C32   A    
Cu1   O5    S    
O27   C87   S    
C64   H27   S    
C83   H60   S    
C91   C92   S    
C23   C39   S    
C48   C50   A    
C60   H18   S    
C98   H93   S    
C100  H98   S    
C8    O26   S    
C97   H91   S    
C63   H23   S    
C36   C68   S    
C65   H29   S    
C85   C86   S    
C6    O10   S    
C56   H10   S    
C22   O32   S    
C48   C52   A    
C62   C63   S    
C54   H5    S    
Cu2   O6    S    
C79   O23   D    
C94   H84   S    
C83   H59   S    
C25   C33   A    
C100  H96   S    
C93   O29   D    
C53   H4    S    
C75   H43   S    
C73   H39   S    
C66   H31   S    
C59   H17   S    
C67   H33   S    
C2    C9    S    
C99   C100  S    
C2    O4    A    
C80   O24   D    
C71   O19   D    
C83   H61   S    
C89   H74   S    
