data_mof_unit_55801.cif
_audit_creation_date              2012-12-10T18:58:48-0500
_audit_creation_method            fapswitch 2.2
_symmetry_space_group_name_H-M    P1
_symmetry_Int_Tables_number       1
_space_group_crystal_system       triclinic
_cell_length_a                    12.964809
_cell_length_b                    10.795475
_cell_length_c                    9.542861
_cell_angle_alpha                 90.017334
_cell_angle_beta                  96.537923
_cell_angle_gamma                 90.417387
_cell_volume                      1326.90889422

loop_
_atom_site_label
_atom_site_type_symbol
_atom_type_description
_atom_site_fract_x
_atom_site_fract_y
_atom_site_fract_z
_atom_type_partial_charge
C1    C     C_R   0.503336 0.262340 0.500350 0.813584
C2    C     C_R   0.027403 0.479646 0.560414 0.120182
C3    C     C_R   0.972354 0.540679 0.444407 0.009439
C4    C     C_R   0.864884 0.550150 0.437956 -0.225994
C5    C     C_R   0.867247 0.441933 0.661028 -0.204011
C6    C     C_R   0.974731 0.432499 0.669413 -0.162466
C7    C     C_R   0.491643 0.063508 0.620734 0.077298
C8    C     C_R   0.515920 0.129213 0.503086 -0.211241
C9    C     C_R   0.556513 0.064080 0.392942 0.390320
C10   C     C_R   0.552840 0.934413 0.392381 -0.298923
C11   C     C_R   0.513872 0.870516 0.503551 -0.158477
C12   C     C_R   0.300397 0.502803 0.473071 0.869052
C13   C     C_R   0.491402 0.936316 0.621641 0.122292
C14   C     C_3   0.397473 0.929627 0.698705 -0.443432
C15   C     C_3   0.397544 0.070162 0.696958 -0.463282
C16   C     C_R   0.551893 0.590124 0.081341 0.158636
C17   C     C_R   0.440289 0.417358 0.066249 0.543909
C18   C     C_R   0.439937 0.418987 0.915801 -0.198559
C19   C     C_R   0.551548 0.590411 0.934176 0.236707
C20   C     C_3   0.664615 0.619728 0.944623 -0.457035
C21   C     C_3   0.665349 0.617981 0.103643 -0.476726
C22   C     C_R   0.502487 0.737578 0.500427 0.825979
C23   C     C_R   0.699429 0.500033 0.526916 0.774953
C24   C     C_R   0.812174 0.498455 0.543625 -0.059865
C25   C     C_R   0.187338 0.511979 0.456981 -0.199987
C26   C     C_R   0.025514 0.590657 0.336707 0.307386
C27   C     C_R   0.132693 0.570425 0.338782 0.319057
C28   C     C_R   0.134254 0.466990 0.566332 -0.355228
Cu1   Cu    Cu3+1 0.499990 0.499980 0.640670 0.932484
Cu2   Cu    Cu3+1 0.500010 0.500020 0.359330 0.995664
H1    H     H_    0.821684 0.597341 0.350453 0.178216
H2    H     H_    0.415255 0.890243 0.806321 0.198551
H3    H     H_    0.329429 0.110296 0.631567 0.190680
H4    H     H_    0.415675 0.111706 0.803012 0.200683
H5    H     H_    0.391610 0.355136 0.850137 0.156141
H6    H     H_    0.710946 0.543729 0.905053 0.215095
H7    H     H_    0.679855 0.713181 0.902280 0.191154
H8    H     H_    0.711255 0.539925 0.153112 0.215686
H9    H     H_    0.681945 0.709925 0.153873 0.187229
H10   H     H_    0.827013 0.402158 0.743946 0.144150
H11   H     H_    0.016404 0.386823 0.759676 0.126035
H12   H     H_    0.176334 0.421086 0.656298 0.170055
H13   H     H_    0.577395 0.884650 0.303424 0.173586
H14   H     H_    0.329196 0.887550 0.634339 0.192530
N1    N     N_R   0.500660 0.500930 0.148010 -0.225062
N2    N     N_R   0.500660 0.500890 0.852110 -0.203934
O1    O     O_R   0.500000 0.319640 0.618810 -0.589248
O2    O     O_R   0.500010 0.319680 0.381230 -0.514731
O3    O     O_R   0.348990 0.499960 0.599490 -0.596896
O4    O     O_R   0.349000 0.500000 0.361910 -0.511818
O5    O     O_R   0.499990 0.680320 0.618770 -0.578607
O6    O     O_R   0.500000 0.680360 0.381190 -0.578475
O7    O     O_R   0.651000 0.500000 0.638090 -0.586953
O8    O     O_R   0.651010 0.500040 0.400510 -0.594928
O9    O     O_3   0.373213 0.341923 0.131913 -0.570559
C29   C     C_3   0.375100 0.216927 0.087893 0.105750
H15   H     H_    0.385705 0.158322 0.183893 0.206307
H16   H     H_    0.440574 0.193949 0.026591 0.132596
C30   C     C_3   0.270934 0.181067 0.006956 -0.925260
H17   H     H_    0.254608 0.238097 0.910464 0.235557
H18   H     H_    0.271846 0.081925 0.976095 0.231837
H19   H     H_    0.207759 0.195135 0.074670 0.254194
O10   O     O_3   0.972443 0.655334 0.226123 -0.587308
C31   C     C_3   0.977798 0.782908 0.259048 0.090348
H20   H     H_    0.059866 0.815938 0.277656 0.171907
H21   H     H_    0.938168 0.802508 0.354235 0.123824
C32   C     C_3   0.923582 0.855652 0.135860 -0.802357
H22   H     H_    0.841014 0.826387 0.115305 0.244001
H23   H     H_    0.926965 0.956198 0.160803 0.194004
H24   H     H_    0.962407 0.839237 0.039665 0.254640
O11   O     O_3   0.185566 0.621560 0.234376 -0.566913
C33   C     C_3   0.167219 0.548291 0.111146 0.119866
H25   H     H_    0.083030 0.539467 0.073664 0.165186
H26   H     H_    0.199398 0.453915 0.130678 0.180089
C34   C     C_3   0.219881 0.608775 0.993802 -0.752922
H27   H     H_    0.303453 0.624901 0.029016 0.246741
H28   H     H_    0.212330 0.547825 0.899354 0.194360
H29   H     H_    0.182861 0.699102 0.965037 0.238627
O12   O     O_3   0.589529 0.124948 0.278625 -0.585230
C35   C     C_3   0.695247 0.156907 0.311378 0.093817
H30   H     H_    0.743776 0.072088 0.325668 0.128931
H31   H     H_    0.707928 0.214739 0.408742 0.130080
C36   C     C_3   0.730340 0.231909 0.190295 -0.779773
H32   H     H_    0.681110 0.315284 0.171369 0.255370
H33   H     H_    0.812456 0.261635 0.216582 0.196598
H34   H     H_    0.723623 0.174932 0.092708 0.234834

loop_
_geom_bond_atom_site_label_1
_geom_bond_atom_site_label_2
_ccdc_geom_bond_type
O9    C29   S    
C16   C21   S    
C1    C8    S    
Cu2   N1    S    
C19   C20   S    
C26   O10   S    
C12   O3    A    
C19   N2    A    
C7    C8    A    
Cu1   O3    S    
C25   C28   A    
Cu2   O8    S    
C26   C27   A    
Cu1   O1    S    
Cu2   O2    S    
C17   N1    A    
C35   C36   S    
Cu1   O5    S    
C5    C6    A    
C4    C24   A    
C29   H15   S    
C9    O12   S    
C21   H8    S    
C8    C9    A    
C6    H11   S    
C23   C24   S    
C18   H5    S    
C17   O9    S    
C15   H4    S    
C7    C15   S    
Cu2   O4    S    
C30   H17   S    
C13   C14   S    
C2    C6    A    
C33   C34   S    
C18   N2    A    
C23   O7    A    
C30   H18   S    
C32   H22   S    
C31   C32   S    
C33   H26   S    
C33   H25   S    
O12   C35   S    
C32   H23   S    
C31   H21   S    
C34   H27   S    
Cu1   Cu2   S    
C36   H32   S    
C21   H9    S    
C17   C18   A    
C34   H28   S    
C35   H31   S    
C36   H33   S    
C3    C4    A    
C27   O11   S    
C23   O8    A    
C22   O6    A    
C9    C10   A    
Cu2   O6    S    
C30   H19   S    
C10   H13   S    
C3    C26   A    
C1    O1    A    
C14   H2    S    
C35   H30   S    
C16   N1    A    
C12   O4    A    
C1    O2    A    
C25   C27   A    
Cu1   N2    S    
C11   C22   S    
C29   C30   S    
C12   C25   S    
C32   H24   S    
C31   H20   S    
C2    C3    A    
O11   C33   S    
C20   H7    S    
C11   C13   A    
C5    C24   A    
Cu1   O7    S    
C16   C19   A    
C28   H12   S    
C29   H16   S    
C14   H14   S    
C34   H29   S    
C4    H1    S    
C10   C11   A    
O10   C31   S    
C20   H6    S    
C7    C13   A    
C36   H34   S    
C20   C21   S    
C5    H10   S    
C14   C15   S    
C2    C28   A    
C15   H3    S    
C22   O5    A    
