data_mof_unit_25636.cif
_audit_creation_date              2012-12-10T20:25:42-0500
_audit_creation_method            fapswitch 2.2
_symmetry_space_group_name_H-M    P1
_symmetry_Int_Tables_number       1
_space_group_crystal_system       triclinic
_cell_length_a                    8.575134
_cell_length_b                    10.671746
_cell_length_c                    9.942296
_cell_angle_alpha                 91.048323
_cell_angle_beta                  98.638164
_cell_angle_gamma                 91.089084
_cell_volume                      899.146865807

loop_
_atom_site_label
_atom_site_type_symbol
_atom_type_description
_atom_site_fract_x
_atom_site_fract_y
_atom_site_fract_z
_atom_type_partial_charge
C1    C     C_R   0.506834 0.260262 0.499766 0.871483
C2    C     C_R   0.595032 0.931777 0.404603 -0.206256
C3    C     C_R   0.530429 0.870996 0.507875 -0.146889
C4    C     C_R   0.496427 0.938446 0.619748 0.108360
C5    C     C_3   0.355015 0.931589 0.690948 -0.486399
C6    C     C_3   0.357676 0.073527 0.690769 -0.474881
C7    C     C_R   0.424616 0.406211 0.058923 0.164837
C8    C     C_R   0.587193 0.584513 0.087757 -0.159447
C9    C     C_R   0.586136 0.588248 0.944814 0.128459
C10   C     C_R   0.425199 0.405808 0.916984 0.153971
C11   C     C_3   0.253780 0.371676 0.887551 -0.552526
C12   C     C_R   0.201439 0.500326 0.464191 0.973291
C13   C     C_3   0.253074 0.370152 0.040453 -0.124108
C14   C     C_R   0.505432 0.739568 0.501683 0.878515
C15   C     C_R   0.798454 0.501417 0.535574 0.944652
C16   C     C_2   0.035933 0.499234 0.444786 -0.380525
C17   C     C_2   0.963663 0.506654 0.553954 -0.404208
C18   C     C_R   0.497472 0.065830 0.617685 0.133459
C19   C     C_R   0.530945 0.128547 0.503216 -0.155665
C20   C     C_R   0.595777 0.061693 0.400878 0.073317
H1    H     H_    0.974028 0.490266 0.341091 0.185434
H2    H     H_    0.183678 0.447607 0.835611 0.210627
H3    H     H_    0.230454 0.277951 0.838121 0.188718
H4    H     H_    0.230645 0.275965 0.080559 0.161408
H5    H     H_    0.025164 0.517877 0.656952 0.167037
H6    H     H_    0.635964 0.879004 0.322960 0.169059
H7    H     H_    0.249853 0.888497 0.626276 0.205118
H8    H     H_    0.382046 0.893213 0.794783 0.196508
H9    H     H_    0.252874 0.113739 0.628003 0.198101
H10   H     H_    0.390382 0.115610 0.794392 0.201220
H11   H     H_    0.653963 0.653441 0.155521 0.151523
N1    N     N_R   0.498950 0.499140 0.142680 -0.114644
N2    N     N_R   0.498950 0.499180 0.857030 -0.114943
O1    O     O_R   0.500020 0.316790 0.614690 -0.606562
O2    O     O_R   0.500000 0.316760 0.385350 -0.631744
O3    O     O_R   0.271760 0.500010 0.587850 -0.614397
O4    O     O_R   0.271740 0.499970 0.358500 -0.590980
O5    O     O_R   0.500000 0.683240 0.614650 -0.634696
O6    O     O_R   0.499980 0.683210 0.385310 -0.624322
O7    O     O_R   0.728260 0.500030 0.641500 -0.639025
O8    O     O_R   0.728240 0.499990 0.412150 -0.616826
Zn1   Zn    Zn3+2 0.500010 0.500020 0.653130 0.930532
Zn2   Zn    Zn3+2 0.499990 0.499980 0.346870 0.939728
C21   C     C_3   0.672989 0.701615 0.899306 -0.369834
C22   C     C_3   0.836522 0.673215 0.861491 -0.278860
C23   C     C_3   0.968185 0.752068 0.945511 -0.962467
H12   H     H_    0.945341 0.853521 0.931838 0.272626
H13   H     H_    0.976334 0.729845 0.055055 0.269540
H14   H     H_    0.082547 0.731482 0.911070 0.249724
H15   H     H_    0.864543 0.572640 0.875861 0.224960
H16   H     H_    0.836838 0.696471 0.753160 0.227048
H17   H     H_    0.599625 0.752668 0.820509 0.208574
H18   H     H_    0.687788 0.774583 0.982012 0.171745
N3    N     N_3   0.154751 0.467247 0.087934 -0.399939
H19   H     H_    0.037030 0.444790 0.049811 0.181945
H20   H     H_    0.181609 0.554084 0.048989 0.206260
N4    N     N_3   0.657041 0.120894 0.290919 -0.463614
H21   H     H_    0.738258 0.191423 0.330543 0.199497
H22   H     H_    0.564156 0.159674 0.225852 0.206481

loop_
_geom_bond_atom_site_label_1
_geom_bond_atom_site_label_2
_ccdc_geom_bond_type
O4    Zn2   S    
C7    C10   A    
C16   H1    S    
C14   O5    A    
C5    H8    S    
C11   C13   S    
C11   H2    S    
O3    Zn1   S    
C19   C20   A    
O1    Zn1   S    
C4    C18   A    
C21   H17   S    
O7    Zn1   S    
C2    C3    A    
C8    C9    A    
C17   H5    S    
C2    H6    S    
C5    H7    S    
C22   C23   S    
C9    N2    A    
O8    Zn2   S    
C23   H14   S    
C15   O8    A    
N4    H21   S    
C16   C17   D    
C3    C14   S    
C22   H15   S    
N2    Zn1   S    
C11   H3    S    
C6    H10   S    
N1    Zn2   S    
C1    O1    A    
O5    Zn1   S    
C10   N2    A    
C23   H13   S    
C5    C6    S    
C6    C18   S    
N3    H20   S    
C15   O7    A    
N4    H22   S    
C12   O3    A    
C10   C11   S    
C22   H16   S    
C2    C20   A    
C3    C4    A    
C8    N1    A    
C7    C13   S    
C6    H9    S    
O2    Zn2   S    
C21   C22   S    
C1    O2    A    
C13   N3    S    
C12   O4    A    
C15   C17   S    
N3    H19   S    
C18   C19   A    
C9    C21   S    
O6    Zn2   S    
C7    N1    A    
C20   N4    S    
C23   H12   S    
C1    C19   S    
C21   H18   S    
C8    H11   S    
C12   C16   S    
C13   H4    S    
C14   O6    A    
C4    C5    S    
