data_mof_unit_36932.cif
_audit_creation_date              2012-12-11T15:16:42-0500
_audit_creation_method            fapswitch 2.2
_symmetry_space_group_name_H-M    P1
_symmetry_Int_Tables_number       1
_space_group_crystal_system       triclinic
_cell_length_a                    25.133975
_cell_length_b                    7.227058
_cell_length_c                    21.903334
_cell_angle_alpha                 90.000865
_cell_angle_beta                  110.141734
_cell_angle_gamma                 90.000174
_cell_volume                      3735.30640781

loop_
_atom_site_label
_atom_site_type_symbol
_atom_type_description
_atom_site_fract_x
_atom_site_fract_y
_atom_site_fract_z
_atom_type_partial_charge
O1    O     O_R   0.554350 0.505270 0.581390 -0.531160
O2    O     O_R   0.445650 0.005270 0.418610 -0.531155
O3    O     O_R   0.553380 0.177580 0.454800 -0.540744
O4    O     O_R   0.446620 0.677580 0.545200 -0.540745
C1    C     C_R   0.565906 0.344584 0.438317 0.677216
C2    C     C_R   0.434092 0.844585 0.561682 0.677211
O5    O     O_R   0.560970 0.175640 0.583140 -0.533160
O6    O     O_R   0.439030 0.675640 0.416860 -0.533165
O7    O     O_R   0.453290 0.004120 0.547860 -0.538728
O8    O     O_R   0.546710 0.504120 0.452140 -0.538728
C3    C     C_R   0.575992 0.343885 0.607595 0.680028
C4    C     C_R   0.424008 0.843883 0.392405 0.680027
O9    O     O_3   0.464660 0.338800 0.488280 -0.372849
O10   O     O_3   0.535340 0.838800 0.511720 -0.372845
V1    V     V_3+5 0.506560 0.064420 0.502170 1.413688
V2    V     V_3+5 0.493440 0.564420 0.497830 1.413679
C5    C     C_R   0.147257 0.964380 0.289531 0.200045
C6    C     C_R   0.852741 0.464375 0.710468 0.200038
H1    H     H_    0.234993 0.962136 0.402177 0.164809
H2    H     H_    0.764996 0.462392 0.597830 0.164825
C7    C     C_R   0.120691 0.940872 0.172337 -0.283974
C8    C     C_R   0.879309 0.440865 0.827663 -0.284006
C9    C     C_R   0.397046 0.805422 0.274284 -0.153624
C10   C     C_R   0.602959 0.305328 0.725713 -0.153622
C11   C     C_R   0.357493 0.790528 0.212047 -0.158502
C12   C     C_R   0.642515 0.290393 0.787948 -0.158496
C13   C     C_R   0.300161 0.821226 0.200689 -0.102202
C14   C     C_R   0.699845 0.321139 0.799306 -0.102194
C15   C     C_R   0.280476 0.874147 0.251495 0.134382
C16   C     C_R   0.719524 0.374151 0.748506 0.134387
C17   C     C_R   0.321541 0.882649 0.315977 0.064999
C18   C     C_R   0.678456 0.382707 0.684025 0.064998
C19   C     C_R   0.221481 0.909936 0.241288 -0.088027
C20   C     C_R   0.778517 0.409959 0.758713 -0.088030
C21   C     C_R   0.205048 0.938596 0.296849 -0.050256
C22   C     C_R   0.794948 0.438660 0.703153 -0.050294
C23   C     C_R   0.246401 0.941044 0.359316 -0.109816
C24   C     C_R   0.753591 0.441211 0.640689 -0.109768
C25   C     C_R   0.303370 0.917328 0.368563 -0.207326
C26   C     C_R   0.696622 0.417488 0.631443 -0.207342
C27   C     C_R   0.177994 0.920674 0.178579 0.460762
C28   C     C_R   0.822006 0.420668 0.821422 0.460765
C29   C     C_R   0.105649 0.960505 0.227566 0.447858
C30   C     C_R   0.894350 0.460482 0.772431 0.447913
C31   C     C_R   0.379981 0.849257 0.326825 -0.084283
C32   C     C_R   0.620018 0.349260 0.673177 -0.084295
H3    H     H_    0.441236 0.777527 0.281842 0.110933
H4    H     H_    0.558771 0.277385 0.718153 0.110947
H5    H     H_    0.272575 0.793793 0.151937 0.203711
H6    H     H_    0.727436 0.293659 0.848054 0.203691
H7    H     H_    0.371262 0.750625 0.172203 0.133858
H8    H     H_    0.628750 0.250415 0.827788 0.133858
H9    H     H_    0.333143 0.922439 0.417918 0.107782
H10   H     H_    0.666847 0.422667 0.582089 0.107802
C33   C     C_R   0.091973 0.807421 0.848708 -0.290063
C34   C     C_R   0.908026 0.307434 0.151290 -0.290041
H11   H     H_    0.055270 0.718089 0.838337 0.183883
H12   H     H_    0.944730 0.218106 0.161662 0.183901
C35   C     C_R   0.126430 0.792045 0.810176 0.291418
C36   C     C_R   0.873566 0.292050 0.189819 0.291444
C37   C     C_R   0.174063 0.909552 0.822054 -0.050870
C38   C     C_R   0.825929 0.409544 0.177937 -0.050905
C39   C     C_R   0.185611 0.039724 0.872858 -0.276537
C40   C     C_R   0.814381 0.539702 0.127129 -0.276523
H13   H     H_    0.222273 0.129227 0.883542 0.156818
H14   H     H_    0.777716 0.629195 0.116439 0.156849
C41   C     C_R   0.150899 0.055396 0.911172 0.287874
C42   C     C_R   0.849096 0.555380 0.088820 0.287853
C43   C     C_R   0.103561 0.937641 0.899235 -0.101088
C44   C     C_R   0.896438 0.437644 0.100763 -0.101095
N1    N     N_R   0.243570 0.049082 0.777943 -0.296355
N2    N     N_R   0.756346 0.548973 0.221956 -0.296389
N3    N     N_R   0.277764 0.040992 0.743003 -0.287714
N4    N     N_R   0.722151 0.540885 0.256895 -0.287728
C45   C     C_R   0.282137 0.883470 0.711082 0.506608
C46   C     C_R   0.717849 0.383467 0.288906 0.506621
N5    N     N_R   0.250701 0.734633 0.715677 -0.285467
N6    N     N_R   0.749358 0.234732 0.284401 -0.285495
N7    N     N_R   0.216398 0.743074 0.750415 -0.241977
N8    N     N_R   0.783661 0.243173 0.249663 -0.241934
C47   C     C_R   0.211910 0.900369 0.782297 0.555868
C48   C     C_R   0.788078 0.400363 0.217691 0.555845
C49   C     C_R   0.331098 0.704034 0.646959 -0.134601
C50   C     C_R   0.668954 0.204076 0.353107 -0.134602
H15   H     H_    0.311318 0.577815 0.655133 0.138503
H16   H     H_    0.688783 0.077892 0.344993 0.138512
C51   C     C_R   0.367726 0.694405 0.611133 -0.161918
C52   C     C_R   0.632328 0.194446 0.388935 -0.161949
H17   H     H_    0.374846 0.561134 0.592688 0.123392
H18   H     H_    0.625259 0.061212 0.407444 0.123419
C53   C     C_R   0.394662 0.854369 0.599327 -0.048492
C54   C     C_R   0.605333 0.354367 0.400668 -0.048485
C55   C     C_R   0.383790 0.024203 0.624373 -0.160805
C56   C     C_R   0.616141 0.524158 0.375544 -0.160785
H19   H     H_    0.403648 0.150607 0.616496 0.122888
H20   H     H_    0.596233 0.650525 0.383361 0.122888
C57   C     C_R   0.347439 0.033563 0.660497 -0.138254
C58   C     C_R   0.652487 0.533516 0.339416 -0.138272
H21   H     H_    0.340293 0.166714 0.679005 0.135076
H22   H     H_    0.659582 0.666632 0.320846 0.135094
C59   C     C_R   0.320604 0.873642 0.672349 0.024506
C60   C     C_R   0.679384 0.373640 0.327639 0.024500
O11   O     O_R   0.953220 0.285790 0.047790 -0.546107
O12   O     O_R   0.046780 0.785790 0.952210 -0.546113
O13   O     O_R   0.939020 0.617570 0.916840 -0.531523
O14   O     O_R   0.060980 0.117570 0.083160 -0.531513
C61   C     C_R   0.924066 0.448643 0.892470 0.881611
C62   C     C_R   0.075935 0.948646 0.107530 0.881634
O15   O     O_R   0.946600 0.615450 0.045180 -0.524960
O16   O     O_R   0.053400 0.115450 0.954820 -0.524960
O17   O     O_R   0.054370 0.786770 0.081410 -0.541250
O18   O     O_R   0.945630 0.286770 0.918590 -0.541244
C63   C     C_R   0.934287 0.447111 0.061475 0.756333
C64   C     C_R   0.065713 0.947110 0.938524 0.756316
O19   O     O_3   0.035300 0.454160 0.011680 -0.386344
O20   O     O_3   0.964700 0.954160 0.988320 -0.386344
V3    V     V_3+5 0.993450 0.728620 0.997830 1.501903
V4    V     V_3+5 0.006550 0.228620 0.002170 1.501924
F1    F     F_    0.050252 0.983575 0.220977 -0.714811
F2    F     F_    0.949748 0.483496 0.779016 -0.714806
N9    N     N_2   0.110567 0.666539 0.756887 -0.501186
H23   H     H_    0.068640 0.679757 0.727691 0.271111
C65   C     C_3   0.125434 0.475646 0.774581 -0.451023
H24   H     H_    0.099641 0.419985 0.802617 0.187722
H25   H     H_    0.171208 0.463145 0.803820 0.210234
H26   H     H_    0.116830 0.391424 0.729821 0.210873
N10   N     N_2   0.889424 0.166516 0.243097 -0.501153
H27   H     H_    0.931356 0.179655 0.272283 0.271143
C66   C     C_3   0.874518 0.975653 0.225392 -0.451064
H28   H     H_    0.900317 0.919897 0.197377 0.187711
H29   H     H_    0.828747 0.963253 0.196127 0.210173
H30   H     H_    0.883078 0.891442 0.270147 0.210904
N11   N     N_2   0.166314 0.179917 0.964757 -0.494216
H31   H     H_    0.208052 0.165850 0.994471 0.272329
C67   C     C_3   0.151764 0.371260 0.947527 -0.467585
H32   H     H_    0.178014 0.427567 0.920138 0.168334
H33   H     H_    0.159978 0.454337 0.992484 0.208536
H34   H     H_    0.106155 0.384762 0.917776 0.208677
N12   N     N_2   0.833682 0.679886 0.035232 -0.494217
H35   H     H_    0.791946 0.665800 0.005514 0.272341
C68   C     C_3   0.848226 0.871235 0.052458 -0.467575
H36   H     H_    0.821960 0.927563 0.079824 0.168322
H37   H     H_    0.840031 0.954287 0.007500 0.208546
H38   H     H_    0.893830 0.884750 0.082229 0.208665
N13   N     N_2   0.130646 0.994080 0.344727 -0.507304
H39   H     H_    0.093420 0.928365 0.341858 0.299456
C69   C     C_3   0.130771 0.186549 0.362940 -0.504616
H40   H     H_    0.098370 0.264922 0.323886 0.218924
H41   H     H_    0.173148 0.249298 0.371890 0.195534
H42   H     H_    0.120702 0.197102 0.408356 0.197553
N14   N     N_2   0.869350 0.493932 0.655265 -0.507320
H43   H     H_    0.906532 0.427971 0.658107 0.299378
C70   C     C_3   0.869331 0.686385 0.637077 -0.504599
H44   H     H_    0.901863 0.764497 0.676082 0.219010
H45   H     H_    0.827025 0.749511 0.628271 0.195525
H46   H     H_    0.879286 0.696793 0.591587 0.197549
F3    F     F_    0.189694 0.925174 0.122654 -0.716370
F4    F     F_    0.810305 0.425157 0.877347 -0.716360

loop_
_geom_bond_atom_site_label_1
_geom_bond_atom_site_label_2
_ccdc_geom_bond_type
C35   N9    S    
C67   H34   S    
C49   C51   A    
C39   H13   S    
C9    C31   A    
C51   C53   A    
C13   C15   A    
C50   C60   A    
C61   O18   A    
C69   H40   S    
O1    C3    A    
O2    C4    A    
C3    C32   S    
O16   V4    S    
C2    O7    A    
N10   C66   S    
N13   H39   S    
O15   V3    S    
C65   H24   S    
C8    C28   A    
O5    C3    A    
O13   C61   A    
N4    C46   A    
C40   C42   A    
O11   C63   A    
C10   C12   A    
C66   H28   S    
C33   C35   A    
C68   H37   S    
N6    N8    A    
C65   H25   S    
C56   C58   A    
C8    C61   S    
C15   C19   A    
O20   V3    S    
C36   C38   A    
C37   C39   A    
C55   H19   S    
C38   C40   A    
H1    C23   S    
C57   H21   S    
C7    C29   A    
C14   H6    S    
C8    C30   A    
C52   C54   A    
C17   C25   A    
C51   H17   S    
C20   C28   A    
N14   H43   S    
C70   H45   S    
O16   C64   A    
O15   C63   A    
C66   H30   S    
C18   C26   A    
C38   C48   S    
O6    V2    S    
O14   V4    S    
N14   C70   S    
N11   C67   S    
N3    C45   A    
O13   V3    S    
C28   F4    S    
C12   C14   A    
N13   C69   S    
N5    N7    A    
C44   C63   S    
C46   C60   S    
C39   C41   A    
C43   C64   S    
C35   C37   A    
C9    H3    S    
C16   C20   A    
C10   H4    S    
C67   H32   S    
C69   H42   S    
N2    N4    A    
C7    C27   A    
C68   H38   S    
N7    C47   A    
C65   H26   S    
O5    V1    S    
C58   C60   A    
C34   C36   A    
C41   C43   A    
C40   H14   S    
O4    V2    S    
C5    N13   S    
C11   H7    S    
C16   C18   A    
C12   H8    S    
C53   C55   A    
H2    C24   S    
O18   V4    S    
O6    C4    A    
O19   V4    S    
C54   C56   A    
O1    V2    S    
C70   H46   S    
C56   H20   S    
O2    V1    S    
C45   N5    A    
N9    H23   S    
C33   C43   A    
C27   F3    S    
O4    C2    A    
C49   H15   S    
C52   H18   S    
C34   C44   A    
C33   H11   S    
N11   H31   S    
O12   C64   A    
O11   V4    S    
C6    N14   S    
C55   C57   A    
C6    C30   A    
O3    V1    S    
C21   C23   A    
N1    N3    A    
O12   V3    S    
C67   H33   S    
C49   C59   A    
C41   N11   S    
C18   C32   A    
C36   N10   S    
C50   C52   A    
C46   N6    A    
C4    C31   S    
O3    C1    A    
N12   H35   S    
N10   H27   S    
C11   C13   A    
C69   H41   S    
C26   H10   S    
C62   O17   A    
O17   V3    S    
C19   C27   A    
C14   C16   A    
O7    V1    S    
C10   C32   A    
C1    O8    A    
C15   C17   A    
O8    V2    S    
C68   H36   S    
C24   C26   A    
N12   C68   S    
C25   H9    S    
O14   C62   A    
C22   C24   A    
C19   C21   A    
N8    C48   A    
C34   H12   S    
C20   C22   A    
C9    C11   A    
C7    C62   S    
C58   H22   S    
C57   C59   A    
N9    C65   S    
C1    C54   S    
C13   H5    S    
C23   C25   A    
C17   C31   A    
O9    V2    S    
C5    C29   A    
C45   C59   S    
C42   C44   A    
C30   F2    S    
O10   V1    S    
C50   H16   S    
C42   N12   S    
C37   C47   S    
C5    C21   A    
C66   H29   S    
C70   H44   S    
C6    C22   A    
N2    C48   A    
C2    C53   S    
C29   F1    S    
N1    C47   A    
