data_mof_unit_10636.cif
_audit_creation_date              2013-03-05T16:43:53-0500
_audit_creation_method            fapswitch 2.2
_symmetry_space_group_name_H-M    P1
_symmetry_Int_Tables_number       1
_space_group_crystal_system       triclinic
_cell_length_a                    9.86922
_cell_length_b                    10.69146
_cell_length_c                    16.74534
_cell_angle_alpha                 90.202353
_cell_angle_beta                  84.138875
_cell_angle_gamma                 89.953747
_cell_volume                      1757.65852761

loop_
_atom_site_label
_atom_site_type_symbol
_atom_site_description
_atom_site_fract_x
_atom_site_fract_y
_atom_site_fract_z
_atom_type_partial_charge
O1    O     O_R   0.385310 0.683210 0.499990 -0.628574
O2    O     O_R   0.614650 0.683240 0.500000 -0.623760
C1    C     C_R   0.500084 0.739969 0.499009 0.900997
O3    O     O_R   0.371780 0.500000 0.615800 -0.621005
O4    O     O_R   0.601120 0.500040 0.615800 -0.588232
C2    C     C_R   0.479993 0.497872 0.653215 0.956599
Zn1   Zn    Zn3+2 0.346870 0.499980 0.499990 0.965135
Zn2   Zn    Zn3+2 0.653130 0.500020 0.500010 0.988482
O5    O     O_R   0.385350 0.316760 0.500000 -0.617194
O6    O     O_R   0.614690 0.316790 0.500010 -0.599452
O7    O     O_R   0.398880 0.499960 0.384200 -0.627271
O8    O     O_R   0.628220 0.500000 0.384200 -0.631111
C3    C     C_R   0.500371 0.260154 0.497676 0.914144
C4    C     C_R   0.520249 0.505101 0.346968 0.903251
C5    C     C_R   0.465552 0.505824 0.740149 -0.176918
C6    C     C_R   0.562883 0.451462 0.785682 0.279043
C7    C     C_R   0.560520 0.484376 0.866364 -0.180285
C8    C     C_R   0.460290 0.565581 0.901881 0.067960
C9    C     C_R   0.357731 0.610169 0.858293 -0.051257
C10   C     C_R   0.361428 0.581742 0.777334 -0.181899
C11   C     C_R   0.463282 0.669347 0.156956 0.300278
C12   C     C_R   0.443178 0.623542 0.234982 -0.257248
C13   C     C_R   0.655669 0.508758 0.214959 -0.240335
C14   C     C_R   0.674962 0.547680 0.135338 0.320466
C15   C     C_R   0.574293 0.623042 0.104830 -0.081959
C16   C     C_2   0.457581 0.597157 0.986303 -0.134078
C17   C     C_2   0.571183 0.631471 0.017848 -0.064893
C18   C     C_R   0.536881 0.540890 0.263165 -0.143712
H1    H     H_    0.357083 0.656361 0.274946 0.197172
H2    H     H_    0.731235 0.449339 0.238443 0.186599
H3    H     H_    0.665698 0.644219 0.979414 0.195260
H4    H     H_    0.278199 0.670650 0.886170 0.188975
H5    H     H_    0.286679 0.623906 0.742954 0.202720
H6    H     H_    0.362574 0.582182 0.023875 0.188745
H7    H     H_    0.634278 0.443739 0.902166 0.228246
C19   C     C_R   0.378170 0.936973 0.502406 0.011842
C20   C     C_R   0.500526 0.871616 0.490072 -0.043867
C21   C     C_R   0.621650 0.934849 0.464484 -0.177163
H8    H     H_    0.716663 0.885220 0.449547 0.169424
C22   C     C_R   0.621761 0.064337 0.463437 -0.171057
H9    H     H_    0.716967 0.113316 0.448425 0.170101
C23   C     C_R   0.500422 0.128676 0.487200 -0.050914
C24   C     C_R   0.377703 0.064338 0.499189 0.054608
C25   C     C_3   0.264373 0.076941 0.565141 -0.449095
C26   C     C_3   0.265899 0.935107 0.570289 0.132581
H10   H     H_    0.296108 0.126125 0.618876 0.242186
H11   H     H_    0.170082 0.114244 0.542847 0.186012
H12   H     H_    0.170819 0.890201 0.554050 0.104839
C27   C     C_R   0.916486 0.499759 0.570488 0.269523
N1    N     N_R   0.857140 0.500860 0.500530 -0.121837
C28   C     C_R   0.940094 0.490472 0.430244 -0.131267
H13   H     H_    0.895952 0.484604 0.373863 0.168435
C29   C     C_R   0.083817 0.490602 0.430224 -0.110312
H14   H     H_    0.146831 0.484856 0.373664 0.175010
N2    N     N_R   0.142780 0.500820 0.500530 -0.118845
C30   C     C_R   0.059021 0.498925 0.570536 0.198009
C31   C     C_3   0.053442 0.595854 0.634868 -0.460527
C32   C     C_3   0.899940 0.597810 0.634179 -0.453460
H15   H     H_    0.085727 0.557972 0.691604 0.224920
H16   H     H_    0.103498 0.684332 0.613765 0.229433
H17   H     H_    0.844771 0.562648 0.690775 0.242192
H18   H     H_    0.860466 0.687441 0.612170 0.215690
N3    N     N_R   0.661111 0.361183 0.751849 0.208573
O9    O     O_R   0.777079 0.348303 0.781618 -0.360068
O10   O     O_R   0.627858 0.279917 0.699192 -0.361632
N4    N     N_R   0.794118 0.505467 0.086116 0.214398
O11   O     O_R   0.782333 0.445147 0.019630 -0.379000
O12   O     O_R   0.911630 0.506083 0.114990 -0.349499
N5    N     N_R   0.308750 0.891752 0.646796 0.221846
O13   O     O_R   0.216755 0.852166 0.702011 -0.396809
O14   O     O_R   0.430931 0.914484 0.666040 -0.354930
N6    N     N_R   0.370998 0.762008 0.131244 0.211473
O15   O     O_R   0.247909 0.771992 0.166866 -0.361592
O16   O     O_R   0.413457 0.844674 0.077562 -0.334111

loop_
_geom_bond_atom_site_label_1
_geom_bond_atom_site_label_2
_geom_bond_distance
_ccdc_geom_bond_type
C32   H18   1.112264 S    
O4    Zn2   1.954406 S    
N4    O12   1.301286 A    
C13   C14   1.392572 A    
N3    O10   1.301638 A    
C14   C15   1.415112 A    
C22   H9    1.083396 S    
C20   C21   1.402978 A    
C12   H1    1.083820 S    
C14   N4    1.436849 S    
Zn2   O8    1.979545 S    
C15   C17   1.463091 S    
C27   C30   1.406805 A    
C28   C29   1.418408 A    
Zn1   O7    1.954406 S    
C9    C10   1.385130 A    
C8    C16   1.449851 S    
C25   H11   1.111665 S    
Zn1   N2    2.013318 S    
C24   C25   1.495071 S    
C27   N1    1.362253 A    
C32   H17   1.110592 S    
C22   C23   1.401781 A    
C7    C8    1.400286 A    
C16   C17   1.338229 D    
N5    O14   1.302389 A    
C19   C26   1.504400 S    
N1    C28   1.367468 A    
C12   C18   1.396260 A    
C29   H14   1.080177 S    
C25   C26   1.519311 S    
C21   C22   1.384593 A    
C31   C32   1.516302 S    
O4    C2    1.292012 A    
O3    Zn1   1.979545 S    
O1    Zn1   1.995693 S    
C10   H5    1.080240 S    
Zn2   O6    1.995694 S    
C19   C20   1.391337 A    
C6    N3    1.440438 S    
O8    C4    1.289569 A    
N4    O11   1.300176 A    
O2    C1    1.284278 A    
N5    O13   1.300090 A    
C29   N2    1.369563 A    
C5    C10   1.402479 A    
O7    C4    1.293951 A    
N2    C30   1.363906 A    
C31   H15   1.110187 S    
O3    C2    1.292419 A    
C13   C18   1.395768 A    
C23   C24   1.390320 A    
C9    H4    1.083669 S    
C11   N6    1.441514 S    
C26   N5    1.466133 S    
N3    O9    1.301581 A    
C13   H2    1.084110 S    
Zn2   N1    2.014355 S    
C21   H8    1.083405 S    
C30   C31   1.489083 S    
C1    C20   1.415926 S    
N6    O16   1.301569 A    
C8    C9    1.391785 A    
C26   H12   1.112160 S    
O1    C1    1.284120 A    
Zn1   O5    1.995065 S    
O5    C3    1.283002 A    
C3    C23   1.415980 S    
C31   H16   1.109607 S    
C11   C15   1.417077 A    
C7    H7    1.080983 S    
C4    C18   1.448959 S    
C2    C5    1.450329 S    
C11   C12   1.392143 A    
C17   H3    1.086777 S    
C16   H6    1.086795 S    
C5    C6    1.411975 A    
O2    Zn2   1.995064 S    
C27   C32   1.489755 S    
C28   H13   1.081075 S    
C6    C7    1.392812 A    
C25   H10   1.113002 S    
N6    O15   1.301637 A    
C19   C24   1.362989 A    
O6    C3    1.284925 A    
