data_mof_unit_19938.cif
_audit_creation_date              2012-12-10T18:22:11-0500
_audit_creation_method            fapswitch 2.2
_symmetry_space_group_name_H-M    P1
_symmetry_Int_Tables_number       1
_space_group_crystal_system       triclinic
_cell_length_a                    14.959308
_cell_length_b                    14.015534
_cell_length_c                    15.746453
_cell_angle_alpha                 90.260625
_cell_angle_beta                  90.357042
_cell_angle_gamma                 90.041295
_cell_volume                      3301.34450999

loop_
_atom_site_label
_atom_site_type_symbol
_atom_type_description
_atom_site_fract_x
_atom_site_fract_y
_atom_site_fract_z
_atom_type_partial_charge
C1    C     C_R   0.326843 0.499894 0.500938 0.920789
C2    C     C_R   0.906345 0.422317 0.539756 -0.105006
C3    C     C_R   0.953379 0.487776 0.488382 -0.187823
C4    C     C_R   0.499948 0.499809 0.338232 0.877659
C5    C     C_R   0.907218 0.554507 0.436335 -0.014043
C6    C     C_R   0.953075 0.348660 0.582495 0.385796
C7    C     C_R   0.046173 0.348700 0.583752 0.460144
C8    C     C_R   0.093495 0.422264 0.542812 -0.195906
C9    C     C_R   0.046847 0.488586 0.491260 -0.019266
C10   C     C_R   0.093793 0.557798 0.444363 0.112317
C11   C     C_R   0.048733 0.621325 0.391605 -0.341936
C12   C     C_3   0.572684 0.579313 0.949881 0.509833
C13   C     C_R   0.956027 0.618487 0.384827 0.566094
C14   C     C_R   0.186528 0.430832 0.550893 0.495212
C15   C     C_R   0.231357 0.498757 0.501874 -0.190596
C16   C     C_R   0.673156 0.499900 0.499449 0.868336
C17   C     C_R   0.185825 0.562306 0.450028 -0.310203
C18   C     C_R   0.563959 0.798713 0.544791 -0.025370
C19   C     C_R   0.563837 0.201867 0.544961 -0.049317
C20   C     C_R   0.435576 0.797423 0.455400 0.017694
C21   C     C_R   0.435757 0.202011 0.455153 0.025364
C22   C     C_R   0.432933 0.898286 0.454467 -0.175666
C23   C     C_3   0.570040 0.583705 0.051053 0.856648
C24   C     C_R   0.433530 0.101121 0.453669 -0.176096
C25   C     C_R   0.498980 0.949412 0.499853 0.009854
C26   C     C_R   0.499008 0.050594 0.499812 0.014623
C27   C     C_R   0.565079 0.899271 0.545673 0.065537
C28   C     C_R   0.564950 0.101327 0.545843 0.062997
C29   C     C_R   0.365904 0.948892 0.409904 0.419852
C30   C     C_R   0.368091 0.049905 0.407028 0.409974
C31   C     C_R   0.630352 0.050660 0.591427 -0.200247
C32   C     C_R   0.630453 0.950528 0.591291 -0.187033
C33   C     C_R   0.500154 0.500206 0.661794 0.873065
C34   C     C_1   0.502491 0.501364 0.825725 0.222175
C35   C     C_3   0.406236 0.524128 0.049420 0.101763
C36   C     C_3   0.520465 0.397440 0.047031 -0.004332
C37   C     C_3   0.533849 0.401263 0.949746 0.363790
C38   C     C_3   0.406443 0.523787 0.950314 0.226803
C39   C     C_1   0.501312 0.500777 0.750519 -0.168481
C40   C     C_3   0.503254 0.501397 0.082979 -0.106868
C41   C     C_3   0.503544 0.501764 0.917434 -0.133231
C42   C     C_3   0.260690 0.490323 0.904512 -0.327045
C43   C     C_3   0.532094 0.243783 0.900589 -0.259700
C44   C     C_3   0.106392 0.201113 0.569209 -0.159286
C45   C     C_1   0.501727 0.499908 0.174373 0.134332
C46   C     C_3   0.245796 0.418761 0.683467 -0.187648
C47   C     C_3   0.920331 0.655292 0.248531 -0.225474
C48   C     C_3   0.225453 0.889131 0.417388 -0.273846
C49   C     C_3   0.330984 0.107433 0.277375 -0.273173
C50   C     C_3   0.588104 0.750620 0.081582 -0.116367
C51   C     C_3   0.706039 0.498508 0.094711 -0.248586
C52   C     C_1   0.500722 0.499499 0.249542 -0.181381
C53   C     C_R   0.813715 0.554056 0.436044 0.370227
C54   C     C_R   0.768850 0.498267 0.496514 -0.309012
C55   C     C_R   0.814849 0.435774 0.551086 0.385099
H1    H     H_    0.222522 0.613991 0.412669 0.173717
H2    H     H_    0.459107 0.353580 0.057910 0.180498
H3    H     H_    0.606231 0.392605 0.934929 0.152518
H4    H     H_    0.386342 0.595499 0.926722 0.111577
H5    H     H_    0.232584 0.523082 0.962894 0.151083
H6    H     H_    0.215511 0.431296 0.884982 0.202054
H7    H     H_    0.262009 0.542943 0.851875 0.150766
H8    H     H_    0.557656 0.218374 0.962963 0.191754
H9    H     H_    0.588108 0.253876 0.855380 0.160059
H10   H     H_    0.487727 0.187465 0.874108 0.191872
H11   H     H_    0.143298 0.144044 0.603112 0.182816
H12   H     H_    0.085473 0.673998 0.355555 0.160652
H13   H     H_    0.148732 0.224667 0.515286 0.162179
H14   H     H_    0.042833 0.169673 0.544867 0.144592
H15   H     H_    0.285362 0.485550 0.676845 0.109013
H16   H     H_    0.283420 0.371067 0.726868 0.218815
H17   H     H_    0.180188 0.434480 0.713421 0.152995
H18   H     H_    0.880682 0.704810 0.208506 0.199460
H19   H     H_    0.892249 0.582358 0.238904 0.153018
H20   H     H_    0.990705 0.658158 0.226284 0.130866
H21   H     H_    0.196319 0.959489 0.435011 0.188398
H22   H     H_    0.242091 0.847664 0.475522 0.141638
H23   H     H_    0.614000 0.758990 0.579786 0.142515
H24   H     H_    0.173528 0.848627 0.381801 0.191686
H25   H     H_    0.338164 0.036505 0.246105 0.200875
H26   H     H_    0.394750 0.148158 0.273305 0.137457
H27   H     H_    0.279444 0.147841 0.241616 0.189348
H28   H     H_    0.568291 0.323906 0.141719 0.342008
H29   H     H_    0.307901 0.612128 0.070180 0.325495
H30   H     H_    0.638699 0.751209 0.030152 0.172834
H31   H     H_    0.622084 0.751065 0.144519 0.189537
H32   H     H_    0.548560 0.817278 0.076482 0.155315
H33   H     H_    0.701557 0.454325 0.036743 0.231896
H34   H     H_    0.613793 0.242035 0.580075 0.157910
H35   H     H_    0.688136 0.459865 0.153457 0.211231
H36   H     H_    0.777772 0.517108 0.101841 0.165112
H37   H     H_    0.494445 0.692212 0.930881 0.340407
H38   H     H_    0.699056 0.608331 0.932683 0.378589
H39   H     H_    0.711447 0.576281 0.361426 0.328266
H40   H     H_    0.721024 0.429750 0.636933 0.334733
H41   H     H_    0.859257 0.254365 0.584712 0.352999
H42   H     H_    0.386210 0.756128 0.420668 0.174465
H43   H     H_    0.386336 0.242871 0.420495 0.172065
H44   H     H_    0.681523 0.088488 0.627100 0.155702
H45   H     H_    0.681682 0.913164 0.626894 0.149722
H46   H     H_    0.359979 0.467085 0.072099 0.141154
N1    N     N_R   0.500070 0.750030 0.500040 -0.117017
N2    N     N_R   0.500070 0.249970 0.500040 -0.114798
O1    O     O_R   0.367860 0.580280 0.500020 -0.642850
O2    O     O_3   0.482179 0.328609 0.909311 -0.551651
O3    O     O_3   0.090050 0.276502 0.626776 -0.537967
O4    O     O_3   0.234598 0.371748 0.604706 -0.568833
O5    O     O_3   0.913554 0.684973 0.333992 -0.548687
O6    O     O_3   0.300684 0.899978 0.364783 -0.596751
O7    O     O_3   0.302684 0.098268 0.362192 -0.608781
O8    O     O_3   0.590654 0.347739 0.086474 -0.817196
O9    O     O_3   0.373236 0.611123 0.081377 -0.703206
O10   O     O_3   0.528850 0.671801 0.075807 -0.574874
O11   O     O_3   0.657727 0.584118 0.089891 -0.654748
O12   O     O_R   0.367860 0.419720 0.500020 -0.582862
O13   O     O_3   0.553399 0.668753 0.912128 -0.766166
O14   O     O_3   0.658585 0.553315 0.921919 -0.786642
O15   O     O_3   0.767715 0.609093 0.377596 -0.693028
O16   O     O_3   0.772879 0.391212 0.618382 -0.737963
O17   O     O_3   0.910354 0.273499 0.621410 -0.691635
O18   O     O_R   0.500020 0.580310 0.377140 -0.596949
O19   O     O_R   0.500020 0.419690 0.377140 -0.634281
O20   O     O_R   0.632160 0.580270 0.499980 -0.597329
O21   O     O_R   0.632160 0.419730 0.499980 -0.612415
O22   O     O_R   0.500010 0.580240 0.622850 -0.613805
O23   O     O_R   0.500010 0.419760 0.622850 -0.599777
O24   O     O_3   0.346681 0.452400 0.919435 -0.546071
Zn1   Zn    Zn3+2 0.500020 0.607200 0.499990 0.969244
Zn2   Zn    Zn3+2 0.500020 0.392800 0.499990 0.972337

loop_
_geom_bond_atom_site_label_1
_geom_bond_atom_site_label_2
_ccdc_geom_bond_type
C49   H27   S    
C22   C29   A    
C42   H6    S    
C11   C13   A    
C48   H21   S    
C44   H11   S    
C38   O24   S    
C43   H8    S    
C7    C8    A    
C55   O16   S    
C53   C54   A    
C12   C23   S    
H29   O9    S    
C30   O7    S    
C3    C9    A    
C48   H24   S    
C5    C53   A    
C36   C37   S    
C16   O20   A    
C24   C26   A    
N1    Zn1   S    
C2    C55   A    
C51   H35   S    
C18   N1    A    
C20   N1    A    
C10   C17   A    
C23   C40   S    
C43   O2    S    
C49   H26   S    
C50   H30   S    
C51   H36   S    
C19   N2    A    
C20   H42   S    
C8    C9    A    
C22   C25   A    
O21   Zn2   S    
O22   Zn1   S    
C1    C15   S    
C31   H44   S    
C9    C10   A    
C42   H7    S    
O19   Zn2   S    
C46   H17   S    
C37   H3    S    
C18   H23   S    
C48   O6    S    
C2    C6    A    
C34   C41   S    
H38   O14   S    
C13   O5    S    
C6    O17   S    
C11   H12   S    
C43   H9    S    
C16   C54   S    
C40   C45   S    
C51   O11   S    
C34   C39   T    
C36   C40   S    
C35   C38   S    
C47   H18   S    
O18   Zn1   S    
C36   H2    S    
C1    O1    A    
C53   O15   S    
C45   C52   T    
H40   O16   S    
C25   C26   A    
C32   H45   S    
C48   H22   S    
C37   O2    S    
C29   C30   A    
C19   H34   S    
C23   O10   S    
N2    Zn2   S    
C31   C32   A    
O1    Zn1   S    
C43   H10   S    
C46   O4    S    
C36   O8    S    
C33   O22   A    
C7    O3    S    
C4    O19   A    
C44   H14   S    
C33   C39   S    
C19   C28   A    
H37   O13   S    
C17   H1    S    
C46   H16   S    
C42   O24   S    
C38   C41   S    
C50   H32   S    
C14   O4    S    
C4    C52   S    
H28   O8    S    
C44   H13   S    
C42   H5    S    
C3    C5    A    
C12   C41   S    
O12   Zn2   S    
C29   O6    S    
C15   C17   A    
C54   C55   A    
C8    C14   A    
C27   C32   A    
C5    C13   A    
H41   O17   S    
C28   C31   A    
C18   C27   A    
C47   H19   S    
C20   C22   A    
C35   H46   S    
C51   H33   S    
C6    C7    A    
C44   O3    S    
C25   C27   A    
C26   C28   A    
O23   Zn2   S    
C49   H25   S    
C50   O10   S    
C35   C40   S    
C16   O21   A    
C47   H20   S    
C23   O11   S    
C21   H43   S    
H39   O15   S    
O20   Zn1   S    
C33   O23   A    
C4    O18   A    
C2    C3    A    
C37   C41   S    
C24   C30   A    
C46   H15   S    
C10   C11   A    
C50   H31   S    
C38   H4    S    
C21   N2    A    
C47   O5    S    
C21   C24   A    
C14   C15   A    
C12   O14   S    
C1    O12   A    
C35   O9    S    
C49   O7    S    
C12   O13   S    
