data_mof_unit_43201.cif
_audit_creation_date              2012-12-10T19:48:34-0500
_audit_creation_method            fapswitch 2.2
_symmetry_space_group_name_H-M    P1
_symmetry_Int_Tables_number       1
_space_group_crystal_system       triclinic
_cell_length_a                    10.872559
_cell_length_b                    10.67829
_cell_length_c                    9.425751
_cell_angle_alpha                 87.778589
_cell_angle_beta                  91.166052
_cell_angle_gamma                 88.783704
_cell_volume                      1093.01854962

loop_
_atom_site_label
_atom_site_type_symbol
_atom_type_description
_atom_site_fract_x
_atom_site_fract_y
_atom_site_fract_z
_atom_type_partial_charge
C1    C     C_R   0.500218 0.259587 0.502888 0.864412
C2    C     C_3   0.402615 0.050793 0.425094 -0.387187
C3    C     C_3   0.500575 0.876948 0.491123 -0.156195
C4    C     C_3   0.499422 0.123053 0.508877 -0.156199
C5    C     C_3   0.396965 0.955944 0.552949 0.602068
C6    C     C_3   0.603032 0.044057 0.447051 0.602109
C7    C     C_3   0.582470 0.571841 0.048101 0.824085
C8    C     C_3   0.417531 0.428158 0.951899 0.824082
C9    C     C_3   0.478156 0.612018 0.943929 -0.187292
C10   C     C_3   0.521845 0.387982 0.056071 -0.187275
C11   C     C_3   0.605422 0.461094 0.953372 -0.241793
C12   C     C_R   0.499780 0.740413 0.497112 0.864412
C13   C     C_3   0.394578 0.538905 0.046628 -0.241820
C14   C     C_R   0.262424 0.503347 0.498179 0.871233
C15   C     C_R   0.737576 0.496653 0.501821 0.871240
C16   C     C_R   0.217443 0.835468 0.195161 -0.083221
C17   C     C_R   0.782550 0.164531 0.804843 -0.083166
C18   C     C_R   0.182331 0.752559 0.304758 -0.107051
C19   C     C_R   0.817665 0.247439 0.695245 -0.107063
C20   C     C_R   0.108683 0.650251 0.274620 0.171556
C21   C     C_R   0.891316 0.349748 0.725382 0.171553
C22   C     C_R   0.071169 0.632374 0.133065 -0.050580
C23   C     C_R   0.871601 0.496597 0.504397 -0.284822
C24   C     C_R   0.928833 0.367626 0.866937 -0.050584
C25   C     C_R   0.107284 0.715003 0.023773 -0.146949
C26   C     C_R   0.892718 0.284998 0.976230 -0.146967
C27   C     C_R   0.180751 0.816452 0.054866 -0.102489
C28   C     C_R   0.819245 0.183549 0.945137 -0.102463
C29   C     C_R   0.928679 0.568765 0.398546 0.593808
C30   C     C_R   0.071321 0.431234 0.601454 0.593802
C31   C     C_2   0.479517 0.046475 0.792431 0.448894
C32   C     C_2   0.520464 0.953528 0.207570 0.448837
C33   C     C_R   0.128399 0.503402 0.495603 -0.284818
C34   C     C_R   0.943487 0.428407 0.609019 -0.195891
C35   C     C_R   0.056513 0.571591 0.390981 -0.195899
C36   C     C_3   0.492185 0.028924 0.636444 -0.085292
C37   C     C_3   0.507812 0.971078 0.363557 -0.085289
C38   C     C_3   0.597381 0.949208 0.574907 -0.387149
Cu1   Cu    Cu3+1 0.500030 0.499990 0.643150 1.048544
Cu2   Cu    Cu3+1 0.499970 0.500010 0.356850 1.048539
F1    F     F_    0.671803 0.647255 0.103166 -0.567632
F2    F     F_    0.328202 0.352740 0.896833 -0.567657
F3    F     F_    0.859147 0.643113 0.306280 -0.589377
F4    F     F_    0.140853 0.356886 0.693721 -0.589389
F5    F     F_    0.289944 0.909132 0.609027 -0.680601
F6    F     F_    0.710053 0.090868 0.390972 -0.680589
H1    H     H_    0.208466 0.880859 0.970530 0.176913
H2    H     H_    0.790919 0.229867 0.586849 0.168911
H3    H     H_    0.012636 0.555184 0.108055 0.143470
H4    H     H_    0.987372 0.444816 0.891945 0.143475
H5    H     H_    0.078158 0.700432 0.915261 0.160020
H6    H     H_    0.921847 0.299569 0.084741 0.160021
H7    H     H_    0.678086 0.906284 0.633924 0.184068
H8    H     H_    0.321911 0.093718 0.366080 0.184070
H9    H     H_    0.467939 0.965114 0.863030 0.071310
H10   H     H_    0.531952 0.034890 0.136972 0.071310
H11   H     H_    0.791528 0.119143 0.029474 0.176931
H12   H     H_    0.460193 0.706426 0.893396 0.177342
H13   H     H_    0.539806 0.293573 0.106604 0.177349
H14   H     H_    0.693559 0.432113 0.907959 0.175926
H15   H     H_    0.306440 0.567887 0.092041 0.175925
H16   H     H_    0.271062 0.915998 0.219039 0.143780
H17   H     H_    0.728922 0.084002 0.780967 0.143808
H18   H     H_    0.209073 0.770131 0.413155 0.168914
N1    N     N_3   0.500090 0.499970 0.858290 -0.235835
N2    N     N_3   0.499910 0.500030 0.141710 -0.235843
O1    O     O_R   0.500060 0.316850 0.620870 -0.509912
O2    O     O_2   0.517205 0.849753 0.158677 -0.507301
O3    O     O_R   0.499940 0.683150 0.379130 -0.509924
O4    O     O_R   0.500000 0.316860 0.379090 -0.602132
O5    O     O_R   0.500000 0.683140 0.620910 -0.602129
O6    O     O_R   0.319670 0.500010 0.620890 -0.494307
O7    O     O_R   0.680330 0.499990 0.379110 -0.494304
O8    O     O_R   0.319620 0.500010 0.379110 -0.610477
O9    O     O_R   0.680380 0.499990 0.620890 -0.610474
O10   O     O_2   0.482862 0.150249 0.841321 -0.507380

loop_
_geom_bond_atom_site_label_1
_geom_bond_atom_site_label_2
_ccdc_geom_bond_type
C15   O9    A    
C12   O3    A    
C4    C36   S    
C8    C13   S    
C14   C33   S    
C28   H11   S    
C7    C11   S    
Cu2   O4    S    
C23   C29   A    
C19   C21   A    
C8    F2    S    
C5    C36   S    
Cu2   O7    S    
C9    H12   S    
C9    C13   S    
C3    C12   S    
C33   C35   A    
C20   C35   S    
C3    C38   S    
C22   C25   A    
Cu1   O6    S    
C6    C38   S    
Cu1   O9    S    
C32   O2    D    
C16   C27   A    
C15   C23   S    
C8    N1    S    
Cu2   N2    S    
C29   F3    S    
C32   H10   S    
Cu1   N1    S    
C30   F4    S    
Cu1   O1    S    
C13   N2    S    
C10   N2    S    
C24   H4    S    
Cu2   O3    S    
C30   C34   A    
C4    C6    S    
C2    H8    S    
Cu1   Cu2   S    
C19   H2    S    
C21   C34   S    
C5    F5    S    
C2    C4    S    
C25   H5    S    
C26   H6    S    
C23   C34   A    
C6    C37   S    
C32   C37   S    
C22   H3    S    
C16   C18   A    
C15   O7    A    
C12   O5    A    
C20   C22   A    
C2    C5    S    
C11   H14   S    
C14   O8    A    
C27   H1    S    
C7    C9    S    
C6    F6    S    
C30   C33   A    
C17   C28   A    
C14   O6    A    
C24   C26   A    
C3    C5    S    
C1    O1    A    
C25   C27   A    
C29   C35   A    
C26   C28   A    
C1    O4    A    
C1    C4    S    
C36   C38   S    
C10   H13   S    
C17   H17   S    
C7    N2    S    
C2    C37   S    
C18   H18   S    
C31   O10   D    
C38   H7    S    
C17   C19   A    
Cu2   O8    S    
C18   C20   A    
C7    F1    S    
C9    N1    S    
C10   C11   S    
C13   H15   S    
C3    C37   S    
C8    C10   S    
C21   C24   A    
Cu1   O5    S    
C31   C36   S    
C31   H9    S    
C16   H16   S    
C11   N1    S    
