data_mof_unit_44341.cif
_audit_creation_date              2012-12-10T19:22:55-0500
_audit_creation_method            fapswitch 2.2
_symmetry_space_group_name_H-M    P1
_symmetry_Int_Tables_number       1
_space_group_crystal_system       triclinic
_cell_length_a                    10.864718
_cell_length_b                    17.740059
_cell_length_c                    16.433461
_cell_angle_alpha                 90.892893
_cell_angle_beta                  101.961008
_cell_angle_gamma                 90.089503
_cell_volume                      3098.21618677

loop_
_atom_site_label
_atom_site_type_symbol
_atom_type_description
_atom_site_fract_x
_atom_site_fract_y
_atom_site_fract_z
_atom_type_partial_charge
C1    C     C_R   0.501308 0.355139 0.499520 0.831593
C2    C     C_R   0.501345 0.644843 0.500750 0.865725
C3    C     C_R   0.504480 0.885699 0.498800 -0.025261
C4    C     C_R   0.503982 0.114159 0.500160 -0.021236
C5    C     C_1   0.502858 0.966171 0.498760 0.032952
C6    C     C_1   0.502666 0.033669 0.499271 0.030312
C7    C     C_R   0.583494 0.548585 0.840189 0.266496
C8    C     C_R   0.448999 0.437373 0.163847 0.255491
C9    C     C_R   0.580678 0.546240 0.754073 0.072994
C10   C     C_R   0.450571 0.440014 0.249855 0.032953
C11   C     C_R   0.420366 0.453768 0.731486 -0.034584
C12   C     C_R   0.548993 0.559509 0.264279 -0.032398
C13   C     C_R   0.421268 0.451538 0.817879 0.343484
C14   C     C_R   0.550920 0.560183 0.178450 0.319709
C15   C     C_R   0.501446 0.500740 0.873200 -0.072362
C16   C     C_R   0.499266 0.498953 0.126704 -0.069727
C17   C     C_1   0.499966 0.500377 0.962692 0.035118
C18   C     C_1   0.499429 0.500006 0.037061 0.027731
C19   C     C_R   0.260290 0.500798 0.466869 0.785098
C20   C     C_R   0.738744 0.503242 0.532899 0.774541
C21   C     C_2   0.121002 0.508420 0.450831 0.194778
C22   C     C_2   0.877067 0.509473 0.549527 0.217098
C23   C     C_2   0.070347 0.548165 0.506717 0.289137
C24   C     C_2   0.931835 0.549483 0.497209 0.288910
C25   C     C_R   0.525990 0.848845 0.574780 -0.329271
C26   C     C_R   0.519157 0.151615 0.428911 -0.327816
C27   C     C_R   0.531554 0.769935 0.577280 0.482872
C28   C     C_R   0.524584 0.230510 0.428361 0.470183
C29   C     C_R   0.504298 0.727935 0.501831 -0.186597
C30   C     C_R   0.504329 0.272016 0.498655 -0.189425
C31   C     C_R   0.481984 0.765857 0.425757 -0.367180
C32   C     C_R   0.488734 0.233449 0.569946 -0.384656
C33   C     C_R   0.487053 0.844657 0.423755 0.499713
C34   C     C_R   0.493081 0.154622 0.572173 0.500222
Cu1   Cu    Cu3+1 0.499990 0.499980 0.580420 0.974655
Cu2   Cu    Cu3+1 0.500010 0.500020 0.419580 0.954957
H1    H     H_    0.538481 0.881558 0.632173 0.161234
H2    H     H_    0.527118 0.119451 0.373620 0.163147
H3    H     H_    0.459797 0.734420 0.367480 0.181228
H4    H     H_    0.472569 0.264333 0.624132 0.173791
H5    H     H_    0.643758 0.582165 0.729256 0.162932
H6    H     H_    0.410159 0.393552 0.277309 0.191501
H7    H     H_    0.355984 0.418186 0.688424 0.147959
H8    H     H_    0.585909 0.607497 0.303039 0.163206
N1    N     N_R   0.499970 0.499970 0.701210 -0.224194
N2    N     N_R   0.500030 0.500030 0.298790 -0.224092
O1    O     O_R   0.499990 0.391240 0.567930 -0.598560
O2    O     O_R   0.500010 0.608760 0.432070 -0.595208
O3    O     O_R   0.500000 0.391270 0.432120 -0.552910
O4    O     O_R   0.500000 0.608730 0.567880 -0.520386
O5    O     O_R   0.320680 0.500000 0.542950 -0.521807
O6    O     O_R   0.679320 0.500000 0.457050 -0.539632
O7    O     O_R   0.320690 0.500030 0.407130 -0.605642
O8    O     O_R   0.679310 0.499970 0.592870 -0.602889
O9    O     O_3   0.859113 0.587645 0.431561 -0.752062
H9    H     H_    0.916260 0.613696 0.401144 0.313681
O10   O     O_3   0.145816 0.588463 0.570989 -0.714303
H10   H     H_    0.090582 0.614223 0.603545 0.332001
O11   O     O_3   0.338002 0.405778 0.848297 -0.594607
C35   C     C_3   0.354181 0.328772 0.828744 0.046544
H11   H     H_    0.376035 0.297680 0.888151 0.167907
H12   H     H_    0.433653 0.317415 0.796680 0.106912
C36   C     C_3   0.231506 0.297344 0.776112 -0.351328
H13   H     H_    0.155127 0.303042 0.811497 0.237127
H14   H     H_    0.204910 0.330095 0.718169 0.212009
C37   C     C_3   0.244501 0.214521 0.753076 -0.895457
H15   H     H_    0.317944 0.207948 0.715559 0.277506
H16   H     H_    0.153716 0.193337 0.715639 0.256463
H17   H     H_    0.270027 0.180275 0.810068 0.258003
O12   O     O_3   0.590621 0.623965 0.143634 -0.601526
C38   C     C_3   0.722636 0.631082 0.168293 0.030096
H18   H     H_    0.769095 0.584785 0.139482 0.152426
H19   H     H_    0.754704 0.629624 0.237203 0.143151
C39   C     C_3   0.762350 0.706830 0.138675 -0.311271
H20   H     H_    0.732830 0.709379 0.069833 0.237091
H21   H     H_    0.714724 0.753066 0.166459 0.218759
C40   C     C_3   0.904374 0.718546 0.163565 -0.920633
H22   H     H_    0.936365 0.715590 0.232182 0.251468
H23   H     H_    0.929386 0.774880 0.143130 0.265299
H24   H     H_    0.953450 0.674911 0.133260 0.265436
O13   O     O_3   0.951196 0.477211 0.619488 -0.622153
C41   C     C_3   0.926117 0.398922 0.622226 0.076033
H25   H     H_    0.014126 0.368164 0.619464 0.153728
H26   H     H_    0.853455 0.376711 0.569148 0.100636
C42   C     C_3   0.887235 0.380743 0.704060 -0.297152
H27   H     H_    0.966000 0.394878 0.756967 0.228269
H28   H     H_    0.804709 0.415356 0.710727 0.238475
C43   C     C_3   0.852869 0.297546 0.707497 -0.968813
H29   H     H_    0.771670 0.282889 0.656464 0.258767
H30   H     H_    0.826383 0.286053 0.767855 0.255321
H31   H     H_    0.934188 0.261500 0.701716 0.262157
O14   O     O_3   0.038104 0.467698 0.388948 -0.645144
C44   C     C_3   0.077425 0.459952 0.312514 0.077462
H32   H     H_    0.006571 0.423499 0.271579 0.166481
H33   H     H_    0.166801 0.428376 0.318797 0.156099
C45   C     C_3   0.079240 0.535860 0.268800 -0.380508
H34   H     H_    0.985300 0.562670 0.261493 0.215587
H35   H     H_    0.149742 0.574633 0.306486 0.222930
C46   C     C_3   0.111003 0.525084 0.183200 -0.860767
H36   H     H_    0.202553 0.495989 0.188685 0.266940
H37   H     H_    0.118116 0.580777 0.154692 0.254109
H38   H     H_    0.036481 0.491294 0.141886 0.252194
O15   O     O_3   0.555082 0.733255 0.652827 -0.585766
C47   C     C_3   0.678377 0.749304 0.698190 0.051372
H39   H     H_    0.685576 0.726228 0.761455 0.202854
H40   H     H_    0.696963 0.810863 0.707197 0.126943
C48   C     C_3   0.779457 0.711743 0.658318 -0.403799
H41   H     H_    0.756352 0.651223 0.645219 0.229782
H42   H     H_    0.782579 0.739203 0.598451 0.208133
C49   C     C_3   0.909075 0.718376 0.715429 -0.842914
H43   H     H_    0.934439 0.778591 0.729211 0.251820
H44   H     H_    0.980437 0.692331 0.684547 0.254943
H45   H     H_    0.910154 0.688685 0.774594 0.269328
O16   O     O_3   0.540416 0.267279 0.357321 -0.597146
C50   C     C_3   0.662970 0.254873 0.342770 0.068046
H46   H     H_    0.662807 0.272645 0.278218 0.178308
H47   H     H_    0.689569 0.194244 0.345694 0.124839
C51   C     C_3   0.761668 0.302229 0.402612 -0.382402
H48   H     H_    0.735838 0.362744 0.396892 0.255617
H49   H     H_    0.764445 0.284782 0.467559 0.188970
C52   C     C_3   0.892532 0.292058 0.384090 -0.873495
H50   H     H_    0.920964 0.231961 0.390261 0.249525
H51   H     H_    0.961541 0.326333 0.429066 0.274114
H52   H     H_    0.893749 0.310798 0.320104 0.255936
O17   O     O_3   0.463049 0.882211 0.348762 -0.604379
C53   C     C_3   0.561000 0.869278 0.305227 0.055964
H53   H     H_    0.523055 0.881414 0.238646 0.176823
H54   H     H_    0.593029 0.809569 0.307103 0.131612
C54   C     C_3   0.672709 0.922361 0.337204 -0.371487
H55   H     H_    0.639950 0.981771 0.332243 0.224544
H56   H     H_    0.712952 0.910914 0.403674 0.211362
C55   C     C_3   0.775607 0.911768 0.287422 -0.900394
H57   H     H_    0.811557 0.853075 0.293153 0.260176
H58   H     H_    0.854829 0.951045 0.311724 0.261955
H59   H     H_    0.738545 0.923900 0.220741 0.255061
O18   O     O_3   0.475120 0.116475 0.641793 -0.612631
C56   C     C_3   0.580381 0.126940 0.708103 0.031533
H60   H     H_    0.549374 0.113972 0.766687 0.173638
H61   H     H_    0.615445 0.186247 0.715003 0.129229
C57   C     C_3   0.686919 0.072824 0.698966 -0.351730
H62   H     H_    0.650426 0.013979 0.692710 0.223340
H63   H     H_    0.722256 0.086431 0.642078 0.208755
C58   C     C_3   0.796179 0.078620 0.773947 -0.905965
H64   H     H_    0.835564 0.136746 0.780494 0.260738
H65   H     H_    0.871555 0.038921 0.765338 0.258399
H66   H     H_    0.764221 0.063785 0.831696 0.255759
O19   O     O_3   0.667547 0.598095 0.888473 -0.742420
H67   H     H_    0.661057 0.594795 0.947451 0.340316
O20   O     O_3   0.396460 0.374220 0.119621 -0.725496
H68   H     H_    0.400572 0.378715 0.060341 0.343064

loop_
_geom_bond_atom_site_label_1
_geom_bond_atom_site_label_2
_ccdc_geom_bond_type
C58   H66   S    
C37   H16   S    
O9    H9    S    
C36   H14   S    
C9    N1    A    
C44   H32   S    
C10   H6    S    
C14   O12   S    
C43   H30   S    
Cu1   Cu2   S    
C57   C58   S    
Cu1   O1    S    
C51   H49   S    
C47   H40   S    
O16   C50   S    
C42   H27   S    
C24   O9    S    
C56   H61   S    
C53   H53   S    
C39   H21   S    
C35   C36   S    
C19   C21   S    
C57   H63   S    
C5    C6    T    
C42   C43   S    
C37   H17   S    
C27   C29   A    
C3    C33   A    
C50   H46   S    
C45   C46   S    
C58   H65   S    
C35   H12   S    
C27   O15   S    
C51   H48   S    
C1    C30   S    
C52   H52   S    
Cu2   O7    S    
C2    O4    A    
C25   H1    S    
C49   H43   S    
O19   H67   S    
C55   H57   S    
C50   H47   S    
C39   C40   S    
C45   H35   S    
C10   N2    A    
C23   C24   S    
C31   C33   A    
Cu2   N2    S    
O12   C38   S    
Cu2   O6    S    
C54   C55   S    
C19   O7    A    
C7    C15   A    
C37   H15   S    
C36   C37   S    
O11   C35   S    
C8    C16   A    
Cu1   O8    S    
C48   H42   S    
C47   H39   S    
O13   C41   S    
C7    O19   S    
C42   H28   S    
C56   C57   S    
C4    C34   A    
C39   H20   S    
C22   O13   S    
C3    C25   A    
C57   H62   S    
C20   O8    A    
C38   H19   S    
C1    O1    A    
C53   C54   S    
C2    O2    A    
C40   H22   S    
C35   H11   S    
C51   C52   S    
C32   C34   A    
C19   O5    A    
C46   H36   S    
C43   H31   S    
C34   O18   S    
C48   H41   S    
C50   C51   S    
C45   H34   S    
Cu1   O4    S    
C33   O17   S    
C17   C18   T    
C40   H23   S    
C16   C18   S    
C11   H7    S    
C49   H45   S    
C52   H50   S    
C28   O16   S    
C55   H58   S    
C12   N2    A    
C46   H37   S    
C12   C14   A    
C44   C45   S    
C41   H26   S    
C21   C23   D    
Cu1   O5    S    
O17   C53   S    
C48   C49   S    
C22   C24   D    
C11   N1    A    
C4    C6    S    
Cu1   N1    S    
C54   H55   S    
C40   H24   S    
C23   O10   S    
C53   H54   S    
C26   C28   A    
C8    C10   A    
C26   H2    S    
C20   C22   S    
O18   C56   S    
C3    C5    S    
C38   C39   S    
C4    C26   A    
C15   C17   S    
C13   O11   S    
C25   C27   A    
C41   C42   S    
C56   H60   S    
C9    H5    S    
C20   O6    A    
C13   C15   A    
C8    O20   S    
C38   H18   S    
C29   C31   A    
O20   H68   S    
C30   C32   A    
C11   C13   A    
O10   H10   S    
C55   H59   S    
C28   C30   A    
O14   C44   S    
C31   H3    S    
Cu2   O2    S    
C14   C16   A    
C32   H4    S    
C49   H44   S    
C52   H51   S    
C36   H13   S    
C7    C9    A    
C46   H38   S    
C2    C29   S    
C43   H29   S    
C44   H33   S    
C41   H25   S    
O15   C47   S    
C12   H8    S    
C1    O3    A    
C47   C48   S    
Cu2   O3    S    
C58   H64   S    
C54   H56   S    
C21   O14   S    
