data_mof_unit_12601.cif
_audit_creation_date              2012-12-11T18:34:57-0500
_audit_creation_method            fapswitch 2.2
_symmetry_space_group_name_H-M    P1
_symmetry_Int_Tables_number       1
_space_group_crystal_system       triclinic
_cell_length_a                    8.230156
_cell_length_b                    14.342265
_cell_length_c                    22.828048
_cell_angle_alpha                 93.056635
_cell_angle_beta                  89.297162
_cell_angle_gamma                 91.71795
_cell_volume                      2689.40509975

loop_
_atom_site_label
_atom_site_type_symbol
_atom_type_description
_atom_site_fract_x
_atom_site_fract_y
_atom_site_fract_z
_atom_type_partial_charge
Ba1   Ba    Ba6+2 0.846250 0.544220 0.470860 1.662959
Ba2   Ba    Ba6+2 0.343570 0.455860 0.529140 1.654557
C1    C     C_3   0.623270 0.889037 0.308756 -0.355669
C2    C     C_R   0.083891 0.601329 0.938571 -0.024177
C3    C     C_R   0.034757 0.600042 0.879042 0.592443
C4    C     C_3   0.083625 0.741289 0.303827 0.318072
C5    C     C_R   0.893318 0.453097 0.889575 0.573605
C6    C     C_R   0.947124 0.450368 0.948099 -0.016779
C7    C     C_R   0.041930 0.525181 0.972851 -0.051351
C8    C     C_R   0.174546 0.676989 0.964721 -0.078215
C9    C     C_R   0.221784 0.676979 0.023489 -0.073728
C10   C     C_R   0.182719 0.600538 0.057958 -0.017717
C11   C     C_R   0.093892 0.524044 0.032275 -0.051413
C12   C     C_3   0.606841 0.791799 0.332006 0.350258
C13   C     C_R   0.908544 0.373777 0.982424 -0.074574
C14   C     C_R   0.964498 0.371183 0.039896 -0.075818
C15   C     C_R   0.057170 0.446245 0.065705 -0.025042
C16   C     C_3   0.059554 0.766693 0.240809 -0.308893
C17   C     C_R   0.114263 0.444701 0.124002 0.592125
C18   C     C_R   0.229250 0.599606 0.117565 0.572816
C19   C     C_2   0.746361 0.501295 0.773044 -0.109599
C20   C     C_3   0.708159 0.493254 0.707723 -0.068370
C21   C     C_1   0.993403 0.529607 0.688023 -0.008890
C22   C     C_2   0.030295 0.537942 0.744937 -0.140358
C23   C     C_3   0.514047 0.327714 0.353928 0.290940
C24   C     C_2   0.900700 0.522931 0.791636 0.204528
C25   C     C_R   0.399027 0.559110 0.230466 -0.097895
C26   C     C_R   0.441894 0.564427 0.289899 -0.019316
C27   C     C_R   0.190052 0.485253 0.315703 0.037998
C28   C     C_3   0.202122 0.744480 0.676289 0.496356
C29   C     C_R   0.141821 0.483693 0.256389 -0.103391
C30   C     C_R   0.245027 0.521819 0.212500 0.190567
C31   C     C_2   0.860055 0.484420 0.670603 -0.260800
C32   C     C_R   0.702940 0.934354 0.523779 -0.028752
C33   C     C_R   0.511950 0.800933 0.496402 0.056872
C34   C     C_3   0.496365 0.304388 0.288485 -0.361090
C35   C     C_R   0.367107 0.770027 0.469700 -0.270531
C36   C     C_R   0.266307 0.832311 0.444160 0.019981
C37   C     C_R   0.312791 0.926315 0.442425 -0.156248
C38   C     C_R   0.459742 0.959245 0.467712 -0.014387
C39   C     C_R   0.559896 0.897352 0.496319 -0.038564
C40   C     C_3   0.070070 0.786144 0.716503 -0.397998
C41   C     C_R   0.647716 0.090173 0.492673 -0.020286
C42   C     C_R   0.750741 0.028789 0.520054 0.001509
C43   C     C_R   0.690240 0.186465 0.494214 0.027984
C44   C     C_R   0.830849 0.220071 0.522418 -0.287646
C45   C     C_3   0.255783 0.143281 0.672056 0.315891
C46   C     C_R   0.939557 0.159318 0.544476 0.035131
C47   C     C_R   0.899990 0.063288 0.543787 -0.142896
C48   C     C_R   0.504416 0.054046 0.465903 -0.043888
C49   C     C_3   0.021682 0.252743 0.405084 0.306579
C50   C     C_3   0.036033 0.148443 0.390558 -0.373899
C51   C     C_3   0.679092 0.681304 0.645899 0.313210
C52   C     C_3   0.662655 0.714317 0.710291 -0.407779
C53   C     C_3   0.948496 0.287890 0.753316 -0.157746
C54   C     C_3   0.263422 0.884442 0.619352 -0.168452
C55   C     C_3   0.234115 0.101325 0.731614 -0.387485
C56   C     C_3   0.721334 0.244508 0.687957 0.531247
C57   C     C_3   0.656587 0.155468 0.655977 -0.349426
C58   C     C_R   0.336125 0.529532 0.331933 -0.302038
H1    H     H_    0.669491 0.792991 0.374901 0.076559
H2    H     H_    0.610789 0.614059 0.638094 0.036183
H3    H     H_    0.753674 0.909226 0.303293 0.142447
H4    H     H_    0.742880 0.675568 0.737976 0.076720
H5    H     H_    0.536184 0.703226 0.725966 0.102518
H6    H     H_    0.475326 0.774806 0.338313 -0.058867
H7    H     H_    0.394452 0.348148 0.372307 0.021042
H8    H     H_    0.603397 0.386825 0.360269 0.064059
H9    H     H_    0.404256 0.246926 0.281002 0.139378
H10   H     H_    0.457051 0.366279 0.265983 0.066517
H11   H     H_    0.614739 0.282344 0.269323 0.131429
H12   H     H_    0.002187 0.729482 0.737849 0.111496
H13   H     H_    0.561871 0.890432 0.265773 0.126958
H14   H     H_    0.062504 0.702670 0.211512 0.112034
H15   H     H_    0.298289 0.086554 0.641184 0.032190
H16   H     H_    0.346232 0.201712 0.675739 0.100100
H17   H     H_    0.225198 0.157309 0.766711 0.127936
H18   H     H_    0.123129 0.055312 0.732052 0.133222
H19   H     H_    0.789029 0.285904 0.655140 -0.034410
H20   H     H_    0.758934 0.111362 0.641753 0.099514
H21   H     H_    0.584819 0.172282 0.617299 0.091174
H22   H     H_    0.581306 0.113664 0.686107 0.080195
H23   H     H_    0.984588 0.826405 0.691184 0.108412
H24   H     H_    0.933203 0.310357 0.064328 0.123757
H25   H     H_    0.836414 0.314713 0.964669 0.123770
H26   H     H_    0.290331 0.737071 0.041755 0.122987
H27   H     H_    0.486161 0.583870 0.198573 0.124448
H28   H     H_    0.208694 0.736928 0.939877 0.119559
H29   H     H_    0.155860 0.550440 0.757787 0.110321
H30   H     H_    0.647730 0.492912 0.804472 0.120388
H31   H     H_    0.024519 0.452630 0.244841 0.142219
H32   H     H_    0.372177 0.532048 0.377417 0.081696
H33   H     H_    0.212439 0.722809 0.309388 -0.043201
H34   H     H_    0.893137 0.268440 0.413627 0.001657
H35   H     H_    0.856731 0.445463 0.628468 0.065274
H36   H     H_    0.328900 0.697309 0.471002 0.084309
H37   H     H_    0.233702 0.973621 0.421803 0.076722
H38   H     H_    0.981859 0.016677 0.563691 0.061314
H39   H     H_    0.860118 0.294266 0.524767 0.059700
H40   H     H_    0.779361 0.891054 0.548259 0.105121
H41   H     H_    0.424787 0.099171 0.443921 0.091107
H42   H     H_    0.939792 0.798877 0.236016 0.146730
H43   H     H_    0.157075 0.816766 0.227610 0.127691
H44   H     H_    0.268895 0.694805 0.702107 0.005424
H45   H     H_    0.096773 0.272499 0.444140 0.050532
H46   H     H_    0.125259 0.832935 0.751658 0.109849
H47   H     H_    0.696389 0.789747 0.716302 0.132871
H48   H     H_    0.566067 0.940372 0.340120 0.073044
H49   H     H_    0.340683 0.058989 0.740878 0.074177
H50   H     H_    0.778300 0.180385 0.765250 0.210544
H51   H     H_    0.026849 0.260050 0.786973 0.110415
H52   H     H_    0.882328 0.345537 0.773722 0.150106
H53   H     H_    0.024610 0.314384 0.717016 0.126364
H54   H     H_    0.003276 0.679848 0.312043 0.101176
H55   H     H_    0.383062 0.847876 0.694415 0.169933
H56   H     H_    0.959650 0.126870 0.352122 0.134432
H57   H     H_    0.368338 0.929597 0.606504 0.086234
H58   H     H_    0.169053 0.929083 0.640364 0.073597
H59   H     H_    0.214015 0.848534 0.578861 0.122149
H60   H     H_    0.995077 0.107744 0.428109 0.063300
H61   H     H_    0.164638 0.132200 0.380151 0.115068
H62   H     H_    0.809382 0.673854 0.634658 0.014837
N1    N     N_R   0.942224 0.525626 0.854377 -0.420611
N2    N     N_R   0.195448 0.522034 0.150624 -0.422253
N3    N     N_2   0.832883 0.216967 0.732212 -0.414201
N4    N     N_2   0.317571 0.817531 0.659784 -0.399063
O1    O     O_2   0.901900 0.448470 0.362340 -0.464789
O2    O     O_2   0.279178 0.167868 0.554027 -0.523807
O3    O     O_3   0.108326 0.178112 0.654186 -0.613894
O4    O     O_3   0.142240 0.449440 0.433360 -0.494066
O5    O     O_3   0.549340 0.612930 0.525560 -0.478248
O6    O     O_2   0.396530 0.270940 0.479440 -0.461653
O7    O     O_3   0.567351 0.248534 0.380435 -0.646839
O8    O     O_2   0.383077 0.423514 0.706086 -0.478147
O9    O     O_3   0.589895 0.291837 0.715569 -0.605341
O10   O     O_2   0.072736 0.666002 0.849506 -0.615628
O11   O     O_2   0.803008 0.390179 0.870185 -0.612019
O12   O     O_3   0.613916 0.749019 0.612738 -0.623584
O13   O     O_2   0.093855 0.373475 0.150545 -0.598515
O14   O     O_2   0.298368 0.668843 0.140017 -0.613612
O15   O     O_3   0.645560 0.619080 0.391970 -0.491935
O16   O     O_2   0.779740 0.555718 0.291054 -0.501335
O17   O     O_3   0.074746 0.300065 0.356465 -0.628192
O18   O     O_3   0.678926 0.727288 0.291850 -0.598119
O19   O     O_2   0.793170 0.729090 0.520590 -0.462439
O20   O     O_3   0.052800 0.667320 0.419180 -0.485748
O21   O     O_2   0.929173 0.832938 0.448277 -0.488857
O22   O     O_3   0.042612 0.817542 0.341605 -0.605280
O23   O     O_2   0.287790 0.551560 0.637690 -0.477578
O24   O     O_3   0.047460 0.550640 0.566640 -0.451981
O25   O     O_3   0.544140 0.380990 0.608030 -0.468021
O26   O     O_3   0.131874 0.701423 0.625111 -0.612542
O27   O     O_3   0.640350 0.387150 0.474440 -0.476024
O28   O     O_3   0.136890 0.332750 0.580830 -0.461065
P1    P     P_3+3 0.074990 0.420800 0.372080 0.991256
P2    P     P_3+3 0.618830 0.715330 0.538180 1.010580
P3    P     P_3+3 0.072168 0.788165 0.414020 0.958361
P4    P     P_3+3 0.114710 0.579280 0.627920 1.003996
P5    P     P_3+3 0.121883 0.209631 0.580951 0.941659
P6    P     P_3+3 0.637545 0.614817 0.315357 0.944502
P7    P     P_3+3 0.576221 0.271921 0.456316 0.940298
P8    P     P_3+3 0.556823 0.399370 0.684540 0.973786

loop_
_geom_bond_atom_site_label_1
_geom_bond_atom_site_label_2
_ccdc_geom_bond_type
C42   C47   A    
Ba2   O24   S    
C3    O10   D    
C44   H39   S    
C28   N4    S    
C53   H52   S    
C54   H57   S    
C30   N2    S    
Ba1   O19   S    
C23   H7    S    
C57   H22   S    
C26   P6    S    
C19   C24   D    
C22   H29   S    
C57   H21   S    
C5    C6    A    
O20   P3    S    
C43   C44   A    
C32   C39   A    
C8    H28   S    
H55   N4    S    
C52   H47   S    
C45   O3    S    
O5    P2    S    
C33   C35   A    
C22   C24   S    
C45   H16   S    
C51   H62   S    
C36   C37   A    
C20   P8    S    
C37   H37   S    
C9    H26   S    
C13   C14   A    
C21   P4    S    
C14   H24   S    
Ba1   Ba2   S    
C16   H42   S    
Ba1   P1    S    
C43   P7    S    
O6    P7    D    
C4    H54   S    
C7    C11   A    
Ba2   O4    S    
C47   H38   S    
O19   P2    D    
O17   P1    S    
C55   H49   S    
C53   N3    S    
C14   C15   A    
C21   C31   D    
Ba2   O6    S    
C21   C22   D    
O4    P1    S    
C54   N4    S    
O18   P6    S    
C23   O7    S    
O23   P4    D    
C34   H11   S    
C49   H45   S    
C27   P1    S    
O25   P8    S    
Ba2   O23   S    
C50   H56   S    
Ba2   O28   S    
C19   C20   S    
Ba1   O20   S    
C23   H8    S    
O22   P3    S    
C33   C39   A    
C31   H35   S    
C34   H10   S    
O26   P4    S    
C19   H30   S    
C26   C58   A    
C4    C16   S    
C46   P5    S    
C44   C46   A    
C17   N2    Am   
C49   C50   S    
C55   H17   S    
C32   C42   A    
C33   P2    S    
Ba1   O4    S    
C32   H40   S    
O1    P1    D    
C37   C38   A    
C52   H5    S    
C6    C7    A    
C53   H53   S    
C56   C57   S    
C51   C52   S    
C12   H1    S    
C51   O12   S    
C35   H36   S    
O27   P7    S    
Ba1   P2    S    
C25   H27   S    
C41   C42   A    
C35   C36   A    
C45   C55   S    
C4    O22   S    
C50   H61   S    
O15   P6    S    
C28   O26   S    
C29   C30   A    
C27   C58   A    
Ba2   P4    S    
C4    H33   S    
C10   C18   A    
C40   H12   S    
Ba2   O5    S    
C12   H6    S    
Ba1   O24   S    
Ba1   O27   S    
C41   C43   A    
C1    C12   S    
C56   H19   S    
C56   N3    S    
C51   H2    S    
C50   H60   S    
C17   O13   D    
C46   C47   A    
Ba2   O27   S    
C49   O17   S    
C56   O9    S    
O9    P8    S    
C54   H59   S    
C24   N1    S    
C2    C8    A    
O21   P3    D    
O3    P5    S    
C34   H9    S    
C5    O11   D    
H50   N3    S    
O12   P2    S    
Ba2   O25   S    
C20   C31   S    
C38   C39   A    
O24   P4    S    
C53   H51   S    
C25   C30   A    
C54   H58   S    
C55   H18   S    
C40   H23   S    
Ba1   O1    S    
C36   P3    S    
O16   P6    D    
C2    C3    A    
Ba1   O5    S    
O7    P7    S    
C57   H20   S    
C9    C10   A    
C41   C48   A    
C1    H3    S    
C1    H48   S    
C6    C13   A    
C3    N1    Am   
C29   H31   S    
C13   H25   S    
C12   O18   S    
C18   O14   D    
C45   H15   S    
O28   P5    S    
C27   C29   A    
C23   C34   S    
C52   H4    S    
C38   C48   A    
C15   C17   A    
C16   H43   S    
C1    H13   S    
C18   N2    Am   
Ba1   O15   S    
C8    C9    A    
C49   H34   S    
C11   C15   A    
C40   H46   S    
O8    P8    D    
C10   C11   A    
C48   H41   S    
C16   H14   S    
C28   H44   S    
C25   C26   A    
C28   C40   S    
C2    C7    A    
C58   H32   S    
O2    P5    D    
C5    N1    Am   
