data_mof_unit_8530.cif
_audit_creation_date              2012-10-26T18:54:53-0400
_audit_creation_method            fapswitch 2.2
_symmetry_space_group_name_H-M    P1
_symmetry_Int_Tables_number       1
_space_group_crystal_system       triclinic
_cell_length_a                    10.773594
_cell_length_b                    9.539222
_cell_length_c                    10.815816
_cell_angle_alpha                 90.084752
_cell_angle_beta                  90.288415
_cell_angle_gamma                 90.000263
_cell_volume                      1111.54455121

loop_
_atom_site_label
_atom_site_type_symbol
_atom_type_description
_atom_site_fract_x
_atom_site_fract_y
_atom_site_fract_z
_atom_type_partial_charge
C1    C     C_R   0.262673 0.499966 0.500178 0.488417
C2    C     C_R   0.483454 0.625572 0.936506 0.020771
C3    C     C_R   0.485367 0.499613 0.129150 0.009699
C4    C     C_R   0.485718 0.499716 0.870726 0.002474
C5    C     C_R   0.469451 0.373105 0.064097 -0.112684
C6    C     C_R   0.469622 0.373156 0.935221 -0.114368
C7    C     C_3   0.568486 0.749011 0.930627 -0.212476
C8    C     C_3   0.567973 0.749260 0.071003 -0.248586
C9    C     C_R   0.065595 0.468750 0.610928 0.006216
C10   C     C_R   0.935179 0.475934 0.612324 0.020031
C11   C     C_R   0.871294 0.499998 0.500188 -0.050249
C12   C     C_R   0.737264 0.499963 0.500172 0.490933
C13   C     C_R   0.128524 0.500035 0.500238 -0.055011
C14   C     C_R   0.934156 0.524275 0.388110 0.004617
C15   C     C_R   0.064569 0.531575 0.389594 0.013684
C16   C     C_2   0.137875 0.427456 0.723115 0.325394
C17   C     C_2   0.864048 0.464831 0.730065 0.336033
C18   C     C_2   0.861901 0.535659 0.270387 0.299308
C19   C     C_2   0.135822 0.573477 0.277631 0.377146
C20   C     C_R   0.422872 0.074180 0.422876 0.454314
C21   C     C_R   0.577267 0.074436 0.576973 0.453679
C22   C     C_R   0.422848 0.925553 0.422897 0.451520
C23   C     C_R   0.577417 0.925826 0.576806 0.449147
C24   C     C_R   0.497819 0.499911 0.262281 0.518618
C25   C     C_R   0.498160 0.500032 0.737714 0.515777
C26   C     C_R   0.483192 0.625555 0.063695 0.054959
Cu1   Cu    Cu3+1 0.500000 0.640660 0.500000 1.100385
Cu2   Cu    Cu3+1 0.500000 0.359340 0.500000 1.109014
F1    F     F_    0.345278 0.143617 0.345264 -0.565260
F2    F     F_    0.655021 0.144103 0.654446 -0.574306
F3    F     F_    0.345286 0.855845 0.345250 -0.556696
F4    F     F_    0.655832 0.856406 0.653555 -0.577803
H1    H     H_    0.463019 0.273800 0.112063 0.187586
H2    H     H_    0.225590 0.526827 0.258941 0.114707
H3    H     H_    0.463259 0.273873 0.886881 0.174781
H4    H     H_    0.660491 0.722473 0.890656 0.215768
H5    H     H_    0.521326 0.842698 0.111093 0.189031
H6    H     H_    0.522343 0.842460 0.889781 0.187796
H7    H     H_    0.659811 0.723521 0.112345 0.156766
H8    H     H_    0.227916 0.473986 0.741522 0.090702
H9    H     H_    0.773071 0.416226 0.731008 0.147179
H10   H     H_    0.770295 0.582549 0.269977 0.091098
N1    N     N_R   0.500000 0.852070 0.500000 -0.302514
N2    N     N_R   0.500000 0.147940 0.500000 -0.299501
O1    O     O_R   0.319640 0.618740 0.499990 -0.461822
O2    O     O_2   0.903901 0.515662 0.826050 -0.415350
O3    O     O_2   0.901487 0.486866 0.173873 -0.411982
O4    O     O_2   0.097423 0.664804 0.208307 -0.393469
O5    O     O_R   0.680360 0.618740 0.500010 -0.464542
O6    O     O_R   0.319620 0.381170 0.499990 -0.458360
O7    O     O_R   0.680380 0.381170 0.500010 -0.463618
O8    O     O_R   0.499990 0.618810 0.319660 -0.479023
O9    O     O_R   0.500010 0.618810 0.680340 -0.470355
O10   O     O_R   0.499960 0.381240 0.319650 -0.473910
O11   O     O_R   0.500040 0.381240 0.680350 -0.482632
O12   O     O_2   0.099910 0.336887 0.793067 -0.413032

loop_
_geom_bond_atom_site_label_1
_geom_bond_atom_site_label_2
_ccdc_geom_bond_type
C24   O8    A    
C2    C4    A    
C11   C12   S    
C16   O12   D    
C8    H7    S    
Cu1   N1    S    
C8    H5    S    
C21   N2    A    
C8    C26   S    
C1    O6    A    
C14   C18   S    
C22   N1    A    
Cu2   O11   S    
C10   C11   A    
C18   O3    D    
Cu1   O1    S    
Cu1   O9    S    
C4    C25   S    
C7    C8    S    
C2    C26   A    
C25   O11   A    
C23   F4    S    
C15   C19   S    
C1    O1    A    
C3    C24   S    
C7    H4    S    
C16   H8    S    
C9    C10   A    
C11   C14   A    
C7    H6    S    
C20   C22   A    
C12   O5    A    
C20   F1    S    
C13   C15   A    
C21   C23   A    
C5    C6    A    
Cu2   O7    S    
C17   H9    S    
C1    C13   S    
C22   F3    S    
C10   C17   S    
C24   O10   A    
Cu1   O5    S    
C12   O7    A    
C23   N1    A    
C17   O2    D    
Cu1   O8    S    
Cu2   N2    S    
C4    C6    A    
C21   F2    S    
Cu1   Cu2   S    
Cu2   O10   S    
C19   O4    D    
C9    C13   A    
C18   H10   S    
C20   N2    A    
C14   C15   A    
Cu2   O6    S    
C9    C16   S    
C3    C26   A    
C6    H3    S    
C2    C7    S    
C25   O9    A    
C3    C5    A    
C19   H2    S    
C5    H1    S    
