data_mof_unit_40527.cif
_audit_creation_date              2013-03-05T15:48:04-0500
_audit_creation_method            fapswitch 2.2
_symmetry_space_group_name_H-M    P1
_symmetry_Int_Tables_number       1
_space_group_crystal_system       triclinic
_cell_length_a                    8.75102
_cell_length_b                    19.306088
_cell_length_c                    27.242492
_cell_angle_alpha                 96.902923
_cell_angle_beta                  92.682357
_cell_angle_gamma                 85.57981
_cell_volume                      4552.3331407

loop_
_atom_site_label
_atom_site_type_symbol
_atom_site_description
_atom_site_fract_x
_atom_site_fract_y
_atom_site_fract_z
_atom_type_partial_charge
P1    P     P_3+3 0.082480 0.557670 0.610090 0.473329
O1    O     O_2   0.913240 0.537010 0.617740 -0.339315
O2    O     O_3   0.145240 0.536960 0.557560 -0.408593
O3    O     O_3   0.669960 0.410470 0.588880 -0.305995
O4    O     O_2   0.712887 0.491270 0.672473 -0.376489
O5    O     O_3   0.087025 0.646514 0.634123 -0.588478
O6    O     O_3   0.725936 0.358528 0.682651 -0.500133
C1    C     C_3   0.659003 0.260800 0.723319 -0.498172
H1    H     H_    0.781532 0.253220 0.734721 0.157187
P2    P     P_3+3 0.635220 0.340300 0.462910 0.602500
P3    P     P_3+3 0.127306 0.283402 0.558518 0.469688
O7    O     O_2   0.812980 0.329910 0.477500 -0.325281
O8    O     O_3   0.078660 0.374870 0.564770 -0.352330
O9    O     O_2   0.018335 0.252292 0.517123 -0.402216
O10   O     O_3   0.596772 0.292517 0.402640 -0.586375
O11   O     O_3   0.077988 0.244452 0.610361 -0.501309
C2    C     C_3   0.179582 0.262661 0.650974 0.336272
H2    H     H_    0.296881 0.268010 0.638801 -0.037649
C3    C     C_3   0.196918 0.204262 0.685516 -0.548457
H3    H     H_    0.237161 0.154142 0.664086 0.250454
C4    C     C_3   0.153827 0.309629 0.413538 0.292852
H4    H     H_    0.273188 0.306129 0.429116 0.061131
H5    H     H_    0.075094 0.330790 0.443243 0.138065
C5    C     C_3   0.109350 0.235876 0.390588 -0.440302
H6    H     H_    0.991954 0.241354 0.375464 0.218158
Ba1   Ba    Ba6+2 0.854000 0.466860 0.523710 1.631703
C6    C     C_3   0.989865 0.695182 0.611857 0.193423
H7    H     H_    0.876594 0.674949 0.600226 0.072064
C7    C     C_3   0.971205 0.761208 0.650164 -0.538794
H8    H     H_    0.942542 0.808291 0.631354 0.234834
H9    H     H_    0.082114 0.769907 0.670872 0.233247
C8    C     C_3   0.624156 0.311339 0.354569 0.233089
C9    C     C_3   0.581897 0.246613 0.315646 -0.617102
H10   H     H_    0.463018 0.236163 0.322765 0.164518
P4    P     P_3+3 0.107220 0.442270 0.389900 0.564236
O12   O     O_2   0.276450 0.462960 0.382230 -0.295754
O13   O     O_3   0.044470 0.462980 0.442430 -0.387055
O14   O     O_3   0.519740 0.589470 0.411120 -0.359341
O15   O     O_3   0.145833 0.351442 0.374516 -0.568407
P5    P     P_3+3 0.063794 0.716884 0.434410 0.567482
O16   O     O_3   0.632420 0.583650 0.524140 -0.435532
O17   O     O_3   0.111040 0.625070 0.435230 -0.244086
O18   O     O_2   0.193839 0.747897 0.468444 -0.321207
O19   O     O_3   0.113534 0.744299 0.377029 -0.577374
Ba2   Ba    Ba6+2 0.335820 0.533080 0.476290 1.648911
P6    P     P_3+3 0.629684 0.425597 0.652061 0.495236
C10   C     C_3   0.649258 0.295590 0.674092 0.271152
H11   H     H_    0.526201 0.305237 0.663817 -0.044615
O20   O     O_3   0.557280 0.416300 0.475860 -0.372739
C11   C     C_3   0.488581 0.646423 0.627026 0.438913
H12   H     H_    0.366916 0.645120 0.613896 0.107948
H13   H     H_    0.548587 0.593461 0.620646 0.089399
C12   C     C_3   0.497003 0.672301 0.682285 -0.677803
H14   H     H_    0.458647 0.728953 0.688380 0.235697
H15   H     H_    0.617970 0.665770 0.695968 0.213055
P7    P     P_3+3 0.554073 0.672013 0.538993 0.471656
O21   O     O_2   0.376710 0.670070 0.522470 -0.298603
O22   O     O_3   0.562565 0.693708 0.603119 -0.565242
H16   H     H_    0.284955 0.217808 0.714907 0.206498
C13   C     C_3   0.041591 0.711031 0.332997 0.176787
H17   H     H_    0.928607 0.697469 0.340493 0.092772
C14   C     C_3   0.022952 0.763342 0.292226 -0.498499
H18   H     H_    0.033982 0.817058 0.311652 0.186760
P8    P     P_3+3 0.541106 0.589600 0.346291 0.563809
C15   C     C_3   0.495374 0.733774 0.358643 0.484890
O23   O     O_2   0.416083 0.542078 0.323570 -0.330689
O24   O     O_3   0.475666 0.671571 0.324829 -0.540181
H19   H     H_    0.445142 0.848115 0.359705 0.203169
C16   C     C_3   0.424741 0.799072 0.334937 -0.616093
H20   H     H_    0.299154 0.798980 0.332662 0.223861
C17   C     C_R   0.095069 0.473912 0.184433 0.574767
O25   O     O_2   0.192345 0.456733 0.214970 -0.603028
N1    N     N_R   0.948390 0.498898 0.199633 -0.155239
C18   C     C_R   0.844143 0.519825 0.162826 0.581783
C19   C     C_2   0.778113 0.544717 0.269619 -0.158961
C20   C     C_3   0.724303 0.538708 0.320311 0.135748
C21   C     C_1   0.977004 0.480830 0.340674 0.241610
C22   C     C_2   0.999002 0.465654 0.291810 -0.237735
C23   C     C_2   0.904617 0.503827 0.252521 0.151416
C24   C     C_R   0.038868 0.504713 0.100484 -0.050847
C25   C     C_R   0.136260 0.469769 0.133718 -0.127491
C26   C     C_R   0.271296 0.431903 0.115155 -0.059473
C27   C     C_R   0.893571 0.531566 0.116055 -0.055907
C28   C     C_2   0.855245 0.522717 0.355515 -0.386025
H21   H     H_    0.071671 0.419241 0.280253 0.184861
C29   C     C_2   0.329203 0.487203 0.641995 -0.375990
C30   C     C_R   0.275163 0.489953 0.986575 0.067423
C31   C     C_R   0.026373 0.550853 0.968942 0.076829
C32   C     C_R   0.171582 0.521199 0.952881 0.081691
C33   C     C_R   0.426518 0.472402 0.971591 -0.216261
C34   C     C_R   0.468035 0.470628 0.922309 -0.064478
C35   C     C_R   0.361260 0.496874 0.886730 -0.093285
C36   C     C_R   0.214611 0.523911 0.902835 -0.085764
C37   C     C_R   0.114708 0.557885 0.869660 -0.037703
C38   C     C_R   0.166025 0.565704 0.822135 0.566300
N2    N     N_R   0.287012 0.522800 0.801816 -0.157356
C39   C     C_R   0.398211 0.501192 0.836456 0.544582
C40   C     C_2   0.420893 0.464936 0.726422 -0.096685
C41   C     C_3   0.425972 0.439201 0.671720 0.074322
C42   C     C_1   0.198646 0.516550 0.659462 0.242001
C43   C     C_2   0.168152 0.520511 0.708462 -0.268623
C44   C     C_2   0.297865 0.503990 0.746643 0.096745
O26   O     O_2   0.531893 0.492269 0.825398 -0.615373
C45   C     C_R   0.226447 0.479000 0.034640 0.057125
C46   C     C_R   0.084371 0.511668 0.051494 0.068637
C47   C     C_R   0.986838 0.551139 0.019807 0.017903
C48   C     C_R   0.309934 0.433010 0.065257 -0.072443
H22   H     H_    0.516353 0.445640 0.747938 0.189030
H23   H     H_    0.516345 0.459782 0.998183 0.166663
O27   O     O_2   0.706869 0.526701 0.169895 -0.566566
C49   C     C_R   0.801121 0.572308 0.085587 -0.133982
H24   H     H_    0.709709 0.579802 0.248135 0.220404
H25   H     H_    0.694793 0.598235 0.099565 0.192128
C50   C     C_R   0.922799 0.576312 0.932714 -0.124393
C51   C     C_R   0.966356 0.582536 0.884605 0.099042
O28   O     O_2   0.110242 0.614056 0.800616 -0.602078
C52   C     C_R   0.852527 0.588250 0.040566 -0.108280
H26   H     H_    0.803644 0.589440 0.940167 0.126877
H27   H     H_    0.377971 0.503968 0.609833 0.129815
C53   C     C_R   0.417828 0.303744 0.525569 -0.364624
C54   C     C_R   0.553156 0.281770 0.501665 0.392717
C55   C     C_R   0.603297 0.210215 0.495720 -0.265464
C56   C     C_R   0.520272 0.159966 0.514078 0.071249
C57   C     C_R   0.378573 0.182966 0.536636 0.022634
C58   C     C_R   0.325101 0.254424 0.539878 0.145751
C59   C     C_R   0.600640 0.051414 0.552236 -0.197999
C60   C     C_R   0.644087 0.979502 0.551821 -0.097839
C61   C     C_R   0.676035 0.938105 0.505957 0.092841
C62   C     C_R   0.664291 0.971546 0.462851 -0.207752
C63   C     C_R   0.614514 0.043026 0.463152 -0.106758
C64   C     C_R   0.579644 0.083945 0.508900 0.049211
C65   C     C_R   0.849313 0.831599 0.475856 -0.260034
C66   C     C_R   0.888245 0.758886 0.469205 0.357398
C67   C     C_R   0.655813 0.740276 0.512043 0.124316
C68   C     C_R   0.611573 0.812817 0.516075 -0.222390
C69   C     C_R   0.713170 0.859799 0.500123 0.047100
C70   C     C_R   0.793565 0.716840 0.490922 -0.352691
H28   H     H_    0.581272 0.083013 0.587274 0.214326
H29   H     H_    0.706399 0.193550 0.475877 0.197370
H30   H     H_    0.686235 0.939984 0.427877 0.186576
H31   H     H_    0.924199 0.866239 0.461922 0.158295
H32   H     H_    0.825518 0.664232 0.493590 0.177987
C71   C     C_2   0.722131 0.249666 0.631052 0.973637
O29   O     O_2   0.743760 0.186353 0.630634 -0.666770
O30   O     O_R   0.763173 0.280152 0.590559 -0.695388
H33   H     H_    0.806434 0.243693 0.564331 0.353806
N3    N     N_3   0.208402 0.207594 0.350036 -0.199849
H34   H     H_    0.172736 0.158636 0.335184 0.140464
H35   H     H_    0.190729 0.238975 0.321293 0.177961
C72   C     C_2   0.106973 0.183315 0.426662 1.130082
O31   O     O_2   0.225940 0.161936 0.446189 -0.636933
O32   O     O_R   0.969447 0.155471 0.435485 -0.748341
H36   H     H_    0.983462 0.119037 0.459522 0.320641
C73   C     C_2   0.070788 0.712410 0.568290 0.949315
O33   O     O_2   0.125803 0.768593 0.568025 -0.589345
O34   O     O_R   0.092557 0.661841 0.528576 -0.687274
H37   H     H_    0.017525 0.624789 0.526523 0.295873
N4    N     N_3   0.853439 0.756798 0.685466 -0.193413
H38   H     H_    0.878155 0.711994 0.702987 0.222772
H39   H     H_    0.748235 0.752963 0.666109 0.179441
C74   C     C_2   0.786377 0.326663 0.349636 0.857360
O35   O     O_2   0.845791 0.363607 0.382964 -0.599202
O36   O     O_R   0.867467 0.301389 0.307257 -0.842945
H40   H     H_    0.971310 0.320440 0.306448 0.339273
C75   C     C_2   0.526504 0.375414 0.343590 0.936921
O37   O     O_2   0.541789 0.429787 0.370194 -0.546581
O38   O     O_R   0.428613 0.374658 0.301297 -0.807469
H41   H     H_    0.359475 0.418993 0.299654 0.383754
C76   C     C_2   0.676162 0.178801 0.322104 1.232357
O39   O     O_2   0.768966 0.175412 0.356550 -0.568397
O40   O     O_R   0.654605 0.118015 0.289677 -0.731572
H42   H     H_    0.569153 0.124374 0.263898 0.290926
N5    N     N_3   0.586418 0.257991 0.263123 -0.201219
H43   H     H_    0.474844 0.263535 0.247701 0.201785
H44   H     H_    0.642706 0.302195 0.257580 0.193778
C77   C     C_2   0.593737 0.189971 0.721047 1.112993
O41   O     O_2   0.527836 0.163611 0.683656 -0.661285
O42   O     O_R   0.607065 0.154969 0.763258 -0.755039
H45   H     H_    0.556957 0.108830 0.758067 0.340591
N6    N     N_3   0.403134 0.633028 0.709983 -0.197622
H46   H     H_    0.290387 0.655012 0.708041 0.195331
H47   H     H_    0.439305 0.641026 0.747239 0.166658
N7    N     N_3   0.583840 0.306912 0.762936 -0.158381
H48   H     H_    0.474537 0.324225 0.750459 0.151801
H49   H     H_    0.647788 0.350347 0.772310 0.218847
C78   C     C_2   0.121131 0.641081 0.315372 1.053880
O43   O     O_2   0.157822 0.600410 0.345272 -0.560708
O44   O     O_R   0.140571 0.619465 0.265122 -0.803034
H50   H     H_    0.205586 0.573926 0.259284 0.368584
N8    N     N_3   0.135623 0.750418 0.253302 -0.167689
H51   H     H_    0.242991 0.732688 0.266626 0.195184
H52   H     H_    0.147277 0.797129 0.238399 0.138630
C79   C     C_2   0.868249 0.763820 0.265927 1.145916
O45   O     O_2   0.811910 0.818309 0.251587 -0.627231
O46   O     O_R   0.796636 0.701448 0.253641 -0.820714
H53   H     H_    0.696778 0.708392 0.233807 0.329505
C80   C     C_2   0.660601 0.743801 0.370948 0.819394
O47   O     O_2   0.736322 0.697399 0.388971 -0.694086
O48   O     O_R   0.723752 0.806957 0.365754 -0.829473
H54   H     H_    0.834845 0.808534 0.377204 0.320695
N9    N     N_3   0.416164 0.731896 0.404603 -0.123101
H55   H     H_    0.484185 0.706378 0.430084 0.141245
H56   H     H_    0.402084 0.782865 0.422669 0.110012
C81   C     C_2   0.121786 0.330991 0.677858 0.915366
O49   O     O_2   0.179957 0.353421 0.717703 -0.690713
O50   O     O_R   0.001893 0.369037 0.655788 -0.662027
H57   H     H_    0.975335 0.415805 0.674666 0.347799
N10   N     N_3   0.484651 0.803043 0.286189 -0.158264
H58   H     H_    0.397693 0.826160 0.264408 0.133366
H59   H     H_    0.567725 0.839777 0.290825 0.240402
C82   C     C_2   0.365950 0.384452 0.145436 1.100128
O51   O     O_2   0.308953 0.335385 0.160357 -0.627957
O52   O     O_R   0.520088 0.395984 0.156592 -0.763076
H60   H     H_    0.572412 0.360461 0.177547 0.321932
C83   C     C_2   0.620932 0.435784 0.909979 1.095335
O53   O     O_2   0.733385 0.449781 0.936638 -0.678404
O54   O     O_R   0.634534 0.383229 0.870081 -0.761985
H61   H     H_    0.743888 0.362493 0.866152 0.333936
N11   N     N_3   0.419382 0.379907 0.043802 -0.213763
H62   H     H_    0.382479 0.330716 0.047803 0.127230
H63   H     H_    0.525772 0.385272 0.062392 0.154627
N12   N     N_3   0.856194 0.611288 0.850345 -0.159416
H64   H     H_    0.838446 0.664848 0.862520 0.134663
H65   H     H_    0.751994 0.588658 0.852177 0.152208
C84   C     C_2   0.008040 0.530414 0.724767 1.160886
O55   O     O_2   0.961849 0.490666 0.751635 -0.626210
O56   O     O_R   0.915295 0.588978 0.713908 -0.755140
H66   H     H_    0.815401 0.593981 0.731808 0.322957
C85   C     C_2   0.777409 0.652152 0.021966 0.986171
O57   O     O_2   0.638258 0.664081 0.023622 -0.627358
O58   O     O_R   0.866693 0.699855 0.003891 -0.782949
H67   H     H_    0.802707 0.741350 0.992399 0.336218
C86   C     C_2   0.815794 0.533843 0.406081 1.160961
O59   O     O_2   0.845082 0.587340 0.430382 -0.654666
O60   O     O_R   0.738086 0.485281 0.425803 -0.697378
H68   H     H_    0.679070 0.508199 0.454612 0.387583
C87   C     C_2   0.462651 0.839677 0.537008 1.081537
O61   O     O_2   0.373707 0.877121 0.514062 -0.642030
O62   O     O_R   0.427546 0.825300 0.584064 -0.737460
H69   H     H_    0.330607 0.852531 0.596521 0.350004
C88   C     C_2   0.651505 0.950917 0.600231 1.025248
O63   O     O_2   0.582613 0.982554 0.635171 -0.611460
O64   O     O_R   0.735295 0.888230 0.606530 -0.815951
H70   H     H_    0.721140 0.873737 0.640476 0.334814
N13   N     N_3   0.056857 0.193718 0.709735 -0.173085
H71   H     H_    0.036686 0.235330 0.737557 0.155673
H72   H     H_    0.965639 0.193221 0.683806 0.203183
C89   C     C_2   0.590977 0.070075 0.414390 1.077318
O65   O     O_2   0.656134 0.039591 0.378340 -0.584208
O66   O     O_R   0.489375 0.127815 0.408564 -0.754646
H73   H     H_    0.465542 0.134055 0.372649 0.313271
N14   N     N_3   0.280877 0.133879 0.552087 -0.164170
H74   H     H_    0.276805 0.090607 0.524956 0.166440
H75   H     H_    0.327293 0.116560 0.584879 0.124754
N15   N     N_3   0.371752 0.376579 0.532761 -0.146947
H76   H     H_    0.275735 0.387000 0.509880 0.155083
H77   H     H_    0.349353 0.390096 0.569906 0.113327

loop_
_geom_bond_atom_site_label_1
_geom_bond_atom_site_label_2
_geom_bond_distance
_ccdc_geom_bond_type
C1    H1    1.105989 S    
C7    N4    1.456098 S    
P6    C41   1.875405 S    
N15   H77   1.038142 S    
N13   H72   1.040690 S    
C66   C70   1.400146 A    
N8    H51   1.039278 S    
N2    C44   1.508926 S    
C6    C7    1.550712 S    
N9    H56   1.047031 S    
N9    H55   1.037892 S    
C51   N12   1.437495 S    
C13   C78   1.506422 S    
C38   N2    1.386704 Am   
C60   C88   1.486404 S    
C18   C27   1.413535 A    
O40   H42   1.012374 S    
P2    C54   1.841223 S    
C9    C76   1.516800 S    
C61   C62   1.402539 A    
C20   C28   1.497282 S    
C67   C70   1.381026 A    
O42   H45   1.014815 S    
C56   C57   1.425934 A    
C14   N8    1.468048 S    
C75   O37   1.214400 D    
O3    P6    1.758456 S    
C21   C22   1.347769 D    
C89   O65   1.223804 D    
Ba2   O21   2.830081 S    
C19   H24   1.076885 S    
C36   C37   1.411192 A    
C46   C47   1.429429 A    
C13   C14   1.583507 S    
O34   H37   1.002655 S    
N3    H35   1.045165 S    
O62   H69   1.013173 S    
C84   O55   1.224160 D    
C55   H29   1.081142 S    
C88   O63   1.224648 D    
O16   P7    1.795484 S    
P2    O10   1.814421 S    
N7    H49   1.043571 S    
P3    O9    1.538385 D    
C71   O29   1.221160 D    
O11   C2    1.414474 S    
O64   H70   1.013474 S    
C10   C71   1.516753 S    
N15   H76   1.044080 S    
C40   H22   1.067186 S    
P7    O21   1.597681 D    
C43   C84   1.481085 S    
P1    O1    1.592443 D    
N1    C18   1.398516 Am   
C52   C85   1.484929 S    
C80   O48   1.401703 S    
O56   H66   1.013350 S    
C35   C36   1.416439 A    
O14   Ba2   2.815993 S    
C34   C83   1.484797 S    
Ba1   Ba2   4.776940 S    
C2    C3    1.547573 S    
C4    H4    1.109156 S    
C30   C32   1.413862 A    
P5    O18   1.544702 D    
C71   O30   1.384919 S    
N3    H34   1.046997 S    
C12   H14   1.114201 S    
N6    H47   1.045930 S    
C65   C66   1.410855 A    
C15   O24   1.439307 S    
C11   H13   1.111073 S    
O60   H68   0.998845 S    
C29   H27   1.085834 S    
C33   H23   1.077813 S    
Ba2   O20   2.856803 S    
C7    H8    1.102971 S    
C29   C42   1.318737 D    
C86   O59   1.196350 D    
P5    O19   1.791989 S    
C73   O34   1.377201 S    
O5    C6    1.392578 S    
C56   C64   1.511112 S    
P2    Ba1   3.439551 S    
C6    C73   1.493526 S    
P5    O17   1.791404 S    
O48   H54   1.008584 S    
C75   O38   1.402530 S    
C87   O61   1.222902 D    
N2    C39   1.399141 Am   
N4    H39   1.042520 S    
C76   O40   1.400896 S    
N12   H64   1.049290 S    
C24   C27   1.400507 A    
P1    C42   1.864675 S    
C45   C46   1.420341 A    
C74   O36   1.400873 S    
C43   C44   1.544526 S    
C89   O66   1.391016 S    
C35   C39   1.435381 A    
O30   H33   1.006315 S    
O14   P8    1.784975 S    
C12   H15   1.108709 S    
C4    H5    1.107180 S    
N1    C23   1.498259 S    
C11   C12   1.528313 S    
P8    O24   1.796002 S    
P1    O5    1.763638 S    
C11   O22   1.396495 S    
C10   H11   1.107301 S    
C68   C69   1.434316 A    
C9    H10   1.105076 S    
C5    H6    1.091078 S    
C49   H25   1.084854 S    
C27   C49   1.399342 A    
Ba1   O20   3.026947 S    
N10   H58   1.048524 S    
C34   C35   1.424650 A    
C17   N1    1.399303 Am   
C5    C72   1.496948 S    
C63   C89   1.484706 S    
C22   C23   1.544012 S    
H19   C16   1.115719 S    
O46   H53   1.014250 S    
C21   C28   1.334799 D    
C11   H12   1.108358 S    
O66   H73   1.010277 S    
N5    H43   1.047663 S    
C24   C46   1.434862 A    
P4    C21   1.901915 S    
C32   C36   1.439308 A    
C25   C26   1.421451 A    
C68   C87   1.478777 S    
O7    Ba1   2.829861 S    
O44   H50   1.009804 S    
P1    O2    1.552923 S    
P4    O12   1.592667 D    
P8    O23   1.541665 D    
C2    C81   1.493997 S    
P4    O15   1.763516 S    
C19   C20   1.500040 S    
O6    P6    1.762432 S    
N7    H48   1.043921 S    
C85   O57   1.223643 D    
N11   H63   1.045053 S    
C31   C47   1.443103 A    
P3    O11   1.763182 S    
O3    Ba1   2.816653 S    
C82   O51   1.222996 D    
C4    O15   1.406128 S    
O52   H60   1.013456 S    
C38   O28   1.219790 D    
C65   C69   1.428321 A    
C8    C74   1.487611 S    
C14   H18   1.115152 S    
C79   O46   1.398060 S    
C2    H2    1.109393 S    
P8    C20   1.932010 S    
O12   Ba2   2.796168 S    
O1    Ba1   2.795494 S    
C76   O39   1.216399 D    
C50   H26   1.076786 S    
C26   C48   1.419055 A    
C81   O49   1.222354 D    
N12   H65   1.046787 S    
C29   C41   1.492299 S    
C86   O60   1.372448 S    
C73   O33   1.221083 D    
C54   C55   1.409471 A    
C39   O26   1.215905 D    
N5    H44   1.047125 S    
P2    O7    1.590990 D    
C78   O43   1.213878 D    
C15   C80   1.490861 S    
C22   H21   1.081438 S    
C77   O41   1.222621 D    
C82   O52   1.397505 S    
C61   C69   1.512520 S    
C81   O50   1.389299 S    
C79   O45   1.226030 D    
C37   C38   1.418636 A    
C87   O62   1.396517 S    
C47   C52   1.431655 A    
N4    H38   1.040942 S    
C48   N11   1.437730 S    
O8    Ba1   2.829123 S    
C4    C5    1.555150 S    
C19   C23   1.375090 D    
O13   Ba2   3.032263 S    
C60   C61   1.426954 A    
P4    Ba2   3.423825 S    
C12   N6    1.452770 S    
O38   H41   1.013681 S    
C9    N5    1.476263 S    
N6    H46   1.045173 S    
C1    N7    1.461228 S    
N14   H75   1.044861 S    
C26   C82   1.485454 S    
P5    C66   1.917182 S    
P4    O13   1.552894 S    
C65   H31   1.082876 S    
N11   H62   1.045727 S    
C59   H28   1.082242 S    
C16   N10   1.462956 S    
N8    H52   1.046219 S    
P3    C58   1.852459 S    
O50   H57   1.000494 S    
O2    Ba1   3.031379 S    
N13   H71   1.046577 S    
C24   C25   1.409679 A    
C5    N3    1.463424 S    
O10   C8    1.435840 S    
C18   O27   1.220134 D    
P7    C67   1.882330 S    
C37   C51   1.409016 A    
C1    C77   1.515456 S    
Ba1   O13   2.823682 S    
C50   C51   1.403254 A    
C67   C68   1.416591 A    
C17   C25   1.435515 A    
O4    P6    1.543312 D    
C72   O31   1.213224 D    
C49   C52   1.401811 A    
C3    H16   1.107265 S    
C8    C9    1.593325 S    
N14   H74   1.048423 S    
C3    H3    1.109975 S    
C83   O54   1.397667 S    
C28   C86   1.422999 S    
C62   C63   1.413912 A    
C53   N15   1.425492 S    
O2    Ba2   2.824064 S    
C17   O25   1.217878 D    
C85   O58   1.398924 S    
C40   C44   1.364421 D    
P3    O8    1.774034 S    
C33   C34   1.402978 A    
P1    Ba1   3.423041 S    
C62   H30   1.084213 S    
C74   O35   1.208602 D    
C59   C64   1.400755 A    
O19   C13   1.433259 S    
C59   C60   1.409763 A    
C15   C16   1.557757 S    
C57   N14   1.435506 S    
O54   H61   1.013770 S    
C77   O42   1.398120 S    
C42   C43   1.365516 D    
C84   O56   1.393209 S    
P7    O22   1.746301 S    
C63   C64   1.425571 A    
C72   O32   1.397488 S    
C53   C58   1.398214 A    
C31   C50   1.414703 A    
C80   O47   1.210988 D    
C16   H20   1.097991 S    
C1    C10   1.566470 S    
O36   H40   1.008417 S    
C30   C45   1.440042 A    
C83   O53   1.223032 D    
C7    H9    1.113359 S    
C15   N9    1.464730 S    
C31   C32   1.419027 A    
N10   H59   1.047269 S    
C40   C41   1.514724 S    
C30   C33   1.408523 A    
O58   H67   1.013935 S    
C3    N13   1.457913 S    
O16   Ba2   3.026109 S    
C53   C54   1.390989 A    
C13   H17   1.076790 S    
O32   H36   1.014161 S    
C14   C79   1.501680 S    
C88   O64   1.390378 S    
C55   C56   1.406542 A    
C8    C75   1.500681 S    
P2    O20   1.576821 S    
C78   O44   1.396652 S    
O17   Ba2   2.829783 S    
C45   C48   1.427859 A    
C70   H32   1.042642 S    
Ba1   O16   2.857596 S    
O6    C10   1.422666 S    
C57   C58   1.415995 A    
C6    H7    1.111794 S    
