data_mof_unit_30302.cif
_audit_creation_date              2012-12-10T19:02:44-0500
_audit_creation_method            fapswitch 2.2
_symmetry_space_group_name_H-M    P1
_symmetry_Int_Tables_number       1
_space_group_crystal_system       triclinic
_cell_length_a                    9.54116
_cell_length_b                    10.819225
_cell_length_c                    13.870859
_cell_angle_alpha                 90.083384
_cell_angle_beta                  84.798923
_cell_angle_gamma                 89.789923
_cell_volume                      1425.95314478

loop_
_atom_site_label
_atom_site_type_symbol
_atom_type_description
_atom_site_fract_x
_atom_site_fract_y
_atom_site_fract_z
_atom_type_partial_charge
C1    C     C_R   0.499925 0.737633 0.498551 0.786195
C2    C     C_1   0.463825 0.499194 0.786245 -0.157092
C3    C     C_R   0.373831 0.936478 0.497222 -0.059728
C4    C     C_R   0.500265 0.870595 0.489687 -0.093569
C5    C     C_R   0.627125 0.934810 0.469020 -0.181247
C6    C     C_R   0.627209 0.063569 0.468919 -0.212139
C7    C     C_R   0.500653 0.129078 0.489746 -0.027727
C8    C     C_R   0.374022 0.063904 0.498441 -0.069046
C9    C     C_3   0.251385 0.072440 0.573847 0.275465
C10   C     C_3   0.251506 0.931293 0.573991 0.296500
C11   C     C_R   0.937062 0.459613 0.420837 0.197355
C12   C     C_R   0.477218 0.499723 0.683023 0.831765
C13   C     C_R   0.915715 0.552578 0.573589 -0.056985
C14   C     C_R   0.064558 0.552528 0.573614 -0.048001
C15   C     C_R   0.084417 0.459786 0.420779 0.254389
C16   C     C_3   0.097694 0.334595 0.376016 0.232525
C17   C     C_3   0.938060 0.334178 0.376221 -0.574792
C18   C     C_R   0.500294 0.262287 0.498418 0.837695
C19   C     C_R   0.522861 0.499378 0.317000 0.832573
C20   C     C_1   0.537510 0.496325 0.213862 -0.162174
C21   C     C_2   0.566939 0.488620 0.022163 0.483227
C22   C     C_2   0.449298 0.499061 0.976898 -0.240454
C23   C     C_1   0.455187 0.498913 0.873140 0.075935
C24   C     C_1   0.551196 0.492958 0.127002 -0.183209
Cu1   Cu    Cu3+1 0.359330 0.500020 0.500000 0.969116
Cu2   Cu    Cu3+1 0.640670 0.499980 0.500000 0.949643
H1    H     H_    0.347039 0.509110 0.017675 0.122896
H2    H     H_    0.112008 0.593463 0.633881 0.158158
H3    H     H_    0.141064 0.265662 0.424990 0.074933
H4    H     H_    0.899991 0.335767 0.302793 0.210728
H5    H     H_    0.887844 0.264097 0.426108 0.171733
H6    H     H_    0.726596 0.886176 0.457060 0.159199
H7    H     H_    0.726641 0.110898 0.456950 0.146927
H8    H     H_    0.158189 0.116760 0.545053 0.079376
H9    H     H_    0.282563 0.890937 0.642705 0.119054
H10   H     H_    0.852172 0.593586 0.633870 0.156055
N1    N     N_R   0.852140 0.499070 0.499400 -0.188407
N2    N     N_R   0.148050 0.499110 0.499400 -0.227863
O1    O     O_R   0.381190 0.680360 0.500000 -0.570557
O2    O     O_R   0.618770 0.680320 0.499990 -0.584366
O3    O     O_R   0.364410 0.500000 0.637850 -0.582821
O4    O     O_R   0.602000 0.499960 0.637840 -0.570643
O5    O     O_R   0.381230 0.319680 0.500010 -0.579966
O6    O     O_R   0.618810 0.319640 0.500000 -0.588187
O7    O     O_R   0.398000 0.500040 0.362160 -0.548238
O8    O     O_R   0.635590 0.500000 0.362150 -0.585383
O9    O     O_3   0.166719 0.341289 0.281735 -0.546683
C25   C     C_3   0.198888 0.220603 0.247698 0.075749
H11   H     H_    0.102641 0.162114 0.250999 0.132980
H12   H     H_    0.278196 0.176745 0.291120 0.134538
C26   C     C_3   0.260529 0.227028 0.142822 -0.784276
H13   H     H_    0.359205 0.281537 0.137476 0.250877
H14   H     H_    0.284491 0.132330 0.114910 0.198814
H15   H     H_    0.184128 0.271356 0.097731 0.241396
O10   O     O_3   0.696435 0.475587 0.966836 -0.567697
C27   C     C_3   0.810707 0.461111 0.023977 0.095953
H16   H     H_    0.796423 0.377477 0.070523 0.144833
H17   H     H_    0.822156 0.544556 0.069661 0.150797
C28   C     C_3   0.945791 0.444895 0.957897 -0.798692
H18   H     H_    0.963503 0.527014 0.910443 0.249347
H19   H     H_    0.036507 0.434318 0.002081 0.199641
H20   H     H_    0.938705 0.361228 0.912106 0.245681
O11   O     O_3   0.292588 0.122545 0.661099 -0.575097
C29   C     C_3   0.171663 0.155230 0.721765 -0.303322
H21   H     H_    0.100580 0.074657 0.736030 0.165904
H22   H     H_    0.114493 0.232971 0.690133 0.166496
H23   H     H_    0.204854 0.187081 0.792245 0.188662
O12   O     O_3   0.122477 0.879174 0.548666 -0.584848
C30   C     C_3   0.105592 0.881503 0.448432 -0.298103
H24   H     H_    0.180140 0.816385 0.408370 0.190340
H25   H     H_    0.117252 0.976270 0.418010 0.120338
H26   H     H_    0.997685 0.849844 0.437687 0.177522

loop_
_geom_bond_atom_site_label_1
_geom_bond_atom_site_label_2
_ccdc_geom_bond_type
C30   H26   S    
O10   C27   S    
C19   O7    A    
C15   N2    A    
C10   H9    S    
C7    C18   S    
C10   O12   S    
Cu1   N2    S    
C14   N2    A    
C26   H15   S    
C9    C10   S    
C1    O1    A    
C13   N1    A    
O9    C25   S    
C1    O2    A    
C6    H7    S    
C5    H6    S    
C2    C12   S    
C29   H21   S    
Cu1   O5    S    
C19   C20   S    
C25   H12   S    
Cu1   Cu2   S    
C19   O8    A    
Cu2   O6    S    
C7    C8    A    
Cu2   N1    S    
C3    C10   S    
C18   O5    A    
Cu1   O1    S    
C17   H4    S    
Cu2   O2    S    
C9    H8    S    
C16   O9    S    
C21   C22   D    
C25   H11   S    
C27   H17   S    
C6    C7    A    
C18   O6    A    
C22   H1    S    
C5    C6    A    
C17   H5    S    
C30   H24   S    
C28   H19   S    
C1    C4    S    
C30   H25   S    
Cu2   O8    S    
O11   C29   S    
C26   H13   S    
C29   H23   S    
Cu1   O7    S    
C28   H18   S    
C12   O3    A    
C27   H16   S    
Cu2   O4    S    
C13   H10   S    
C11   N1    A    
C3    C8    A    
C21   C24   S    
Cu1   O3    S    
C2    C23   T    
C21   O10   S    
C27   C28   S    
C20   C24   T    
C22   C23   S    
C4    C5    A    
C28   H20   S    
C12   O4    A    
C13   C14   A    
C14   H2    S    
C16   H3    S    
C9    O11   S    
C11   C15   A    
O12   C30   S    
C25   C26   S    
C11   C17   S    
C3    C4    A    
C15   C16   S    
C16   C17   S    
C8    C9    S    
C26   H14   S    
C29   H22   S    
