data_mof_unit_60104.cif
_audit_creation_date              2012-12-10T17:00:51-0500
_audit_creation_method            fapswitch 2.2
_symmetry_space_group_name_H-M    P1
_symmetry_Int_Tables_number       1
_space_group_crystal_system       triclinic
_cell_length_a                    13.117461
_cell_length_b                    13.119853
_cell_length_c                    19.542079
_cell_angle_alpha                 100.312719
_cell_angle_beta                  80.360903
_cell_angle_gamma                 91.071842
_cell_volume                      3261.90994788

loop_
_atom_site_label
_atom_site_type_symbol
_atom_type_description
_atom_site_fract_x
_atom_site_fract_y
_atom_site_fract_z
_atom_type_partial_charge
C1    C     C_R   0.223043 0.535946 0.526942 0.517183
C2    C     C_2   0.448609 0.505974 0.986330 -0.133912
C3    C     C_2   0.530382 0.484792 0.014544 -0.133490
C4    C     C_R   0.776074 0.463383 0.472937 0.507261
C5    C     C_R   0.515275 0.482814 0.233832 0.038695
C6    C     C_2   0.887542 0.450855 0.461956 -0.078777
C7    C     C_2   0.940461 0.493611 0.512143 -0.145741
C8    C     C_2   0.110142 0.546048 0.540729 -0.100988
C9    C     C_2   0.053476 0.487534 0.498310 -0.149171
C10   C     C_2   0.547268 0.888424 0.531486 0.238355
C11   C     C_2   0.514987 0.939790 0.485730 -0.046964
C12   C     C_R   0.458512 0.507284 0.910523 0.040076
C13   C     C_2   0.459051 0.108458 0.465819 0.221579
C14   C     C_2   0.517911 0.053439 0.496294 -0.045018
C15   C     C_R   0.467256 0.222827 0.478533 0.497555
C16   C     C_R   0.534170 0.776286 0.521465 0.491012
C17   C     C_R   0.510503 0.486720 0.309574 0.506517
C18   C     C_R   0.488942 0.513018 0.690501 0.505013
C19   C     C_R   0.479492 0.513522 0.766353 0.035335
C20   C     C_R   0.537237 0.441902 0.789922 -0.121531
C21   C     C_R   0.526521 0.438442 0.861277 -0.109422
C22   C     C_R   0.399260 0.577701 0.887206 -0.114146
C23   C     C_R   0.410148 0.581393 0.815433 -0.122440
C24   C     C_R   0.434122 0.449287 0.129678 -0.107718
C25   C     C_R   0.430286 0.448685 0.201242 -0.123709
C26   C     C_R   0.604948 0.515158 0.193719 -0.119671
C27   C     C_R   0.609255 0.514345 0.122081 -0.114630
C28   C     C_R   0.523404 0.483341 0.089985 0.040953
H1    H     H_    0.590271 0.387713 0.753190 0.142763
H2    H     H_    0.671860 0.540895 0.217668 0.135284
H3    H     H_    0.606541 0.474292 0.982075 0.120657
H4    H     H_    0.345758 0.630642 0.924596 0.110224
H5    H     H_    0.367934 0.422111 0.105392 0.110542
H6    H     H_    0.363923 0.636546 0.798379 0.136957
H7    H     H_    0.374837 0.528237 0.019843 0.121338
H8    H     H_    0.570625 0.380917 0.877683 0.113125
H9    H     H_    0.355014 0.108615 0.405422 0.348580
H10   H     H_    0.600702 0.889857 0.618149 0.327696
H11   H     H_    0.679056 0.539637 0.091895 0.108549
H12   H     H_    0.090892 0.434719 0.451852 0.161714
H13   H     H_    0.900376 0.535795 0.562190 0.134402
H14   H     H_    0.073076 0.600372 0.586428 0.111859
H15   H     H_    0.927165 0.414375 0.410222 0.094006
H16   H     H_    0.568371 0.092876 0.531133 0.173221
H17   H     H_    0.481892 0.897228 0.441715 0.144544
H18   H     H_    0.360560 0.422940 0.231195 0.132114
O1    O     O_3   0.500000 0.500000 0.500000 -0.440550
O2    O     O_R   0.441420 0.437150 0.344000 -0.545887
O3    O     O_R   0.438960 0.578560 0.667440 -0.547096
O4    O     O_R   0.575450 0.541060 0.341470 -0.545877
O5    O     O_R   0.544160 0.443230 0.647100 -0.543924
O6    O     O_3   0.393135 0.057097 0.423068 -0.714331
O7    O     O_3   0.582264 0.941467 0.590707 -0.711655
O8    O     O_R   0.530110 0.266880 0.518530 -0.558596
O9    O     O_R   0.465470 0.738830 0.563940 -0.534831
O10   O     O_R   0.266890 0.467300 0.476120 -0.540913
O11   O     O_R   0.737530 0.526990 0.441410 -0.535338
O12   O     O_R   0.276880 0.592620 0.567490 -0.534294
O13   O     O_R   0.718700 0.413090 0.514970 -0.530891
O14   O     O_R   0.414920 0.276880 0.447500 -0.546208
O15   O     O_R   0.589510 0.717410 0.470040 -0.547405
Zn1   Zn    Zn3+2 0.571990 0.407410 0.544380 0.943908
Zn2   Zn    Zn3+2 0.407420 0.421690 0.442900 0.941004
Zn3   Zn    Zn3+2 0.598910 0.570150 0.439280 0.943085
Zn4   Zn    Zn3+2 0.421690 0.600750 0.573440 0.950014

loop_
_geom_bond_atom_site_label_1
_geom_bond_atom_site_label_2
_ccdc_geom_bond_type
C2    H7    S    
C4    O11   A    
O15   Zn3   S    
C19   C23   A    
C6    C7    D    
O3    Zn4   S    
C17   O4    A    
C13   O6    S    
O4    Zn3   S    
C15   O14   A    
O12   Zn4   S    
C24   H5    S    
C17   O2    A    
C20   H1    S    
C23   H6    S    
C2    C12   S    
O1    Zn1   S    
C7    H13   S    
C2    C3    D    
O10   Zn2   S    
C21   H8    S    
C10   C16   S    
C13   C14   D    
C24   C25   A    
C3    H3    S    
H10   O7    S    
C26   C27   A    
O5    Zn1   S    
C22   H4    S    
O14   Zn2   S    
C5    C25   A    
C12   C21   A    
C4    O13   A    
C4    C6    S    
C3    C28   S    
O9    Zn4   S    
C1    O10   A    
C8    H14   S    
C18   O5    A    
C26   H2    S    
C6    H15   S    
C13   C15   S    
O1    Zn2   S    
C11   C14   S    
C16   O9    A    
C11   H17   S    
C10   C11   D    
H9    O6    S    
C5    C26   A    
C1    C8    S    
C15   O8    A    
C12   C22   A    
C27   C28   A    
C5    C17   S    
C20   C21   A    
O11   Zn3   S    
C14   H16   S    
C18   C19   S    
C16   O15   A    
C27   H11   S    
O1    Zn3   S    
C7    C9    S    
C10   O7    S    
C22   C23   A    
O13   Zn1   S    
O8    Zn1   S    
C1    O12   A    
C25   H18   S    
O1    Zn4   S    
C9    H12   S    
C19   C20   A    
C18   O3    A    
C24   C28   A    
C8    C9    D    
O2    Zn2   S    
