data_mof_unit_31067.cif
_audit_creation_date              2012-12-11T15:57:38-0500
_audit_creation_method            fapswitch 2.2
_symmetry_space_group_name_H-M    P1
_symmetry_Int_Tables_number       1
_space_group_crystal_system       triclinic
_cell_length_a                    10.76661
_cell_length_b                    10.697795
_cell_length_c                    17.05264
_cell_angle_alpha                 100.214163
_cell_angle_beta                  100.506117
_cell_angle_gamma                 61.101071
_cell_volume                      1681.59185616

loop_
_atom_site_label
_atom_site_type_symbol
_atom_type_description
_atom_site_fract_x
_atom_site_fract_y
_atom_site_fract_z
_atom_type_partial_charge
C1    C     C_R   0.353821 0.775844 0.401705 0.568476
C2    C     C_2   0.840258 0.335441 0.162065 0.426051
C3    C     C_2   0.755917 0.283028 0.174216 -0.062477
C4    C     C_2   0.725780 0.289889 0.255714 0.195808
C5    C     C_2   0.324773 0.854406 0.333583 0.317169
C6    C     C_2   0.343694 0.833833 0.161393 -0.061646
C7    C     C_2   0.413107 0.886000 0.220684 0.443712
C8    C     C_2   0.431564 0.854046 0.302891 0.434912
C9    C     C_2   0.319635 0.301311 0.635768 0.389734
C10   C     C_2   0.290823 0.291324 0.804919 0.205711
C11   C     C_2   0.384180 0.189415 0.756632 0.221140
C12   C     C_R   0.406011 0.375055 0.356307 0.510606
C13   C     C_2   0.419374 0.231975 0.693920 0.415870
C14   C     C_1   0.847359 0.328587 0.705139 0.063312
C15   C     C_1   0.894504 0.292588 0.771513 0.023282
C16   C     C_1   0.323939 0.838602 0.705236 0.054675
C17   C     C_1   0.285221 0.884211 0.770789 0.037615
C18   C     C_R   0.893602 0.309590 0.086301 0.569469
C19   C     C_R   0.321880 0.303037 0.118949 0.572055
C20   C     C_R   0.293912 0.893544 0.084920 0.579685
C21   C     C_R   0.944216 0.272447 0.853950 0.506937
C22   C     C_R   0.278295 0.255339 0.878593 0.522209
C23   C     C_R   0.698786 0.418981 0.393774 0.570356
C24   C     C_R   0.246138 0.939014 0.849847 0.507686
C25   C     C_R   0.355880 0.775220 0.626131 0.562983
C26   C     C_R   0.365861 0.342195 0.576571 0.623226
C27   C     C_R   0.778092 0.378686 0.629024 0.596250
C28   C     C_1   0.374529 0.363212 0.271902 0.037375
C29   C     C_1   0.349538 0.344438 0.200943 0.044160
C30   C     C_2   0.698111 0.410454 0.307258 0.387465
Cr1   Cr    Cr6+3 0.608020 0.610770 0.522990 1.170842
Cr2   Cr    Cr6+3 0.289390 0.599570 0.488050 1.145645
Cr3   Cr    Cr6+3 0.602610 0.289690 0.489020 1.166862
Cr4   Cr    Cr6+3 0.053780 0.052210 0.965970 1.115073
Cr5   Cr    Cr6+3 0.060060 0.372530 0.992430 1.127085
Cr6   Cr    Cr6+3 0.372600 0.061970 0.991430 1.147578
H1    H     H_    0.723805 0.219802 0.125842 0.108919
H2    H     H_    0.304590 0.763360 0.173457 0.098863
O1    O     O_R   0.749250 0.499990 0.439200 -0.394296
O2    O     O_R   0.299400 0.468710 0.556310 -0.464975
O3    O     O_R   0.489240 0.256450 0.560730 -0.470683
O4    O     O_R   0.723350 0.306730 0.584410 -0.470843
O5    O     O_3   0.500010 0.500010 0.500020 -0.379920
O6    O     O_R   0.170650 0.915100 0.051290 -0.483092
O7    O     O_R   0.941960 0.184500 0.049060 -0.515460
O8    O     O_R   0.922640 0.402670 0.071640 -0.445461
O9    O     O_R   0.196880 0.368740 0.083740 -0.480142
O10   O     O_R   0.411120 0.181190 0.091480 -0.445335
O11   O     O_R   0.364220 0.944920 0.062310 -0.426686
O12   O     O_R   0.477870 0.725740 0.440280 -0.488461
O13   O     O_R   0.158740 0.906940 0.874970 -0.460356
O14   O     O_R   0.930920 0.176940 0.885610 -0.471576
O15   O     O_R   0.910730 0.394510 0.895320 -0.475667
O16   O     O_R   0.185840 0.361180 0.920280 -0.468493
O17   O     O_R   0.399210 0.173040 0.915160 -0.460963
O18   O     O_R   0.353170 0.937370 0.898860 -0.470994
O19   O     O_3   0.162150 0.162240 0.983280 -0.355772
O20   O     O_R   0.260770 0.742210 0.412610 -0.460191
O21   O     O_R   0.297990 0.466320 0.394220 -0.467927
O22   O     O_R   0.487720 0.253870 0.385870 -0.425954
O23   O     O_R   0.721940 0.304340 0.422320 -0.488044
O24   O     O_R   0.750770 0.502570 0.614050 -0.459075
O25   O     O_R   0.479280 0.728140 0.602370 -0.471655
O26   O     O_R   0.262290 0.744790 0.587460 -0.493949
F1    F     F_    0.557347 0.207832 0.700140 -0.587082
Cl1   Cl    Cl    0.198252 0.476989 0.788972 -0.487433
F2    F     F_    0.181479 0.327501 0.630336 -0.630629
Cl2   Cl    Cl    0.747414 0.126892 0.281210 -0.424752
F3    F     F_    0.897152 0.398995 0.223794 -0.529984
F4    F     F_    0.663822 0.535209 0.278270 -0.585076
F5    F     F_    0.466620 0.971229 0.206870 -0.542732
F6    F     F_    0.561465 0.819559 0.345863 -0.518068
F7    F     F_    0.190189 0.908862 0.294175 -0.621589
Cl3   Cl    Cl    0.501252 0.009465 0.776222 -0.521353

loop_
_geom_bond_atom_site_label_1
_geom_bond_atom_site_label_2
_ccdc_geom_bond_type
Cr5   O15   S    
Cr2   O20   S    
Cr5   O9    S    
C7    C8    S    
C22   O16   A    
C13   F1    S    
C10   C22   S    
Cr4   O13   S    
Cr1   O5    S    
C12   C28   S    
C1    C5    S    
Cr3   O4    S    
C28   C29   T    
C7    F5    S    
C19   O9    A    
C2    C18   S    
C25   O25   A    
C9    C13   D    
C30   F4    S    
C12   O21   A    
C16   C17   T    
Cr4   O19   S    
C6    H2    S    
C14   C27   S    
C2    F3    S    
C1    O12   A    
C24   O13   A    
Cr5   O16   S    
Cr1   O24   S    
C18   O8    A    
C20   O6    A    
C9    C26   S    
C10   Cl1   S    
C8    F6    S    
C17   C24   S    
Cr3   O5    S    
C23   C30   S    
Cr1   O25   S    
Cr4   O6    S    
Cr2   O26   S    
Cr6   O19   S    
C4    Cl2   S    
C19   O10   A    
C25   O26   A    
C9    F2    S    
C20   O11   A    
Cr6   O18   S    
C27   O24   A    
C23   O23   A    
Cr4   O7    S    
C22   O17   A    
Cr3   O22   S    
Cr1   O12   S    
C3    C4    S    
C19   C29   S    
C18   O7    A    
C16   C25   S    
C11   Cl3   S    
C5    C8    D    
C6    C7    D    
C24   O18   A    
C6    C20   S    
Cr4   O14   S    
Cr5   O19   S    
Cr3   O3    S    
C2    C3    D    
Cr6   O17   S    
C1    O20   A    
C21   O15   A    
C11   C13   S    
C27   O4    A    
C26   O2    A    
C23   O1    A    
Cr2   O5    S    
Cr1   O1    S    
Cr6   O10   S    
Cr2   O2    S    
C5    F7    S    
C10   C11   D    
C12   O22   A    
C15   C21   S    
C3    H1    S    
Cr3   O23   S    
C14   C15   T    
Cr2   O21   S    
Cr5   O8    S    
C21   O14   A    
C4    C30   D    
Cr6   O11   S    
C26   O3    A    
