data_mof_unit_36456.cif
_audit_creation_date              2012-12-11T16:32:31-0500
_audit_creation_method            fapswitch 2.2
_symmetry_space_group_name_H-M    P1
_symmetry_Int_Tables_number       1
_space_group_crystal_system       triclinic
_cell_length_a                    6.952089
_cell_length_b                    14.43556
_cell_length_c                    15.881617
_cell_angle_alpha                 89.972563
_cell_angle_beta                  90.084713
_cell_angle_gamma                 90.279823
_cell_volume                      1593.81524092

loop_
_atom_site_label
_atom_site_type_symbol
_atom_type_description
_atom_site_fract_x
_atom_site_fract_y
_atom_site_fract_z
_atom_type_partial_charge
O1    O     O_R   0.361630 0.167340 0.164570 -0.543227
O2    O     O_R   0.638370 0.832660 0.835430 -0.543227
O3    O     O_R   0.690860 0.157560 0.338690 -0.538306
O4    O     O_R   0.309140 0.842440 0.661310 -0.538307
O5    O     O_R   0.861260 0.336420 0.339380 -0.514323
O6    O     O_R   0.138740 0.663580 0.660620 -0.514323
C1    C     C_R   0.521625 0.134652 0.367924 0.701213
C2    C     C_R   0.478375 0.865348 0.632076 0.701214
O7    O     O_R   0.691330 0.156310 0.165190 -0.542745
O8    O     O_R   0.308670 0.843690 0.834810 -0.542745
O9    O     O_R   0.861730 0.335160 0.164640 -0.541002
O10   O     O_R   0.138270 0.664840 0.835360 -0.541002
C3    C     C_R   0.522236 0.134237 0.136433 0.680181
C4    C     C_R   0.477764 0.865763 0.863567 0.680180
O11   O     O_R   0.361150 0.168600 0.339320 -0.538960
O12   O     O_R   0.638850 0.831400 0.660680 -0.538960
O13   O     O_3   0.527950 0.310560 0.252000 -0.346141
O14   O     O_3   0.472050 0.689440 0.748000 -0.346141
V1    V     V_3+5 0.802770 0.240990 0.251980 1.458354
V2    V     V_3+5 0.197230 0.759010 0.748020 1.458354
O15   O     O_R   0.191450 0.346190 0.165260 -0.541478
O16   O     O_R   0.808550 0.653810 0.834740 -0.541478
C5    C     C_R   0.022871 0.367831 0.136573 0.684814
C6    C     C_R   0.977128 0.632169 0.863427 0.684814
O17   O     O_R   0.190980 0.347440 0.338770 -0.518898
O18   O     O_R   0.809020 0.652560 0.661230 -0.518898
C7    C     C_R   0.022611 0.368639 0.368270 0.748548
C8    C     C_R   0.977389 0.631361 0.631730 0.748549
V3    V     V_3+5 0.302780 0.262760 0.251980 1.480766
V4    V     V_3+5 0.697220 0.737240 0.748020 1.480766
O19   O     O_3   0.027730 0.193200 0.251960 -0.381157
O20   O     O_3   0.972270 0.806800 0.748040 -0.381158
C9    C     C_3   0.830176 0.459760 0.489069 0.518737
C10   C     C_3   0.169824 0.540240 0.510931 0.518737
C11   C     C_3   0.946530 0.457637 0.571858 -0.277745
C12   C     C_3   0.053470 0.542363 0.428142 -0.277745
H1    H     H_    0.900519 0.423187 0.631070 0.145574
H2    H     H_    0.099481 0.576813 0.368929 0.145574
C13   C     C_3   0.987407 0.562138 0.561318 -0.141420
C14   C     C_3   0.012592 0.437862 0.438682 -0.141421
C15   C     C_3   0.868882 0.564726 0.479056 -0.182011
C16   C     C_3   0.131118 0.435274 0.520943 -0.182011
H3    H     H_    0.194802 0.332149 0.755846 0.121068
H4    H     H_    0.805198 0.667850 0.244154 0.121068
C17   C     C_R   0.874679 0.682998 0.033199 -0.149524
C18   C     C_R   0.125321 0.317002 0.966801 -0.149524
C19   C     C_R   0.827499 0.709735 0.114875 -0.117931
C20   C     C_R   0.172501 0.290265 0.885125 -0.117931
C21   C     C_R   0.841078 0.646650 0.180729 -0.133088
C22   C     C_R   0.158922 0.353349 0.819270 -0.133088
C23   C     C_R   0.901799 0.556356 0.165360 -0.133547
C24   C     C_R   0.098201 0.443644 0.834640 -0.133547
C25   C     C_R   0.949788 0.527106 0.082954 0.065566
C26   C     C_R   0.050212 0.472894 0.917046 0.065566
C27   C     C_R   0.936237 0.591628 0.015651 0.056450
C28   C     C_R   0.063763 0.408371 0.984349 0.056450
C29   C     C_R   0.013276 0.435627 0.067109 -0.179871
C30   C     C_R   0.986724 0.564373 0.932891 -0.179871
H5    H     H_    0.863383 0.734908 0.984299 0.112768
H6    H     H_    0.136617 0.265092 0.015701 0.112769
H7    H     H_    0.781242 0.779945 0.127167 0.134818
H8    H     H_    0.218758 0.220055 0.872833 0.134818
H9    H     H_    0.911800 0.510132 0.218825 0.102607
H10   H     H_    0.088200 0.489868 0.781174 0.102607
C31   C     C_3   0.322148 0.028370 0.480136 -0.117702
C32   C     C_3   0.677852 0.971629 0.519864 -0.117702
C33   C     C_3   0.394693 0.927137 0.474239 -0.123320
C34   C     C_3   0.605307 0.072863 0.525761 -0.123320
H11   H     H_    0.307467 0.866968 0.452804 0.117284
H12   H     H_    0.692533 0.133032 0.547196 0.117284
H13   H     H_    0.174562 0.051544 0.463979 0.109494
H14   H     H_    0.825438 0.948456 0.536021 0.109494
C35   C     C_3   0.489981 0.937204 0.561584 -0.020733
C36   C     C_3   0.510019 0.062796 0.438416 -0.020734
C37   C     C_3   0.417527 0.037782 0.568112 -0.148090
C38   C     C_3   0.582473 0.962217 0.431887 -0.148090
H15   H     H_    0.349449 0.069134 0.624431 0.103417
H16   H     H_    0.650551 0.930866 0.375569 0.103417
H17   H     H_    0.302230 0.833471 0.244966 0.117044
H18   H     H_    0.697770 0.166529 0.755034 0.117044
C39   C     C_R   0.624875 0.183343 0.965633 -0.150335
C40   C     C_R   0.375125 0.816656 0.034367 -0.150335
C41   C     C_R   0.673128 0.209522 0.883849 -0.111842
C42   C     C_R   0.326872 0.790478 0.116150 -0.111842
C43   C     C_R   0.660987 0.145708 0.818528 -0.138403
C44   C     C_R   0.339012 0.854292 0.181472 -0.138403
C45   C     C_R   0.600630 0.055175 0.834482 -0.144254
C46   C     C_R   0.399369 0.944825 0.165518 -0.144254
C47   C     C_R   0.551434 0.026386 0.916941 0.070042
C48   C     C_R   0.448566 0.973613 0.083059 0.070042
C49   C     C_R   0.563477 0.091843 0.983875 0.057461
C50   C     C_R   0.436523 0.908157 0.016125 0.057461
C51   C     C_R   0.488209 0.934515 0.933083 -0.181438
C52   C     C_R   0.511791 0.065485 0.066917 -0.181438
H19   H     H_    0.635094 0.235820 0.014078 0.112547
H20   H     H_    0.364906 0.764180 0.985922 0.112547
H21   H     H_    0.719154 0.279887 0.871049 0.136516
H22   H     H_    0.280846 0.720113 0.128951 0.136516
H23   H     H_    0.591892 0.008373 0.781398 0.094350
H24   H     H_    0.408108 0.991627 0.218602 0.094350
Cl1   Cl    Cl    0.606717 0.400916 0.476441 -0.659414
Cl2   Cl    Cl    0.393283 0.599084 0.523559 -0.659414
H25   H     H_    0.764584 0.618944 0.460714 0.187285
H26   H     H_    0.235416 0.381056 0.539286 0.187285

loop_
_geom_bond_atom_site_label_1
_geom_bond_atom_site_label_2
_ccdc_geom_bond_type
H4    C21   S    
C32   C34   S    
C48   C52   A    
O13   V3    S    
C10   C16   S    
O4    C2    A    
V1    O19   S    
C13   C15   S    
C34   C37   S    
O9    V1    S    
C10   Cl2   S    
C36   C38   S    
C9    Cl1   S    
C11   H1    S    
C42   C44   A    
O3    C1    A    
V2    O20   S    
C39   H19   S    
C44   C46   A    
O12   V4    S    
C40   C50   A    
C28   C29   A    
C11   C16   S    
O7    C3    A    
C50   C51   A    
C9    C11   S    
O5    C7    A    
C48   C50   A    
O7    V1    S    
O6    C8    A    
C32   H14   S    
C31   C33   S    
C22   C24   A    
O3    V1    S    
O14   V4    S    
C47   C49   A    
C4    C51   S    
C45   H23   S    
C17   C19   A    
C2    O12   A    
C35   C37   S    
C12   C15   S    
C39   C41   A    
C24   C26   A    
O11   V3    S    
C1    C36   S    
C18   C20   A    
C25   C27   A    
O15   C5    A    
O17   V3    S    
C26   C28   A    
C9    C14   S    
C40   H20   S    
C43   C45   A    
C10   C13   S    
C12   C14   S    
C23   H9    S    
C19   C21   A    
C24   H10   S    
O8    V2    S    
C25   C29   A    
C1    O11   A    
C8    C13   S    
C21   C23   A    
C31   H13   S    
C32   C35   S    
O15   V3    S    
C31   C36   S    
C15   H25   S    
C23   C25   A    
O4    V2    S    
C11   C13   S    
H18   C43   S    
C20   H8    S    
C7    C14   S    
C32   C38   S    
O10   V2    S    
O1    V3    S    
C20   C22   A    
C37   H15   S    
C46   H24   S    
C33   C35   S    
C6    C30   S    
C41   C43   A    
C46   C48   A    
O18   V4    S    
C40   C42   A    
C45   C47   A    
O8    C4    A    
O16   C6    A    
O1    C3    A    
C26   C30   A    
C5    C29   S    
C17   H5    S    
O16   V4    S    
C18   H6    S    
C38   H16   S    
C14   C16   S    
C16   H26   S    
C19   H7    S    
H3    C22   S    
O5    V1    S    
O17   C7    A    
O6    V2    S    
O10   C6    A    
O18   C8    A    
C31   C37   S    
C3    C52   S    
O2    V4    S    
C9    C15   S    
C12   H2    S    
C42   H22   S    
V3    O19   S    
C49   C52   A    
V4    O20   S    
O9    C5    A    
C2    C35   S    
O13   V1    S    
C10   C12   S    
O14   V2    S    
C47   C51   A    
O2    C4    A    
C39   C49   A    
C17   C27   A    
C34   H12   S    
C41   H21   S    
C27   C30   A    
C18   C28   A    
C33   C38   S    
C33   H11   S    
C34   C36   S    
H17   C44   S    
