data_mof_unit_30285.cif
_audit_creation_date              2012-12-10T18:00:46-0500
_audit_creation_method            fapswitch 2.2
_symmetry_space_group_name_H-M    P1
_symmetry_Int_Tables_number       1
_space_group_crystal_system       triclinic
_cell_length_a                    15.842511
_cell_length_b                    10.887192
_cell_length_c                    9.669652
_cell_angle_alpha                 89.938019
_cell_angle_beta                  88.512325
_cell_angle_gamma                 93.506227
_cell_volume                      1664.13703513

loop_
_atom_site_label
_atom_site_type_symbol
_atom_type_description
_atom_site_fract_x
_atom_site_fract_y
_atom_site_fract_z
_atom_type_partial_charge
C1    C     C_R   0.501122 0.262631 0.499331 0.782938
C2    C     C_R   0.496721 0.737045 0.500938 0.788438
C3    C     C_R   0.503515 0.934063 0.378095 -0.238088
C4    C     C_R   0.485580 0.065091 0.622952 -0.229176
C5    C     C_R   0.492590 0.870873 0.503415 -0.075675
C6    C     C_R   0.500349 0.128328 0.497601 -0.076950
C7    C     C_R   0.443831 0.425568 0.078849 0.023764
C8    C     C_R   0.559991 0.568966 0.921371 0.050229
C9    C     C_R   0.436287 0.436673 0.932448 0.203449
C10   C     C_R   0.557747 0.575596 0.069769 0.202241
C11   C     C_R   0.340119 0.499390 0.501486 0.820511
C12   C     C_R   0.659882 0.500426 0.498505 0.824036
C13   C     C_3   0.966257 0.394661 0.552102 0.031978
C14   C     C_3   0.033744 0.604442 0.448498 0.030829
C15   C     C_3   0.026160 0.404709 0.423755 -0.195160
C16   C     C_3   0.973844 0.594397 0.576842 -0.193138
C17   C     C_1   0.250347 0.498859 0.504587 -0.159693
C18   C     C_1   0.749660 0.500626 0.495522 -0.147365
C19   C     C_3   0.024062 0.487060 0.632378 -0.205089
C20   C     C_3   0.975950 0.512046 0.368222 -0.204524
C21   C     C_3   0.083022 0.498822 0.503175 0.128097
C22   C     C_3   0.916979 0.500284 0.497414 0.127651
C23   C     C_1   0.174732 0.498615 0.505014 -0.044507
C24   C     C_1   0.825270 0.500633 0.495357 -0.041808
C25   C     C_R   0.510518 0.061200 0.373634 -0.003562
C26   C     C_R   0.480584 0.937524 0.627202 -0.004433
Cu1   Cu    Cu3+1 0.500000 0.500020 0.640660 0.970793
Cu2   Cu    Cu3+1 0.500000 0.499980 0.359340 0.962875
H1    H     H_    0.048462 0.326377 0.362261 0.153878
H2    H     H_    0.951542 0.672727 0.638341 0.155230
H3    H     H_    0.955404 0.523393 0.260290 0.146937
H4    H     H_    0.044639 0.475708 0.740294 0.145634
H5    H     H_    0.507534 0.883991 0.282521 0.175567
H6    H     H_    0.477330 0.114995 0.718603 0.166559
N1    N     N_R   0.500020 0.500030 0.852070 -0.205479
N2    N     N_R   0.499980 0.499970 0.147930 -0.213753
O1    O     O_R   0.500000 0.319660 0.618740 -0.579318
O2    O     O_R   0.500000 0.680340 0.381260 -0.593978
O3    O     O_R   0.499990 0.319630 0.381170 -0.569966
O4    O     O_R   0.500010 0.680370 0.618830 -0.573062
O5    O     O_R   0.379080 0.500000 0.618760 -0.589124
O6    O     O_R   0.620920 0.500000 0.381240 -0.605301
O7    O     O_R   0.379080 0.499970 0.381190 -0.568109
O8    O     O_R   0.620920 0.500030 0.618810 -0.566093
C27   C     C_1   0.928140 0.278697 0.609221 0.234143
N3    N     N_1   0.898031 0.187246 0.654261 -0.269070
C28   C     C_1   0.071871 0.720409 0.391396 0.233931
N4    N     N_1   0.101992 0.811861 0.346374 -0.268517
C29   C     C_1   0.531822 0.117242 0.240540 0.280711
N5    N     N_1   0.549283 0.161125 0.133702 -0.287409
C30   C     C_1   0.458831 0.879620 0.759043 0.277017
N6    N     N_1   0.440839 0.833529 0.864496 -0.298729
C31   C     C_1   0.389588 0.337402 0.156956 0.335925
N7    N     N_1   0.345781 0.266486 0.218208 -0.297280
C32   C     C_1   0.623279 0.641886 0.842056 0.347669
N8    N     N_1   0.674147 0.700799 0.779086 -0.307214
C33   C     C_3   0.348083 0.399362 0.879595 -0.332418
C34   C     C_3   0.340265 0.273629 0.809775 -0.751725
H7    H     H_    0.273260 0.236986 0.815816 0.224080
H8    H     H_    0.357951 0.279642 0.698912 0.263786
H9    H     H_    0.378994 0.207605 0.863391 0.236235
H10   H     H_    0.301089 0.393347 0.966858 0.152140
H11   H     H_    0.320034 0.474101 0.823911 0.219450
C35   C     C_3   0.623451 0.664200 0.136746 -0.373983
C36   C     C_3   0.617351 0.799572 0.095431 -0.854325
H12   H     H_    0.551420 0.819067 0.071542 0.270760
H13   H     H_    0.639834 0.860461 0.180732 0.241160
H14   H     H_    0.659161 0.825048 0.005203 0.265434
H15   H     H_    0.618952 0.663939 0.248517 0.268977
H16   H     H_    0.687896 0.635274 0.109734 0.180970

loop_
_geom_bond_atom_site_label_1
_geom_bond_atom_site_label_2
_ccdc_geom_bond_type
C4    C26   A    
C32   N8    T    
C2    O4    A    
C11   O7    A    
C14   C28   S    
C8    C32   S    
C35   H16   S    
C5    C26   A    
C7    N2    A    
Cu1   O5    S    
Cu2   O7    S    
C26   C30   S    
C28   N4    T    
Cu2   O3    S    
Cu2   O2    S    
Cu1   O4    S    
C3    C5    A    
C36   H14   S    
C35   C36   S    
C34   H9    S    
C13   C15   S    
C33   H10   S    
C12   O8    A    
C35   H15   S    
C33   H11   S    
C13   C27   S    
C33   C34   S    
C17   C23   T    
C15   C21   S    
Cu1   O1    S    
C16   C19   S    
C18   C24   T    
C19   H4    S    
C14   C21   S    
Cu2   O6    S    
C19   C21   S    
C20   C22   S    
C13   C22   S    
C15   H1    S    
C9    C33   S    
C21   C23   S    
C4    H6    S    
C15   C20   S    
C29   N5    T    
C14   C16   S    
C6    C25   A    
C1    O3    A    
C3    H5    S    
C34   H8    S    
C30   N6    T    
C2    C5    S    
C27   N3    T    
C3    C25   A    
C8    N1    A    
Cu2   N2    S    
C14   C20   S    
C4    C6    A    
C36   H12   S    
C22   C24   S    
C12   C18   S    
Cu1   Cu2   S    
C7    C9    A    
C13   C19   S    
C2    O2    A    
C11   C17   S    
C9    N1    A    
C12   O6    A    
C7    C31   S    
C10   N2    A    
Cu1   N1    S    
C34   H7    S    
C31   N7    T    
C16   H2    S    
Cu1   O8    S    
C20   H3    S    
C8    C10   A    
C10   C35   S    
C1    C6    S    
C11   O5    A    
C16   C22   S    
C1    O1    A    
C36   H13   S    
C25   C29   S    
