data_mof_unit_50565.cif
_audit_creation_date              2012-12-10T18:57:09-0500
_audit_creation_method            fapswitch 2.2
_symmetry_space_group_name_H-M    P1
_symmetry_Int_Tables_number       1
_space_group_crystal_system       triclinic
_cell_length_a                    8.723803
_cell_length_b                    10.902823
_cell_length_c                    9.550873
_cell_angle_alpha                 90.658668
_cell_angle_beta                  97.644656
_cell_angle_gamma                 90.489762
_cell_volume                      900.242549188

loop_
_atom_site_label
_atom_site_type_symbol
_atom_type_description
_atom_site_fract_x
_atom_site_fract_y
_atom_site_fract_z
_atom_type_partial_charge
C1    C     C_R   0.499185 0.262849 0.499147 0.808728
C2    C     C_R   0.503321 0.934356 0.372431 -0.216100
C3    C     C_R   0.494285 0.870498 0.499274 -0.089045
C4    C     C_R   0.482373 0.940801 0.620053 -0.028149
C5    C     C_3   0.473777 0.936615 0.775625 0.288406
C6    C     C_3   0.479621 0.079198 0.773557 0.619578
C7    C     C_R   0.630948 0.530645 0.090078 0.191518
C8    C     C_R   0.374348 0.460984 0.058437 -0.110797
C9    C     C_R   0.374251 0.461115 0.909870 -0.079053
C10   C     C_R   0.632233 0.527478 0.942578 0.086807
C11   C     C_3   0.721350 0.645121 0.946537 -0.032482
C12   C     C_R   0.204041 0.496795 0.464037 0.879801
C13   C     C_3   0.713729 0.651686 0.105080 0.282470
C14   C     C_R   0.498252 0.737511 0.500418 0.806172
C15   C     C_R   0.796060 0.498220 0.536023 0.882240
C16   C     C_2   0.038529 0.489348 0.444618 -0.328365
C17   C     C_2   0.961889 0.497192 0.556026 -0.376735
C18   C     C_R   0.484949 0.064840 0.618416 0.022621
C19   C     C_R   0.495993 0.130543 0.496744 -0.097159
C20   C     C_R   0.503744 0.063135 0.371053 -0.212731
Cu1   Cu    Cu3+1 0.499990 0.499980 0.640670 0.952745
Cu2   Cu    Cu3+1 0.500010 0.500020 0.359330 0.952118
H1    H     H_    0.979598 0.476826 0.338042 0.219554
H2    H     H_    0.271679 0.430521 0.842071 0.163630
H3    H     H_    0.655536 0.716593 0.885043 0.122760
H4    H     H_    0.637667 0.725441 0.137988 0.041994
H5    H     H_    0.021469 0.505046 0.663092 0.167040
H6    H     H_    0.511851 0.109147 0.272361 0.158978
H7    H     H_    0.511497 0.885544 0.274465 0.147922
H8    H     H_    0.577886 0.895557 0.834965 0.025554
H9    H     H_    0.271986 0.429897 0.100519 0.155245
N1    N     N_R   0.500980 0.500930 0.148050 -0.211985
N2    N     N_R   0.500990 0.500890 0.852140 -0.203339
O1    O     O_R   0.500000 0.319640 0.618810 -0.562853
O2    O     O_R   0.500020 0.319680 0.381230 -0.596397
O3    O     O_R   0.274830 0.499980 0.591380 -0.579632
O4    O     O_R   0.274850 0.500020 0.353800 -0.590288
O5    O     O_R   0.499980 0.680320 0.618770 -0.578191
O6    O     O_R   0.500000 0.680360 0.381190 -0.593726
O7    O     O_R   0.725150 0.499980 0.646200 -0.590935
O8    O     O_R   0.725170 0.500020 0.408620 -0.548238
N3    N     N_2   0.877573 0.628834 0.912239 -0.362652
H10   H     H_    0.908243 0.540601 0.888306 0.262935
C21   C     C_3   0.931126 0.722373 0.823679 -0.655726
H11   H     H_    0.049470 0.700431 0.801392 0.234335
H12   H     H_    0.933942 0.812991 0.878202 0.223872
H13   H     H_    0.853807 0.726865 0.721620 0.220921
O9    O     O_3   0.859653 0.641545 0.187692 -0.549588
C22   C     C_3   0.913518 0.759048 0.235030 -0.264447
H14   H     H_    0.841318 0.797028 0.312612 0.153341
H15   H     H_    0.916309 0.823093 0.145413 0.157008
H16   H     H_    0.033454 0.750851 0.289473 0.185239
O10   O     O_3   0.328104 0.890123 0.801227 -0.535111
C23   C     C_3   0.345344 0.815085 0.921591 -0.334474
H17   H     H_    0.431232 0.851970 0.008898 0.113299
H18   H     H_    0.377299 0.721378 0.891586 0.190707
H19   H     H_    0.233269 0.809528 0.963827 0.195262
O11   O     O_3   0.340784 0.137733 0.798867 -0.551219
C24   C     C_3   0.328618 0.144955 0.944924 -0.261593
H20   H     H_    0.412134 0.212514 0.999765 0.150562
H21   H     H_    0.345457 0.055398 0.997823 0.173435
H22   H     H_    0.210788 0.176682 0.957931 0.166285
N4    N     N_2   0.620171 0.136422 0.849763 -0.483554
H23   H     H_    0.610632 0.229728 0.864608 0.286105
C25   C     C_3   0.770369 0.105470 0.810149 -0.774269
H24   H     H_    0.862584 0.144313 0.890076 0.245018
H25   H     H_    0.784165 0.145472 0.706089 0.241205
H26   H     H_    0.786612 0.005003 0.805657 0.223424

loop_
_geom_bond_atom_site_label_1
_geom_bond_atom_site_label_2
_ccdc_geom_bond_type
C6    N4    S    
C13   O9    S    
N4    C25   S    
C9    H2    S    
Cu1   O1    S    
C14   O5    A    
C6    O11   S    
C19   C20   A    
C25   H25   S    
C21   H13   S    
C22   H16   S    
C4    C18   A    
C16   H1    S    
C25   H26   S    
Cu2   O4    S    
C2    C3    A    
C14   O6    A    
C24   H20   S    
Cu1   O3    S    
Cu1   Cu2   S    
C9    N2    A    
Cu2   O2    S    
C11   C13   S    
C15   O8    A    
C4    C5    S    
C3    C14   S    
N3    C21   S    
C2    H7    S    
Cu2   O6    S    
C5    O10   S    
O9    C22   S    
C21   H12   S    
C1    O1    A    
C22   H14   S    
C10   N2    A    
C25   H24   S    
C5    C6    S    
C6    C18   S    
C23   H18   S    
C13   H4    S    
C24   H21   S    
Cu2   O8    S    
C12   O3    A    
N3    H10   S    
C11   H3    S    
C15   O7    A    
C2    C20   A    
N4    H23   S    
C17   H5    S    
C12   C16   S    
C7    C13   S    
Cu2   N1    S    
Cu1   N2    S    
C21   H11   S    
C1    O2    A    
C11   N3    S    
C18   C19   A    
C10   C11   S    
C1    C19   S    
C12   O4    A    
C15   C17   S    
C8    N1    A    
C23   H17   S    
C8    C9    A    
C24   H22   S    
C7    N1    A    
C20   H6    S    
C22   H15   S    
O11   C24   S    
O10   C23   S    
C8    H9    S    
Cu1   O5    S    
C3    C4    A    
C5    H8    S    
C16   C17   D    
C7    C10   A    
C23   H19   S    
Cu1   O7    S    
