data_mof_unit_61522.cif
_audit_creation_date              2012-12-10T18:30:15-0500
_audit_creation_method            fapswitch 2.2
_symmetry_space_group_name_H-M    P1
_symmetry_Int_Tables_number       1
_space_group_crystal_system       triclinic
_cell_length_a                    21.321746
_cell_length_b                    25.018175
_cell_length_c                    24.882567
_cell_angle_alpha                 100.519898
_cell_angle_beta                  115.340423
_cell_angle_gamma                 64.706361
_cell_volume                      10845.9485739

loop_
_atom_site_label
_atom_site_type_symbol
_atom_type_description
_atom_site_fract_x
_atom_site_fract_y
_atom_site_fract_z
_atom_type_partial_charge
C1    C     C_R   0.999933 0.918898 0.418679 0.905249
C2    C     C_3   0.062104 0.680033 0.272927 0.325716
C3    C     C_3   0.999852 0.706542 0.210893 0.137272
C4    C     C_R   0.878125 0.999846 0.499865 0.871878
C5    C     C_3   0.920992 0.736056 0.213840 -0.370633
C6    C     C_3   0.918803 0.786199 0.261238 -0.175797
C7    C     C_1   0.000135 0.661799 0.164193 0.004253
C8    C     C_1   0.998599 0.836723 0.336997 -0.034271
C9    C     C_1   0.999130 0.874593 0.374102 -0.151082
C10   C     C_3   0.218341 0.048933 0.527150 -0.150583
C11   C     C_3   0.232233 0.047616 0.470775 -0.148807
C12   C     C_3   0.758043 0.999098 0.556389 -0.161568
C13   C     C_3   0.310913 0.999667 0.500209 0.018686
C14   C     C_3   0.298370 0.000949 0.556615 -0.160419
C15   C     C_3   0.268342 0.951709 0.529513 -0.168250
C16   C     C_R   0.000134 0.081088 0.581344 0.905072
C17   C     C_3   0.282021 0.950391 0.473068 -0.168469
C18   C     C_3   0.202126 0.998321 0.443639 -0.159174
C19   C     C_3   0.189544 0.999673 0.500039 0.018447
C20   C     C_3   0.074360 0.184786 0.766540 -0.439376
C21   C     C_3   0.932294 0.226105 0.725368 -0.357699
C22   C     C_3   0.932192 0.274421 0.773978 -0.348290
C23   C     C_3   0.760832 0.047996 0.528478 -0.153839
C24   C     C_1   0.000355 0.374306 0.874733 -0.099017
C25   C     C_3   0.001541 0.208133 0.709609 0.293869
C26   C     C_3   0.075797 0.233840 0.815055 -0.183642
C27   C     C_3   0.001277 0.290600 0.791828 0.141729
C28   C     C_R   0.121921 0.999870 0.499942 0.861746
C29   C     C_3   0.998950 0.312274 0.735447 -0.164886
C30   C     C_3   0.997959 0.263419 0.686760 -0.441238
C31   C     C_1   0.000788 0.336585 0.837488 -0.083504
C32   C     C_1   0.001133 0.162498 0.663849 -0.085757
C33   C     C_1   0.000660 0.125224 0.626119 -0.176290
C34   C     C_3   0.810740 0.999625 0.499825 0.009739
C35   C     C_R   0.418789 0.081074 0.418678 0.905900
C36   C     C_R   0.622027 0.999804 0.500090 0.869865
C37   C     C_R   0.581278 0.918823 0.581404 0.904036
C38   C     C_R   0.378299 0.999824 0.500189 0.862130
C39   C     C_R   0.081010 0.419017 0.080945 0.914016
C40   C     C_3   0.742288 0.000038 0.443393 -0.148743
C41   C     C_R   0.999769 0.581238 0.080877 0.913132
C42   C     C_R   0.918756 0.581196 0.918793 0.898647
C43   C     C_R   0.999966 0.419015 0.918878 0.909030
C44   C     C_3   0.207757 0.227265 0.275879 -0.410533
C45   C     C_3   0.060111 0.729634 0.320737 -0.401474
C46   C     C_3   0.303044 0.180392 0.229250 -0.248430
C47   C     C_3   0.255548 0.229400 0.180117 0.261951
C48   C     C_1   0.125553 0.373648 0.124460 -0.092080
C49   C     C_3   0.292552 0.206365 0.288417 0.173247
C50   C     C_3   0.159058 0.276733 0.228342 -0.348356
C51   C     C_3   0.209312 0.287865 0.205084 0.156295
C52   C     C_3   0.691062 0.048446 0.472080 -0.147388
C53   C     C_3   0.266593 0.308008 0.258700 -0.460538
C54   C     C_3   0.313609 0.261009 0.308613 -0.364589
C55   C     C_1   0.163242 0.334961 0.160751 -0.004295
C56   C     C_3   0.016566 0.803803 0.243733 -0.434764
C57   C     C_1   0.337572 0.161831 0.335456 -0.070939
C58   C     C_1   0.374638 0.125104 0.373754 -0.155122
C59   C     C_3   0.729141 0.823677 0.772936 -0.459578
C60   C     C_3   0.783136 0.751638 0.703688 -0.375577
C61   C     C_3   0.830091 0.702418 0.751369 -0.412469
C62   C     C_1   0.874299 0.626582 0.875348 -0.068766
C63   C     C_3   0.709019 0.793438 0.711310 0.216460
C64   C     C_3   0.689551 0.999586 0.499968 0.009030
C65   C     C_3   0.777879 0.776767 0.824219 0.705712
C66   C     C_3   0.791226 0.712649 0.795018 0.101755
C67   C     C_3   0.016334 0.755213 0.195379 -0.466220
C68   C     C_3   0.714387 0.707406 0.756250 -0.416549
C69   C     C_3   0.664764 0.756778 0.708675 -0.384286
C70   C     C_1   0.836853 0.665366 0.839181 0.036948
C71   C     C_1   0.663282 0.837961 0.664449 -0.065814
C72   C     C_1   0.625751 0.874769 0.626256 -0.174514
C73   C     C_3   0.739529 0.951196 0.471269 -0.156031
C74   C     C_3   0.809162 0.950745 0.527736 -0.161064
C75   C     C_2   0.886580 0.779554 0.302381 0.976165
C76   C     C_2   0.092329 0.211229 0.874283 0.947102
C77   C     C_2   0.934671 0.371157 0.711170 0.926482
C78   C     C_1   0.000059 0.625130 0.125868 -0.088523
C79   C     C_2   0.385015 0.151444 0.236704 0.930582
C80   C     C_3   0.998170 0.789978 0.292245 0.179993
H1    H     H_    0.640905 0.088247 0.449377 0.140107
H2    H     H_    0.737776 0.000397 0.397314 0.153295
H3    H     H_    0.190376 0.089084 0.549201 0.133326
H4    H     H_    0.339525 0.001999 0.602689 0.146069
H5    H     H_    0.281527 0.912469 0.553471 0.155531
H6    H     H_    0.309684 0.910079 0.451021 0.153781
H7    H     H_    0.160984 0.997229 0.397571 0.144175
H8    H     H_    0.077570 0.144604 0.782617 0.206996
H9    H     H_    0.879257 0.242978 0.685042 0.189378
H10   H     H_    0.933392 0.186883 0.741449 0.189438
H11   H     H_    0.932531 0.258894 0.813153 0.216110
H12   H     H_    0.072862 0.806567 0.263959 0.189371
H13   H     H_    0.729290 0.911595 0.447932 0.162510
H14   H     H_    0.878650 0.313972 0.757791 0.211796
H15   H     H_    0.047209 0.251148 0.674920 0.163750
H16   H     H_    0.946578 0.279531 0.645108 0.204640
H17   H     H_    0.052298 0.318719 0.748760 0.133739
H18   H     H_    0.124800 0.170838 0.755836 0.166885
H19   H     H_    0.123573 0.245764 0.822160 0.136046
H20   H     H_    0.114231 0.265075 0.191452 0.231173
H21   H     H_    0.189689 0.189543 0.260154 0.199420
H22   H     H_    0.859007 0.910775 0.550428 0.162227
H23   H     H_    0.071995 0.735585 0.191575 0.187545
H24   H     H_    0.280959 0.144761 0.215232 0.194173
H25   H     H_    0.293982 0.239581 0.168154 0.128889
H26   H     H_    0.302152 0.280571 0.349043 0.185228
H27   H     H_    0.374779 0.248397 0.321329 0.220003
H28   H     H_    0.236400 0.350834 0.276506 0.206310
H29   H     H_    0.198067 0.244100 0.317453 0.184543
H30   H     H_    0.129584 0.318043 0.248483 0.178878
H31   H     H_    0.305070 0.315342 0.244304 0.203064
H32   H     H_    0.762581 0.998690 0.602469 0.149922
H33   H     H_    0.759260 0.851190 0.774274 0.214246
H34   H     H_    0.972901 0.775449 0.151539 0.219783
H35   H     H_    0.770133 0.731269 0.658635 0.182528
H36   H     H_    0.816832 0.777084 0.707654 0.209082
H37   H     H_    0.888903 0.699335 0.774850 0.241818
H38   H     H_    0.835032 0.658934 0.728730 0.184724
H39   H     H_    0.612614 0.785980 0.716144 0.201395
H40   H     H_    0.647030 0.736599 0.663827 0.182743
H41   H     H_    0.684414 0.708285 0.783589 0.251995
H42   H     H_    0.676171 0.855617 0.777656 0.175843
H43   H     H_    0.771542 0.087436 0.551802 0.135787
H44   H     H_    0.724013 0.663702 0.733447 0.180593
H45   H     H_    0.877992 0.828786 0.237388 0.126974
H46   H     H_    0.117918 0.663069 0.269708 0.087925
H47   H     H_    0.116210 0.732765 0.341587 0.144607
H48   H     H_    0.974345 0.847457 0.222866 0.197535
H49   H     H_    0.797648 0.775388 0.308894 0.351876
H50   H     H_    0.986643 0.603208 0.328130 0.394009
H51   H     H_    0.066634 0.170435 0.919993 0.364714
H52   H     H_    0.823051 0.416902 0.667223 0.347321
H53   H     H_    0.480707 0.160971 0.252478 0.353319
H54   H     H_    0.226721 0.131305 0.051200 0.398284
H55   H     H_    0.898789 0.853452 0.927233 0.388105
H56   H     H_    0.905927 0.702129 0.222663 0.245080
H57   H     H_    0.608050 0.839470 0.825624 0.361293
H58   H     H_    0.051004 0.718876 0.357464 0.259253
H59   H     H_    0.877431 0.755306 0.169652 0.184434
H60   H     H_    0.219542 0.086692 0.446830 0.132762
O1    O     O_R   0.034680 0.903860 0.473250 -0.605118
O2    O     O_R   0.008840 0.438630 0.061310 -0.608548
O3    O     O_R   0.052380 0.561560 0.061290 -0.616183
O4    O     O_R   0.965310 0.973280 0.403900 -0.620785
O5    O     O_R   0.947370 0.561540 0.061320 -0.601336
O6    O     O_R   0.990910 0.561610 0.938440 -0.604177
O7    O     O_R   0.885900 0.561600 0.938470 -0.609889
O8    O     O_R   0.052380 0.438700 0.938430 -0.607791
O9    O     O_R   0.947370 0.438690 0.938460 -0.617563
O10   O     O_R   0.941660 0.965300 0.534680 -0.621947
O11   O     O_R   0.872290 0.034710 0.465330 -0.623570
O12   O     O_R   0.438620 0.026720 0.403950 -0.600218
O13   O     O_R   0.034690 0.026720 0.596100 -0.612533
O14   O     O_R   0.965320 0.096140 0.526750 -0.616078
O15   O     O_R   0.127710 0.965290 0.534670 -0.626727
O16   O     O_R   0.058340 0.034700 0.465320 -0.624257
O17   O     O_R   0.438600 0.096100 0.473280 -0.620605
O18   O     O_2   0.922357 0.774680 0.356189 -0.610561
O19   O     O_R   0.813894 0.779922 0.277768 -0.787700
O20   O     O_2   0.055558 0.571083 0.249404 -0.308680
O21   O     O_2   0.128320 0.591867 0.351555 -0.283973
O22   O     O_3   0.982528 0.639405 0.313684 -0.553419
O23   O     O_R   0.593070 0.034630 0.534720 -0.623596
O24   O     O_2   0.144222 0.216602 0.918903 -0.576677
O25   O     O_R   0.049616 0.183501 0.878025 -0.811474
O26   O     O_2   0.948316 0.415153 0.717067 -0.626510
O27   O     O_R   0.860341 0.375245 0.681291 -0.819249
O28   O     O_2   0.414192 0.097833 0.231447 -0.575870
O29   O     O_R   0.426957 0.185666 0.248675 -0.829301
O30   O     O_2   0.147293 0.184187 0.122055 -0.315686
O31   O     O_2   0.155478 0.248967 0.064343 -0.274260
O32   O     O_3   0.259497 0.143254 0.089192 -0.513239
O33   O     O_2   0.917253 0.739116 0.915790 -0.282710
O34   O     O_R   0.593090 0.965250 0.465380 -0.621568
O35   O     O_2   0.906448 0.783507 0.830564 -0.348345
O36   O     O_3   0.848502 0.852702 0.901963 -0.492110
O37   O     O_2   0.769061 0.743772 0.919083 -0.246518
O38   O     O_2   0.725776 0.849381 0.905439 -0.229936
O39   O     O_3   0.639095 0.797037 0.835450 -0.587210
O40   O     O_R   0.561490 0.973170 0.596160 -0.613964
O41   O     O_R   0.561500 0.903790 0.526820 -0.617705
O42   O     O_R   0.407020 0.034640 0.534730 -0.624470
O43   O     O_R   0.407040 0.965260 0.465390 -0.626524
O44   O     O_R   0.113850 0.438650 0.061280 -0.613344
S1    S     S_3+6 0.058274 0.617802 0.296834 0.005305
S2    S     S_3+6 0.200056 0.202445 0.112010 0.019034
S3    S     S_3+6 0.866343 0.786133 0.868676 0.041350
S4    S     S_3+6 0.728513 0.791847 0.873360 0.058848
Zn1   Zn    Zn3+2 0.046320 0.953650 0.546300 0.987596
Zn2   Zn    Zn3+2 0.953680 0.046350 0.453700 0.975251
Zn3   Zn    Zn3+2 0.500040 0.046270 0.546350 0.975667
Zn4   Zn    Zn3+2 0.500070 0.953620 0.453760 0.989217
Zn5   Zn    Zn3+2 0.069990 0.500130 0.999860 1.029077
Zn6   Zn    Zn3+2 0.929760 0.500110 0.999900 1.031330

loop_
_geom_bond_atom_site_label_1
_geom_bond_atom_site_label_2
_ccdc_geom_bond_type
C44   C49   S    
C48   C55   T    
C66   C68   S    
C65   S3    S    
C11   C18   S    
C36   O34   A    
C12   C74   S    
C27   C29   S    
C73   C74   S    
C64   C73   S    
H52   O27   S    
C73   H13   S    
O43   Zn4   S    
C68   H44   S    
C35   O17   A    
C57   C58   T    
C67   H23   S    
C6    C75   S    
O13   Zn1   S    
C53   C54   S    
C15   C19   S    
C12   C23   S    
C26   C27   S    
C30   H15   S    
O37   S4    D    
C20   C26   S    
C54   H27   S    
C35   C58   S    
C34   C40   S    
C1    O1    A    
C67   H34   S    
C13   C38   S    
C41   O3    A    
C3    C7    S    
C46   C79   S    
C12   C64   S    
O41   Zn4   S    
C20   C25   S    
C44   C50   S    
O44   Zn5   S    
O3    Zn5   S    
C10   H3    S    
C50   H30   S    
C49   C57   S    
C40   C73   S    
C62   C70   T    
O7    Zn6   S    
C17   C18   S    
C18   C19   S    
C37   O40   A    
H53   O29   S    
O21   S1    D    
C43   O8    A    
O15   Zn1   S    
C61   C66   S    
O11   Zn2   S    
C63   C69   S    
O32   S2    S    
C8    C9    T    
C47   H25   S    
C28   O15   A    
C26   C76   S    
C22   H11   S    
C14   H4    S    
C79   O28   D    
C42   C62   S    
C39   O44   A    
C43   O9    A    
O1    Zn1   S    
C26   H19   S    
C74   H22   S    
O38   S4    D    
C44   H29   S    
C53   H31   S    
C25   C32   S    
O14   Zn2   S    
C65   S4    S    
H54   O32   S    
C13   C14   S    
C41   O5    A    
C22   H14   S    
H49   O19   S    
O20   S1    D    
C42   O7    A    
C5    H59   S    
C5    H56   S    
C21   H10   S    
C2    C45   S    
C4    C34   S    
C54   H26   S    
C61   H37   S    
C17   H6    S    
C40   H2    S    
C1    C9    S    
C52   C64   S    
C41   C78   S    
C46   H24   S    
C68   C69   S    
C30   H16   S    
C23   H43   S    
O39   S4    S    
C77   O26   D    
C40   C52   S    
C27   C31   S    
C69   H39   S    
C38   O43   A    
C45   H47   S    
C60   C61   S    
C47   S2    S    
C11   H60   S    
O17   Zn3   S    
C29   C30   S    
O9    Zn6   S    
C36   O23   A    
C6    C80   S    
H57   O39   S    
C39   O2    A    
C10   C19   S    
C59   H33   S    
C23   C34   S    
C37   O41   A    
O30   S2    D    
C50   C51   S    
O2    Zn6   S    
C20   H18   S    
C76   O25   S    
O6    Zn5   S    
C19   C28   S    
O5    Zn6   S    
C29   H17   S    
C34   C74   S    
C7    C78   T    
C2    H46   S    
C75   O18   D    
C63   C71   S    
C65   C66   S    
C22   C27   S    
C60   C63   S    
C16   O14   A    
C46   C49   S    
C76   O24   D    
C35   O12   A    
C42   O6    A    
C12   H32   S    
O36   S3    S    
C8    C80   S    
C75   O19   S    
C25   C30   S    
C15   C17   S    
C4    O11   A    
C21   C25   S    
C46   C47   S    
O33   S3    D    
O31   S2    D    
C61   H38   S    
C50   H20   S    
C3    C67   S    
C21   H9    S    
C6    H45   S    
C3    C5    S    
O40   Zn3   S    
C56   C80   S    
C68   H41   S    
O22   S1    S    
C47   C51   S    
C44   H21   S    
C13   C17   S    
C77   O27   S    
C56   C67   S    
C4    O10   A    
C66   C70   S    
C69   H40   S    
C59   C63   S    
C18   H7    S    
C38   O42   A    
C15   H5    S    
H55   O36   S    
C79   O29   S    
C2    C3    S    
C2    S1    S    
C71   C72   T    
O12   Zn4   S    
C1    O4    A    
C36   C64   S    
C32   C33   T    
O10   Zn1   S    
C11   C13   S    
C53   H28   S    
H50   O22   S    
C23   C52   S    
C5    C6    S    
O4    Zn2   S    
C59   H42   S    
C20   H8    S    
C45   H58   S    
C45   C80   S    
C51   C55   S    
C56   H48   S    
C52   H1    S    
C24   C31   T    
C60   H36   S    
C10   C11   S    
O35   S3    D    
O8    Zn5   S    
C56   H12   S    
C29   C77   S    
H51   O25   S    
C16   C33   S    
O42   Zn3   S    
C37   C72   S    
O34   Zn4   S    
C16   O13   A    
C28   O16   A    
C24   C43   S    
C14   C15   S    
C60   H35   S    
O23   Zn3   S    
C51   C53   S    
C21   C22   S    
C59   C65   S    
C49   C54   S    
C10   C14   S    
C39   C48   S    
O16   Zn2   S    
