data_mof_unit_43024.cif
_audit_creation_date              2012-12-11T16:15:06-0500
_audit_creation_method            fapswitch 2.2
_symmetry_space_group_name_H-M    P1
_symmetry_Int_Tables_number       1
_space_group_crystal_system       triclinic
_cell_length_a                    13.640477
_cell_length_b                    13.669917
_cell_length_c                    28.378282
_cell_angle_alpha                 90.221322
_cell_angle_beta                  89.843555
_cell_angle_gamma                 59.837025
_cell_volume                      4574.95709097

loop_
_atom_site_label
_atom_site_type_symbol
_atom_type_description
_atom_site_fract_x
_atom_site_fract_y
_atom_site_fract_z
_atom_type_partial_charge
C1    C     C_R   0.277515 0.621977 0.565915 0.534733
C2    C     C_1   0.650460 0.638264 0.654529 -0.025481
C3    C     C_R   0.541338 0.902212 0.663442 -0.094306
C4    C     C_R   0.533692 0.970180 0.625400 -0.099602
C5    C     C_R   0.623117 0.988837 0.615316 -0.084768
C6    C     C_R   0.719314 0.941663 0.643888 -0.094255
C7    C     C_R   0.727150 0.873965 0.682084 -0.075011
C8    C     C_R   0.503330 0.126712 0.204094 0.049976
C9    C     C_R   0.386806 0.200690 0.211364 -0.057606
C10   C     C_R   0.307376 0.178469 0.190634 -0.125988
C11   C     C_R   0.343028 0.085709 0.160405 -0.072578
C12   C     C_R   0.458707 0.013087 0.152037 -0.059143
C13   C     C_1   0.634931 0.229315 0.610672 -0.037578
C14   C     C_R   0.538777 0.031493 0.174785 -0.085620
C15   C     C_R   0.829057 0.222514 0.293222 0.013266
C16   C     C_R   0.800540 0.304334 0.328953 -0.087136
C17   C     C_R   0.884288 0.320680 0.349462 -0.057914
C18   C     C_R   0.995662 0.261139 0.332531 -0.059196
C19   C     C_R   0.023531 0.184248 0.295414 -0.109517
C20   C     C_R   0.941613 0.163167 0.276562 -0.105561
C21   C     C_R   0.495986 0.620050 0.747759 0.028504
C22   C     C_R   0.462723 0.601310 0.792256 -0.059280
C23   C     C_R   0.401041 0.545403 0.795926 -0.087859
C24   C     C_R   0.621270 0.599613 0.567012 0.548997
C25   C     C_R   0.369797 0.510628 0.755231 -0.096118
C26   C     C_R   0.395562 0.536797 0.711088 -0.112060
C27   C     C_R   0.458661 0.590744 0.707151 -0.100690
C28   C     C_R   0.853779 0.172662 0.696964 0.069226
C29   C     C_R   0.961089 0.074300 0.696680 -0.049933
C30   C     C_R   0.048037 0.067310 0.668033 -0.112209
C31   C     C_R   0.027877 0.157432 0.638814 -0.093735
C32   C     C_R   0.921476 0.255609 0.638828 -0.043546
C33   C     C_R   0.835041 0.263881 0.668143 -0.029776
C34   C     C_R   0.759120 0.176962 0.724888 -0.005539
C35   C     C_R   0.766987 0.165425 0.774321 0.249481
C36   C     C_R   0.581824 0.179919 0.776939 -0.163562
C37   C     C_R   0.570563 0.193976 0.727873 -0.001432
C38   C     C_R   0.661486 0.189797 0.701807 -0.017211
C39   C     C_R   0.678940 0.165162 0.800014 0.016240
C40   C     C_1   0.691851 0.138213 0.849537 0.010793
C41   C     C_1   0.637935 0.626115 0.613617 -0.002570
C42   C     C_1   0.652441 0.204130 0.651484 -0.072191
C43   C     C_1   0.704689 0.106327 0.889793 0.024336
C44   C     C_1   0.211399 0.648542 0.608471 -0.009224
C45   C     C_R   0.601438 0.278136 0.565259 0.531864
C46   C     C_R   0.095693 0.617566 0.717358 0.255212
C47   C     C_R   0.086259 0.619023 0.766937 0.199325
C48   C     C_R   0.127369 0.772462 0.770652 0.208193
C49   C     C_R   0.140249 0.768051 0.721745 -0.150673
C50   C     C_R   0.126151 0.690009 0.694935 -0.041804
C51   C     C_R   0.104723 0.695334 0.793655 0.003262
C52   C     C_3   0.763990 0.685229 0.754847 -0.062049
C53   C     C_1   0.098754 0.697490 0.844544 0.067371
C54   C     C_1   0.165622 0.670230 0.646622 -0.008741
C55   C     C_1   0.086561 0.707702 0.886722 0.056711
C56   C     C_1   0.639201 0.633640 0.388624 0.007550
C57   C     C_R   0.277123 0.621015 0.434519 0.543392
C58   C     C_R   0.756733 0.605786 0.273567 0.225751
C59   C     C_R   0.758622 0.603560 0.224071 -0.030839
C60   C     C_R   0.554470 0.734508 0.222953 0.219472
C61   C     C_R   0.552181 0.735473 0.272602 -0.029677
C62   C     C_R   0.653446 0.668942 0.297879 -0.007109
C63   C     C_3   0.685541 0.686221 0.794415 -0.018325
C64   C     C_R   0.657859 0.670990 0.198796 -0.013798
C65   C     C_1   0.665673 0.685458 0.148763 0.004662
C66   C     C_1   0.648812 0.653692 0.348090 0.014685
C67   C     C_1   0.685832 0.698854 0.108720 -0.001747
C68   C     C_1   0.636754 0.225620 0.389113 0.033891
C69   C     C_R   0.620852 0.600357 0.434137 0.544555
C70   C     C_R   0.589213 0.156415 0.276790 0.240897
C71   C     C_R   0.587169 0.149782 0.227384 0.012572
C72   C     C_R   0.740005 0.192871 0.222619 -0.120126
C73   C     C_R   0.742606 0.200196 0.271729 -0.034702
C74   C     C_3   0.767607 0.578881 0.734181 0.302815
C75   C     C_R   0.666656 0.180939 0.298754 0.037645
C76   C     C_R   0.664163 0.167542 0.200662 -0.014445
C77   C     C_1   0.676807 0.145330 0.151145 -0.041001
C78   C     C_1   0.657165 0.197964 0.348654 0.021178
C79   C     C_1   0.691758 0.112686 0.111199 0.002852
C80   C     C_1   0.222605 0.639427 0.390305 0.015490
C81   C     C_R   0.601074 0.277014 0.434028 0.544178
C82   C     C_R   0.146002 0.754691 0.277795 -0.119402
C83   C     C_R   0.138637 0.759224 0.228903 0.274089
C84   C     C_R   0.167249 0.568604 0.227328 -0.124329
C85   C     C_3   0.661732 0.651915 0.704772 0.014486
C86   C     C_R   0.175382 0.563843 0.276374 0.276245
C87   C     C_R   0.164893 0.657412 0.301539 0.010683
C88   C     C_R   0.149845 0.665604 0.203627 0.008374
C89   C     C_1   0.130523 0.674507 0.154080 0.005757
C90   C     C_1   0.189881 0.649389 0.350597 0.011319
C91   C     C_1   0.102647 0.692749 0.113683 0.020279
C92   C     C_R   0.720654 0.054887 0.935195 0.540704
C93   C     C_3   0.656582 0.759536 0.725075 -0.040038
C94   C     C_R   0.731721 0.718053 0.932348 0.551984
C95   C     C_R   0.053794 0.731279 0.935318 0.539921
C96   C     C_3   0.692151 0.578989 0.774445 -0.085650
C97   C     C_R   0.713641 0.057061 0.066953 0.543704
C98   C     C_R   0.724386 0.716891 0.064361 0.539979
C99   C     C_R   0.053225 0.727763 0.068554 0.543480
C100  C     C_3   0.578772 0.761916 0.765508 -0.014474
C101  C     C_1   0.706967 0.704531 0.885540 0.018896
C102  C     C_R   0.478453 0.869645 0.783870 0.030729
C103  C     C_R   0.368897 0.905672 0.767119 -0.084067
C104  C     C_R   0.276974 0.007596 0.783308 -0.055078
C105  C     C_R   0.293319 0.073459 0.816592 -0.063525
C106  C     C_R   0.402137 0.038883 0.833105 -0.126002
C107  C     C_3   0.584462 0.654237 0.745166 -0.047965
C108  C     C_R   0.494553 0.938529 0.816278 -0.106325
C109  C     C_R   0.464459 0.210331 0.704733 0.041568
C110  C     C_R   0.409861 0.291463 0.669219 -0.078883
C111  C     C_R   0.314476 0.302712 0.646322 -0.055917
C112  C     C_R   0.269548 0.235149 0.659346 -0.045658
C113  C     C_R   0.320992 0.155458 0.694885 -0.086791
C114  C     C_R   0.417767 0.143024 0.717502 -0.081557
C115  C     C_R   0.863167 0.521675 0.198556 0.088206
C116  C     C_R   0.893950 0.407020 0.197446 -0.049825
C117  C     C_R   0.983894 0.330465 0.168966 -0.114862
C118  C     C_1   0.696039 0.695515 0.844471 -0.029113
C119  C     C_R   0.043279 0.368042 0.141336 -0.111466
C120  C     C_R   0.014857 0.481440 0.143151 -0.099279
C121  C     C_R   0.925343 0.558312 0.171836 -0.061439
C122  C     C_R   0.446876 0.816132 0.297955 0.076671
C123  C     C_R   0.408602 0.932313 0.295351 -0.008880
C124  C     C_R   0.315688 0.009560 0.322278 -0.080828
C125  C     C_R   0.258930 0.971566 0.351256 -0.112838
C126  C     C_R   0.294876 0.856354 0.353173 -0.104135
C127  C     C_R   0.388653 0.778405 0.326646 -0.068900
C128  C     C_R   0.639004 0.851900 0.691547 0.033680
Cl1   Cl    Cl    0.076214 0.521027 0.683304 -0.527404
Cl2   Cl    Cl    0.885646 0.154092 0.804483 -0.527803
Cl3   Cl    Cl    0.058327 0.521054 0.795584 -0.526788
Cl4   Cl    Cl    0.144609 0.872484 0.802965 -0.601875
Cl5   Cl    Cl    0.885602 0.536522 0.304887 -0.579112
Cl6   Cl    Cl    0.426385 0.806212 0.191127 -0.584439
Cl7   Cl    Cl    0.496886 0.130764 0.311982 -0.625414
Cl8   Cl    Cl    0.115345 0.883324 0.200351 -0.584400
Cl9   Cl    Cl    0.200370 0.439528 0.305193 -0.544675
Cl10  Cl    Cl    0.890433 0.452528 0.715834 -0.480687
Cr1   Cr    Cr6+3 0.413560 0.417690 0.499580 1.056508
Cr2   Cr    Cr6+3 0.418030 0.668340 0.500400 1.024133
Cr3   Cr    Cr6+3 0.668390 0.413960 0.499990 1.020693
Cr4   Cr    Cr6+3 0.919710 0.916540 0.003080 1.085671
Cr5   Cr    Cr6+3 0.665300 0.919470 0.999630 1.032109
Cr6   Cr    Cr6+3 0.916060 0.665490 0.000390 1.048431
H1    H     H_    0.166892 0.821787 0.704902 0.131169
H2    H     H_    0.221995 0.152308 0.828879 0.173482
H3    H     H_    0.415344 0.091097 0.858114 0.126942
H4    H     H_    0.578574 0.916367 0.827950 0.120145
H5    H     H_    0.441952 0.345026 0.658189 0.110421
H6    H     H_    0.275188 0.364320 0.618539 0.155669
H7    H     H_    0.195292 0.244294 0.641715 0.138937
H8    H     H_    0.287369 0.101329 0.703705 0.109314
H9    H     H_    0.459182 0.077671 0.743437 0.124890
H10   H     H_    0.846214 0.377785 0.217629 0.124306
H11   H     H_    0.006619 0.242354 0.167860 0.127834
H12   H     H_    0.798561 0.205626 0.201158 0.125826
H13   H     H_    0.111985 0.309047 0.118777 0.115771
H14   H     H_    0.061548 0.509694 0.121858 0.121281
H15   H     H_    0.902412 0.646546 0.172191 0.111864
H16   H     H_    0.452200 0.962473 0.273016 0.179622
H17   H     H_    0.287716 0.098891 0.320697 0.170345
H18   H     H_    0.186833 0.031405 0.372108 0.118255
H19   H     H_    0.249902 0.827900 0.375361 0.131971
H20   H     H_    0.416613 0.689097 0.328890 0.111315
H21   H     H_    0.473233 0.884832 0.669762 0.098134
H22   H     H_    0.459118 0.007008 0.603343 0.113357
H23   H     H_    0.139072 0.826365 0.297167 0.145012
H24   H     H_    0.617909 0.039528 0.585233 0.123547
H25   H     H_    0.788708 0.956086 0.635992 0.117397
H26   H     H_    0.804061 0.835078 0.702674 0.113192
H27   H     H_    0.357652 0.274833 0.233573 0.188450
H28   H     H_    0.218356 0.233408 0.198129 0.140432
H29   H     H_    0.281146 0.069694 0.143732 0.158558
H30   H     H_    0.486444 0.941351 0.128528 0.164342
H31   H     H_    0.628127 0.972057 0.169275 0.116167
H32   H     H_    0.713736 0.356434 0.340761 0.113214
H33   H     H_    0.862151 0.382079 0.377573 0.167033
H34   H     H_    0.174157 0.497076 0.207823 0.136428
H35   H     H_    0.059807 0.276130 0.347581 0.169336
H36   H     H_    0.108540 0.140626 0.281098 0.140412
H37   H     H_    0.966067 0.100834 0.248704 0.172044
H38   H     H_    0.489927 0.624429 0.824132 0.124757
H39   H     H_    0.378872 0.527721 0.830230 0.124113
H40   H     H_    0.323539 0.465713 0.757845 0.155630
H41   H     H_    0.365863 0.516512 0.679647 0.114743
H42   H     H_    0.479761 0.606744 0.672470 0.108323
H43   H     H_    0.976505 0.002819 0.718162 0.160062
H44   H     H_    0.130719 0.991651 0.667929 0.096665
H45   H     H_    0.709539 0.503392 0.795355 0.160559
H46   H     H_    0.094568 0.150860 0.615976 0.097934
H47   H     H_    0.905985 0.325560 0.616255 0.154531
H48   H     H_    0.753057 0.340780 0.667922 0.127933
H49   H     H_    0.836993 0.698349 0.760343 0.162012
H50   H     H_    0.514469 0.180349 0.797476 0.117408
H51   H     H_    0.354633 0.856468 0.740926 0.125309
H52   H     H_    0.193083 0.036943 0.769297 0.193670
O1    O     O_R   0.503010 0.303330 0.550820 -0.519257
O2    O     O_R   0.827060 0.642880 0.947470 -0.485904
O3    O     O_R   0.013800 0.673690 0.954100 -0.493206
O4    O     O_R   0.320040 0.522690 0.547470 -0.497989
O5    O     O_R   0.031250 0.825430 0.055080 -0.474302
O6    O     O_R   0.814180 0.011990 0.050320 -0.487454
O7    O     O_R   0.640680 0.032900 0.051920 -0.513446
O8    O     O_R   0.671090 0.815590 0.046300 -0.498879
O9    O     O_R   0.822940 0.642440 0.050310 -0.504136
O10   O     O_R   0.009970 0.673280 0.049430 -0.518452
O11   O     O_3   0.833690 0.833830 0.001040 -0.269058
O12   O     O_R   0.522480 0.657560 0.452870 -0.491518
O13   O     O_R   0.303930 0.694040 0.551750 -0.512773
O14   O     O_R   0.523510 0.657900 0.548240 -0.500106
O15   O     O_R   0.694770 0.503160 0.551780 -0.506957
O16   O     O_R   0.657990 0.319990 0.547370 -0.498167
O17   O     O_R   0.501900 0.302960 0.447930 -0.471634
O18   O     O_R   0.319020 0.522350 0.452090 -0.468594
O19   O     O_R   0.302820 0.693680 0.448870 -0.529953
O20   O     O_R   0.693670 0.502790 0.448900 -0.513003
O21   O     O_R   0.656970 0.319650 0.452000 -0.514328
O22   O     O_3   0.499990 0.499990 0.499990 -0.258715
O23   O     O_R   0.035380 0.825870 0.952240 -0.480478
O24   O     O_R   0.818010 0.012400 0.954990 -0.475434
O25   O     O_R   0.644810 0.033340 0.949080 -0.519497
O26   O     O_R   0.674910 0.816000 0.950960 -0.501144

loop_
_geom_bond_atom_site_label_1
_geom_bond_atom_site_label_2
_ccdc_geom_bond_type
C58   C62   A    
Cr5   O7    S    
C126  C127  A    
C115  C121  A    
C125  H18   S    
C113  H8    S    
C97   O6    A    
C72   C76   A    
C110  H5    S    
C46   Cl1   S    
Cr5   O25   S    
Cr2   O14   S    
C123  C124  A    
C74   Cl10  S    
C31   H46   S    
C3    H21   S    
C26   C27   A    
C50   C54   S    
C33   H48   S    
C72   H12   S    
C101  C118  T    
Cr4   O6    S    
C98   O8    A    
C28   C29   A    
C37   C38   A    
C84   C86   A    
C38   C42   S    
C52   C74   S    
C117  C119  A    
C70   Cl7   S    
C5    C6    A    
C26   H41   S    
C123  H16   S    
C2    C41   T    
C10   H28   S    
C82   C87   A    
C116  C117  A    
C2    C85   S    
C34   C35   A    
C5    H24   S    
C122  C127  A    
C92   O24   A    
C95   O3    A    
C110  C111  A    
C104  C105  A    
Cr2   O19   S    
Cr3   O21   S    
C85   C93   S    
C48   C51   A    
Cr5   O11   S    
C111  C112  A    
C94   C101  S    
C16   C17   A    
C65   C67   T    
C117  H11   S    
C95   O23   A    
C98   O9    A    
C102  C108  A    
C70   C71   A    
C7    C128  A    
C89   C91   T    
C9    C10   A    
Cr3   O15   S    
C114  H9    S    
C37   C109  S    
C86   Cl9   S    
C25   H40   S    
C126  H19   S    
Cr6   O11   S    
C16   H32   S    
C77   C79   T    
Cr5   O8    S    
C21   C27   A    
C28   C34   S    
C34   C38   A    
C21   C22   A    
C99   O5    A    
Cr5   O26   S    
C120  H14   S    
C24   C41   S    
C73   C75   A    
C57   C80   S    
C61   C62   A    
C69   O20   A    
C103  H51   S    
C97   O7    A    
Cr2   O12   S    
Cr3   O20   S    
C108  H4    S    
C13   C42   T    
C67   C98   S    
C24   O15   A    
Cr2   O13   S    
Cr6   O10   S    
C82   H23   S    
C53   C55   T    
C58   Cl5   S    
C68   C78   T    
C15   C20   A    
C81   O17   A    
C11   H29   S    
C45   O16   A    
C15   C16   A    
C62   C66   S    
C99   O10   A    
C1    O13   A    
Cr4   O5    S    
C74   C96   S    
C76   C77   S    
C55   C95   S    
C39   C40   S    
C63   C118  S    
C24   O14   A    
Cr1   O4    S    
C18   C19   A    
C47   C51   A    
C63   C100  S    
C58   C59   A    
C63   C96   S    
C82   C83   A    
C106  H3    S    
C29   H43   S    
C32   H47   S    
C47   Cl3   S    
C61   C122  S    
C94   O2    A    
C27   H42   S    
C30   H44   S    
C96   H45   S    
C35   C39   A    
C23   H39   S    
C29   C30   A    
C44   C54   T    
Cr3   O22   S    
C104  H52   S    
C1    C44   S    
C31   C32   A    
C93   C100  S    
C30   C31   A    
C119  H13   S    
C81   O21   A    
C40   C43   T    
C100  C102  S    
C17   C18   A    
C8    C9    A    
C112  H7    S    
C49   H1    S    
C52   C93   S    
Cr4   O11   S    
C88   C89   S    
C84   H34   S    
C100  C107  S    
Cr3   O16   S    
Cr4   O24   S    
C83   Cl8   S    
C21   C107  S    
C109  C114  A    
Cr2   O22   S    
C48   C49   A    
C15   C73   S    
C96   C107  S    
C12   C14   A    
C28   C33   A    
C49   C50   A    
C35   Cl2   S    
C125  C126  A    
C9    H27   S    
C1    O4    A    
C68   C81   S    
C3    C4    A    
C111  H6    S    
C60   Cl6   S    
C103  C104  A    
C120  C121  A    
C86   C87   A    
C12   H30   S    
C113  C114  A    
C17   H33   S    
C14   H31   S    
C46   C47   A    
C36   C37   A    
C69   O12   A    
C8    C14   A    
C3    C128  A    
C116  H10   S    
C79   C97   S    
C36   C39   A    
C48   Cl4   S    
C52   H49   S    
C84   C88   A    
C72   C73   A    
C52   C63   S    
C18   H35   S    
C119  C120  A    
Cr1   O1    S    
C127  H20   S    
C6    C7    A    
C105  C106  A    
C46   C50   A    
C43   C92   S    
C57   O19   A    
C60   C64   A    
C91   C99   S    
C64   C65   S    
C19   C20   A    
C25   C26   A    
C93   C128  S    
C22   H38   S    
C109  C110  A    
C32   C33   A    
C13   C45   S    
Cr1   O22   S    
C92   O25   A    
C71   C76   A    
Cr6   O3    S    
C106  C108  A    
Cr1   O17   S    
C56   C66   T    
C105  H2    S    
C4    H22   S    
C83   C88   A    
C112  C113  A    
C23   C25   A    
C74   C85   S    
C80   C90   T    
C102  C103  A    
C75   C78   S    
C36   H50   S    
Cr4   O23   S    
C10   C11   A    
Cr6   O9    S    
C59   C64   A    
C124  H17   S    
C4    C5    A    
Cr6   O2    S    
C57   O18   A    
C7    H26   S    
C59   C115  S    
C56   C69   S    
C121  H15   S    
C87   C90   S    
C70   C75   A    
C94   O26   A    
C22   C23   A    
C60   C61   A    
Cr1   O18   S    
C51   C53   S    
C122  C123  A    
C85   C107  S    
C45   O1    A    
C19   H36   S    
C124  C125  A    
C115  C116  A    
C11   C12   A    
C20   H37   S    
C8    C71   S    
C6    H25   S    
