data_mof_unit_65304.cif
_audit_creation_date              2012-12-10T20:16:11-0500
_audit_creation_method            fapswitch 2.2
_symmetry_space_group_name_H-M    P1
_symmetry_Int_Tables_number       1
_space_group_crystal_system       triclinic
_cell_length_a                    26.140949
_cell_length_b                    36.205735
_cell_length_c                    36.245307
_cell_angle_alpha                 89.948523
_cell_angle_beta                  90.055049
_cell_angle_gamma                 89.736836
_cell_volume                      34304.0615006

loop_
_atom_site_label
_atom_site_type_symbol
_atom_type_description
_atom_site_fract_x
_atom_site_fract_y
_atom_site_fract_z
_atom_type_partial_charge
C1    C     C_R   0.390190 0.501620 0.248632 0.796918
C2    C     C_R   0.890161 0.501721 0.251477 0.801961
C3    C     C_R   0.446049 0.505466 0.245781 -0.091305
C4    C     C_R   0.053240 0.000838 0.747015 -0.100527
C5    C     C_R   0.053663 0.005542 0.246377 -0.091846
C6    C     C_R   0.946215 0.004815 0.752699 -0.099890
C7    C     C_R   0.946051 0.005324 0.245868 -0.091026
C8    C     C_R   0.026424 0.475995 0.268611 -0.215666
C9    C     C_R   0.026588 0.473845 0.735615 -0.208792
C10   C     C_R   0.973648 0.476617 0.270150 -0.210102
C11   C     C_R   0.973763 0.473727 0.735509 -0.209753
C12   C     C_R   0.526457 0.976090 0.269388 -0.214765
C13   C     C_R   0.109699 0.501602 0.748835 0.797233
C14   C     C_R   0.526378 0.976004 0.730637 -0.215173
C15   C     C_R   0.473660 0.977144 0.271092 -0.211222
C16   C     C_R   0.473570 0.977050 0.728934 -0.210038
C17   C     C_R   0.526492 0.476388 0.768250 -0.214851
C18   C     C_R   0.526604 0.474683 0.234405 -0.208627
C19   C     C_R   0.473718 0.476287 0.769072 -0.211054
C20   C     C_R   0.473818 0.474519 0.234345 -0.210394
C21   C     C_R   0.026467 0.976147 0.769517 -0.214789
C22   C     C_R   0.026593 0.974432 0.234730 -0.208963
C23   C     C_R   0.973666 0.977243 0.771222 -0.211544
C24   C     C_R   0.109467 0.500310 0.249383 0.809723
C25   C     C_R   0.973792 0.974281 0.234641 -0.210231
C26   C     C_R   0.284251 0.522516 0.519276 -0.179737
C27   C     C_R   0.284224 0.522498 0.480705 -0.179532
C28   C     C_R   0.715671 0.522674 0.519218 -0.180469
C29   C     C_R   0.715691 0.522661 0.480652 -0.179614
C30   C     C_R   0.784253 0.022522 0.519277 -0.180224
C31   C     C_R   0.784226 0.022504 0.480706 -0.179787
C32   C     C_R   0.215655 0.022673 0.519219 -0.181925
C33   C     C_R   0.215679 0.022662 0.480653 -0.179720
C34   C     C_R   0.784266 0.522508 0.019277 -0.180128
C35   C     C_R   0.390192 0.001696 0.748620 0.802406
C36   C     C_R   0.784239 0.522490 0.980706 -0.179688
C37   C     C_R   0.215640 0.522657 0.019219 -0.181453
C38   C     C_R   0.215662 0.522646 0.980652 -0.179699
C39   C     C_R   0.284250 0.022529 0.019277 -0.180719
C40   C     C_R   0.284225 0.022511 0.980706 -0.180601
C41   C     C_R   0.715643 0.022673 0.019219 -0.182026
C42   C     C_R   0.715663 0.022660 0.980652 -0.181881
C43   C     C_R   0.250008 0.500028 0.538633 0.163060
C44   C     C_R   0.249963 0.499999 0.461366 0.163127
C45   C     C_R   0.750005 0.500037 0.538624 0.163542
C46   C     C_R   0.390222 0.001677 0.251364 0.803235
C47   C     C_R   0.750048 0.500007 0.461377 0.163384
C48   C     C_R   0.750023 0.000024 0.538634 0.163478
C49   C     C_R   0.749977 0.999996 0.461367 0.163340
C50   C     C_R   0.249973 0.000024 0.538625 0.164296
C51   C     C_R   0.250024 0.999998 0.461377 0.163665
C52   C     C_R   0.750015 0.500026 0.038634 0.163264
C53   C     C_R   0.749970 0.499998 0.961367 0.163195
C54   C     C_R   0.249986 0.500030 0.038624 0.163980
C55   C     C_R   0.250033 0.500002 0.961377 0.163508
C56   C     C_R   0.250028 0.000024 0.038634 0.163585
C57   C     C_R   0.609500 0.999706 0.751070 0.807706
C58   C     C_R   0.249986 0.999995 0.961366 0.163699
C59   C     C_R   0.749956 0.000019 0.038624 0.164445
C60   C     C_R   0.749999 0.999989 0.961376 0.164527
C61   C     C_R   0.249983 0.500029 0.150994 0.825114
C62   C     C_R   0.250027 0.500002 0.849006 0.826207
C63   C     C_R   0.749997 0.500015 0.151039 0.823821
C64   C     C_R   0.749993 0.500016 0.848961 0.824511
C65   C     C_R   0.749981 0.000028 0.150994 0.823941
C66   C     C_R   0.750021 0.999999 0.849006 0.823839
C67   C     C_R   0.249998 0.000015 0.151039 0.823961
C68   C     C_R   0.609517 0.999740 0.248920 0.808774
C69   C     C_R   0.249996 0.000014 0.848961 0.826284
C70   C     C_R   0.749985 0.500030 0.650994 0.826616
C71   C     C_R   0.750027 0.500002 0.349006 0.826435
C72   C     C_R   0.249996 0.500016 0.651039 0.823866
C73   C     C_R   0.249994 0.500015 0.348961 0.825661
C74   C     C_R   0.249980 0.000028 0.650994 0.823785
C75   C     C_R   0.250026 0.000001 0.349006 0.826484
C76   C     C_R   0.749999 0.000014 0.651039 0.826368
C77   C     C_R   0.749994 0.000015 0.348961 0.825970
C78   C     C_R   0.215748 0.477529 0.519294 -0.180121
C79   C     C_1   0.249922 0.671712 0.249829 -0.080721
C80   C     C_R   0.215722 0.477510 0.480723 -0.180261
C81   C     C_R   0.784362 0.477383 0.519348 -0.180008
C82   C     C_R   0.784382 0.477370 0.480782 -0.180620
C83   C     C_R   0.715775 0.977515 0.519295 -0.180245
C84   C     C_R   0.715748 0.977497 0.480724 -0.180402
C85   C     C_R   0.284317 0.977360 0.519350 -0.180207
C86   C     C_R   0.284341 0.977348 0.480784 -0.180933
C87   C     C_R   0.715748 0.477533 0.019295 -0.180268
C88   C     C_R   0.715722 0.477514 0.980723 -0.180404
C89   C     C_R   0.284355 0.477386 0.019349 -0.180043
C90   C     C_1   0.249904 0.671717 0.750074 -0.082630
C91   C     C_R   0.284378 0.477374 0.980783 -0.180807
C92   C     C_R   0.215791 0.977507 0.019294 -0.180268
C93   C     C_R   0.215767 0.977488 0.980723 -0.180427
C94   C     C_R   0.784289 0.977347 0.019348 -0.180275
C95   C     C_R   0.784309 0.977334 0.980782 -0.180609
C96   C     C_1   0.250011 0.500028 0.578293 -0.076121
C97   C     C_1   0.249960 0.500000 0.421707 -0.075852
C98   C     C_1   0.749974 0.500054 0.578269 -0.076842
C99   C     C_1   0.750071 0.499985 0.421731 -0.076476
C100  C     C_1   0.750024 0.000023 0.578293 -0.076289
C101  C     C_1   0.749870 0.671717 0.250057 -0.082423
C102  C     C_1   0.749970 0.999999 0.421708 -0.076028
C103  C     C_1   0.249948 0.000045 0.578270 -0.078707
C104  C     C_1   0.250056 0.999979 0.421731 -0.076801
C105  C     C_1   0.750017 0.500026 0.078293 -0.076499
C106  C     C_1   0.749965 0.500000 0.921707 -0.076110
C107  C     C_1   0.249959 0.500049 0.078270 -0.077935
C108  C     C_1   0.250062 0.499982 0.921731 -0.076651
C109  C     C_1   0.250025 0.000025 0.078293 -0.076817
C110  C     C_1   0.249978 0.999997 0.921707 -0.076563
C111  C     C_1   0.749938 0.000042 0.078270 -0.078755
C112  C     C_R   0.390118 0.501708 0.751551 0.800008
C113  C     C_1   0.749886 0.671687 0.749838 -0.081675
C114  C     C_1   0.750034 0.999973 0.921730 -0.078949
C115  C     C_1   0.249967 0.499997 0.388499 -0.137893
C116  C     C_1   0.250009 0.500031 0.611501 -0.137220
C117  C     C_1   0.750065 0.499987 0.388530 -0.139121
C118  C     C_1   0.749968 0.500048 0.611471 -0.139651
C119  C     C_1   0.749972 0.999996 0.388499 -0.138226
C120  C     C_1   0.750016 0.000028 0.611502 -0.138669
C121  C     C_1   0.250058 0.999983 0.388530 -0.139387
C122  C     C_1   0.249952 0.000041 0.611471 -0.141799
C123  C     C_1   0.749969 0.499997 0.888499 -0.137527
C124  C     C_1   0.749929 0.171720 0.249824 -0.080435
C125  C     C_1   0.750012 0.500030 0.111502 -0.137606
C126  C     C_1   0.250061 0.499985 0.888530 -0.139021
C127  C     C_1   0.249959 0.500045 0.111471 -0.140793
C128  C     C_1   0.249977 0.999995 0.888499 -0.138884
C129  C     C_1   0.250016 0.000029 0.111502 -0.137899
C130  C     C_1   0.750044 0.999979 0.888529 -0.141876
C131  C     C_1   0.749948 0.000040 0.111471 -0.141447
C132  C     C_R   0.250036 0.401040 0.249967 0.823289
C133  C     C_R   0.250060 0.401026 0.750046 0.825380
C134  C     C_R   0.750062 0.401026 0.250045 0.825691
C135  C     C_1   0.749937 0.171719 0.750090 -0.080174
C136  C     C_R   0.750039 0.401040 0.749969 0.824014
C137  C     C_R   0.750036 0.901040 0.249967 0.822812
C138  C     C_R   0.750060 0.901070 0.750046 0.824333
C139  C     C_R   0.250061 0.901042 0.250045 0.825768
C140  C     C_R   0.250036 0.901040 0.749968 0.823429
C141  C     C_R   0.249955 0.598963 0.249945 0.822701
C142  C     C_R   0.249964 0.598965 0.750032 0.815538
C143  C     C_R   0.749959 0.598966 0.250029 0.816250
C144  C     C_R   0.749950 0.598935 0.749948 0.820860
C145  C     C_R   0.749957 0.098980 0.249944 0.822883
C146  C     C_1   0.249854 0.171718 0.250047 -0.082282
C147  C     C_R   0.749970 0.098966 0.750036 0.823607
C148  C     C_R   0.249956 0.098966 0.250028 0.817102
C149  C     C_R   0.249948 0.098980 0.749949 0.823957
C150  C     C_R   0.286840 0.769079 0.270452 -0.180425
C151  C     C_R   0.283921 0.769161 0.727155 -0.181160
C152  C     C_R   0.717166 0.769425 0.273595 -0.181231
C153  C     C_R   0.709765 0.769491 0.733524 -0.180395
C154  C     C_R   0.784066 0.269089 0.272856 -0.180935
C155  C     C_R   0.783268 0.269167 0.726649 -0.180808
C156  C     C_R   0.217065 0.269426 0.273524 -0.181189
C157  C     C_1   0.249873 0.171721 0.749856 -0.080116
C158  C     C_R   0.215618 0.269505 0.727576 -0.181444
C159  C     C_R   0.790441 0.769053 0.766466 -0.180038
C160  C     C_R   0.782793 0.769165 0.226318 -0.181252
C161  C     C_R   0.216108 0.769428 0.772793 -0.181303
C162  C     C_R   0.213431 0.769501 0.229511 -0.180987
C163  C     C_R   0.284549 0.269088 0.772458 -0.180871
C164  C     C_R   0.282859 0.269165 0.226367 -0.181203
C165  C     C_R   0.716846 0.269428 0.773346 -0.181398
C166  C     C_R   0.716237 0.269502 0.227096 -0.181521
C167  C     C_R   0.250166 0.788597 0.250022 0.164363
C168  C     C_1   0.249883 0.638501 0.249841 -0.143212
C169  C     C_R   0.250038 0.788631 0.749954 0.164652
C170  C     C_R   0.750007 0.788634 0.249939 0.164591
C171  C     C_R   0.750138 0.788560 0.750036 0.163948
C172  C     C_R   0.750183 0.288632 0.250017 0.164738
C173  C     C_R   0.750077 0.288635 0.749976 0.164466
C174  C     C_R   0.249992 0.288634 0.249930 0.164597
C175  C     C_R   0.250121 0.288633 0.750054 0.164643
C176  C     C_R   0.213355 0.730916 0.229433 -0.180760
C177  C     C_R   0.216063 0.730831 0.772831 -0.183005
C178  C     C_R   0.782746 0.730569 0.226355 -0.182618
C179  C     C_1   0.249897 0.638480 0.750081 -0.144367
C180  C     C_R   0.790360 0.730499 0.766384 -0.181937
C181  C     C_R   0.716159 0.230907 0.227019 -0.181045
C182  C     C_R   0.716804 0.230831 0.773385 -0.181039
C183  C     C_R   0.282809 0.230569 0.226403 -0.182449
C184  C     C_R   0.284468 0.230493 0.772382 -0.182870
C185  C     C_R   0.709681 0.730938 0.733443 -0.180920
C186  C     C_R   0.717115 0.730829 0.273630 -0.183013
C187  C     C_R   0.283880 0.730563 0.727196 -0.182873
C188  C     C_R   0.286767 0.730493 0.270371 -0.182732
C189  C     C_R   0.215535 0.230911 0.727501 -0.180962
C190  C     C_1   0.749876 0.638481 0.250070 -0.144395
C191  C     C_R   0.217012 0.230829 0.273557 -0.183032
C192  C     C_R   0.783228 0.230570 0.726689 -0.182637
C193  C     C_R   0.783991 0.230493 0.272777 -0.183398
C194  C     C_R   0.250021 0.711398 0.249868 0.165393
C195  C     C_R   0.249950 0.711362 0.750034 0.165865
C196  C     C_R   0.749908 0.711362 0.250013 0.165775
C197  C     C_R   0.749980 0.711433 0.749878 0.165386
C198  C     C_R   0.750033 0.211364 0.249864 0.165544
C199  C     C_R   0.749993 0.211364 0.750057 0.165332
C200  C     C_R   0.249887 0.211362 0.250000 0.165778
C201  C     C_1   0.749862 0.638487 0.749848 -0.143730
C202  C     C_R   0.249960 0.211366 0.749907 0.165494
C203  C     C_1   0.250217 0.828286 0.250096 -0.078073
C204  C     C_1   0.250089 0.828280 0.749919 -0.078693
C205  C     C_1   0.750071 0.828281 0.249910 -0.078739
C206  C     C_1   0.750204 0.828309 0.750104 -0.078544
C207  C     C_1   0.750228 0.328279 0.250093 -0.078084
C208  C     C_1   0.750116 0.328282 0.749933 -0.078237
C209  C     C_1   0.250061 0.328281 0.249904 -0.078600
C210  C     C_1   0.250188 0.328280 0.750117 -0.078061
C211  C     C_1   0.749889 0.138496 0.249838 -0.143001
C212  C     C_R   0.609708 0.501804 0.248680 0.797473
C213  C     C_1   0.749918 0.138483 0.750091 -0.142856
C214  C     C_1   0.249866 0.138482 0.250063 -0.144466
C215  C     C_1   0.249854 0.138496 0.749857 -0.143153
C216  C     C_1   0.250197 0.861500 0.250114 -0.140327
C217  C     C_1   0.250100 0.861519 0.749916 -0.139692
C218  C     C_1   0.750092 0.861519 0.249911 -0.139739
C219  C     C_1   0.750192 0.861512 0.750118 -0.139489
C220  C     C_1   0.750201 0.361505 0.250113 -0.140522
C221  C     C_1   0.750114 0.361520 0.749924 -0.140025
C222  C     C_1   0.250087 0.361519 0.249908 -0.139857
C223  C     C_R   0.609490 0.501351 0.750472 0.807215
C224  C     C_1   0.250181 0.361507 0.750125 -0.140484
C225  C     C_R   0.047958 0.558156 0.205147 -0.161648
C226  C     C_R   0.052024 0.572248 0.763217 -0.172947
C227  C     C_R   0.946824 0.568379 0.225772 -0.148416
C228  C     C_R   0.945785 0.572246 0.760781 -0.167144
C229  C     C_R   0.547986 0.051265 0.198630 -0.156267
C230  C     C_R   0.547743 0.051222 0.801333 -0.155274
C231  C     C_R   0.448327 0.065790 0.220338 -0.147682
C232  C     C_R   0.448369 0.065969 0.778872 -0.147547
C233  C     C_R   0.548932 0.567258 0.718557 -0.173797
C234  C     C_R   0.890198 0.001571 0.248668 0.796671
C235  C     C_R   0.551923 0.572457 0.263962 -0.173146
C236  C     C_R   0.444847 0.570980 0.733339 -0.154685
C237  C     C_R   0.445690 0.572333 0.262134 -0.167674
C238  C     C_R   0.048034 0.050437 0.697983 -0.155998
C239  C     C_R   0.051895 0.072307 0.264168 -0.173324
C240  C     C_R   0.948488 0.065408 0.719643 -0.148070
C241  C     C_R   0.945679 0.072266 0.261799 -0.167101
C242  C     C_R   0.020753 0.588730 0.192297 -0.162312
C243  C     C_R   0.024645 0.604145 0.771891 -0.145337
C244  C     C_R   0.970808 0.594453 0.203534 -0.139425
C245  C     C_R   0.890232 0.001667 0.751345 0.803095
C246  C     C_R   0.971772 0.604155 0.770628 -0.143733
C247  C     C_R   0.521687 0.081354 0.183837 -0.158704
C248  C     C_R   0.521541 0.081495 0.815701 -0.157493
C249  C     C_R   0.472616 0.089388 0.195704 -0.144013
C250  C     C_R   0.472622 0.089688 0.803436 -0.144311
C251  C     C_R   0.520599 0.597961 0.707672 -0.160745
C252  C     C_R   0.524477 0.604081 0.273606 -0.143765
C253  C     C_R   0.468976 0.600202 0.715807 -0.137186
C254  C     C_R   0.471625 0.604012 0.272636 -0.144971
C255  C     C_R   0.021814 0.080401 0.682892 -0.158015
C256  C     C_R   0.109700 0.001725 0.248751 0.797499
C257  C     C_R   0.024433 0.103990 0.273541 -0.144881
C258  C     C_R   0.972814 0.088677 0.694741 -0.144574
C259  C     C_R   0.971583 0.103978 0.272288 -0.144366
C260  C     C_R   0.472747 0.033083 0.233292 0.096615
C261  C     C_R   0.472723 0.033196 0.766354 0.096254
C262  C     C_R   0.525621 0.028324 0.226234 0.098581
C263  C     C_R   0.525548 0.028293 0.773598 0.098347
C264  C     C_R   0.972220 0.535237 0.236527 0.095973
C265  C     C_R   0.972225 0.538545 0.754283 0.101185
C266  C     C_R   0.025504 0.531888 0.229889 0.100133
C267  C     C_R   0.109526 0.999685 0.748883 0.808468
C268  C     C_R   0.026714 0.538565 0.754992 0.100354
C269  C     C_R   0.972807 0.032798 0.732908 0.096907
C270  C     C_R   0.972163 0.038703 0.254673 0.101508
C271  C     C_R   0.025648 0.027897 0.725856 0.098497
C272  C     C_R   0.026671 0.038767 0.255398 0.100756
C273  C     C_R   0.471588 0.537807 0.741644 0.099162
C274  C     C_R   0.472163 0.538822 0.254717 0.101823
C275  C     C_R   0.525662 0.536667 0.737040 0.103810
C276  C     C_R   0.526690 0.538938 0.255314 0.100983
C277  C     C_R   0.053160 0.502655 0.248339 -0.098296
C278  C     C_R   0.890215 0.501489 0.748733 0.796026
C279  C     C_R   0.053662 0.505200 0.746580 -0.090968
C280  C     C_R   0.946001 0.505294 0.253563 -0.097849
C281  C     C_R   0.946077 0.505051 0.746058 -0.090241
C282  C     C_R   0.553225 0.001010 0.247110 -0.100387
C283  C     C_R   0.553176 0.001006 0.752897 -0.100467
C284  C     C_R   0.446191 0.004864 0.252796 -0.099765
C285  C     C_R   0.446134 0.004836 0.747026 -0.099613
C286  C     C_R   0.553256 0.505202 0.751378 -0.096082
C287  C     C_R   0.553681 0.505733 0.246188 -0.092246
C288  C     C_R   0.445794 0.505849 0.754664 -0.095277
H1    H     H_    0.315299 0.715550 0.286287 0.139110
H2    H     H_    0.808229 0.715740 0.207997 0.139554
H3    H     H_    0.905032 0.575302 0.757373 0.165570
H4    H     H_    0.584664 0.046091 0.186214 0.182408
H5    H     H_    0.584239 0.045733 0.814069 0.181152
H6    H     H_    0.410932 0.074408 0.229629 0.165511
H7    H     H_    0.410984 0.074561 0.769380 0.164108
H8    H     H_    0.588674 0.569331 0.710974 0.189239
H9    H     H_    0.592787 0.575611 0.262634 0.171241
H10   H     H_    0.405378 0.575490 0.740915 0.161446
H11   H     H_    0.404950 0.575462 0.258973 0.167362
H12   H     H_    0.084674 0.045003 0.685624 0.182046
H13   H     H_    0.189692 0.716199 0.790583 0.139640
H14   H     H_    0.092765 0.075486 0.263048 0.172038
H15   H     H_    0.911168 0.074218 0.728892 0.165804
H16   H     H_    0.904957 0.075407 0.258399 0.166565
H17   H     H_    0.184760 0.716307 0.213462 0.140248
H18   H     H_    0.311227 0.215612 0.789786 0.139543
H19   H     H_    0.308357 0.215740 0.208092 0.139615
H20   H     H_    0.690980 0.216202 0.791544 0.140874
H21   H     H_    0.689773 0.216356 0.209210 0.140881
H22   H     H_    0.315428 0.783687 0.286429 0.141128
H23   H     H_    0.310288 0.783791 0.709400 0.141286
H24   H     H_    0.691687 0.784253 0.291956 0.141436
H25   H     H_    0.310219 0.715728 0.709470 0.139354
H26   H     H_    0.678402 0.784528 0.720695 0.140739
H27   H     H_    0.810443 0.283640 0.290671 0.141431
H28   H     H_    0.809088 0.283796 0.708487 0.141487
H29   H     H_    0.191523 0.284254 0.291839 0.141432
H30   H     H_    0.188858 0.284385 0.710172 0.141693
H31   H     H_    0.821868 0.783744 0.779355 0.140743
H32   H     H_    0.808309 0.783794 0.207933 0.141383
H33   H     H_    0.189772 0.784262 0.790521 0.141319
H34   H     H_    0.184896 0.784442 0.213597 0.141274
H35   H     H_    0.311367 0.283637 0.789922 0.141372
H36   H     H_    0.691599 0.716198 0.292014 0.139817
H37   H     H_    0.308441 0.283794 0.208030 0.141389
H38   H     H_    0.691052 0.284255 0.791478 0.141551
H39   H     H_    0.689910 0.284379 0.209346 0.141595
H40   H     H_    0.046430 0.453661 0.282595 0.174627
H41   H     H_    0.046530 0.448535 0.728297 0.170494
H42   H     H_    0.954307 0.454131 0.284173 0.174665
H43   H     H_    0.954322 0.448348 0.728246 0.170155
H44   H     H_    0.546434 0.954958 0.285081 0.175328
H45   H     H_    0.546368 0.954824 0.715040 0.175071
H46   H     H_    0.454204 0.955940 0.286837 0.175379
H47   H     H_    0.678250 0.716245 0.720560 0.138949
H48   H     H_    0.454083 0.955744 0.713303 0.175350
H49   H     H_    0.546531 0.452721 0.779683 0.174336
H50   H     H_    0.546548 0.449519 0.226423 0.171309
H51   H     H_    0.454544 0.452337 0.780381 0.173881
H52   H     H_    0.454458 0.449302 0.226478 0.171040
H53   H     H_    0.046436 0.955182 0.785414 0.175442
H54   H     H_    0.046537 0.949252 0.226875 0.171085
H55   H     H_    0.954197 0.956214 0.787168 0.175521
H56   H     H_    0.954411 0.949033 0.226879 0.170821
H57   H     H_    0.038900 0.608330 0.173798 0.139803
H58   H     H_    0.810314 0.215614 0.290530 0.139715
H59   H     H_    0.044774 0.629305 0.778909 0.138664
H60   H     H_    0.950218 0.618911 0.194488 0.138352
H61   H     H_    0.950734 0.629332 0.776368 0.137932
H62   H     H_    0.539839 0.098758 0.163361 0.139837
H63   H     H_    0.539616 0.098936 0.836241 0.139528
H64   H     H_    0.452810 0.113567 0.185187 0.138786
H65   H     H_    0.452950 0.114015 0.813595 0.138757
H66   H     H_    0.539253 0.620556 0.693377 0.139398
H67   H     H_    0.544495 0.629207 0.281001 0.138657
H68   H     H_    0.447455 0.624749 0.708482 0.138266
H69   H     H_    0.809020 0.215742 0.708556 0.139732
H70   H     H_    0.450481 0.628946 0.279227 0.138481
H71   H     H_    0.039978 0.097527 0.662216 0.140209
H72   H     H_    0.044468 0.129074 0.281010 0.138796
H73   H     H_    0.953081 0.112781 0.684007 0.139014
H74   H     H_    0.950459 0.128984 0.278597 0.138686
H75   H     H_    0.310843 0.539975 0.466004 0.143104
H76   H     H_    0.310892 0.540020 0.533939 0.142928
H77   H     H_    0.688997 0.540266 0.465922 0.142863
H78   H     H_    0.688963 0.540281 0.533861 0.142243
H79   H     H_    0.810835 0.039990 0.466006 0.142821
H80   H     H_    0.191431 0.216199 0.291894 0.139771
H81   H     H_    0.810885 0.040033 0.533941 0.142299
H82   H     H_    0.188998 0.040277 0.465922 0.142455
H83   H     H_    0.188958 0.040289 0.533861 0.140676
H84   H     H_    0.810863 0.539964 0.966005 0.143001
H85   H     H_    0.810912 0.540008 0.033941 0.142555
H86   H     H_    0.188960 0.540244 0.965922 0.142619
H87   H     H_    0.188922 0.540257 0.033861 0.141219
H88   H     H_    0.310827 0.040002 0.966006 0.141949
H89   H     H_    0.310873 0.040047 0.033941 0.141881
H90   H     H_    0.688987 0.040280 0.965921 0.140093
H91   H     H_    0.188714 0.216361 0.710039 0.141062
H92   H     H_    0.688954 0.040294 0.033861 0.140097
H93   H     H_    0.189129 0.460051 0.533995 0.142509
H94   H     H_    0.189081 0.460006 0.466060 0.142310
H95   H     H_    0.811055 0.459777 0.534078 0.142487
H96   H     H_    0.811089 0.459763 0.466139 0.142249
H97   H     H_    0.689166 0.960029 0.533995 0.142263
H98   H     H_    0.689117 0.959986 0.466060 0.142189
H99   H     H_    0.310998 0.959745 0.534080 0.142082
H100  H     H_    0.311038 0.959732 0.466142 0.142108
H101  H     H_    0.689124 0.460059 0.033995 0.142396
H102  H     H_    0.821722 0.715460 0.779212 0.138369
H103  H     H_    0.689075 0.460015 0.966060 0.142282
H104  H     H_    0.311057 0.459787 0.034080 0.142383
H105  H     H_    0.311095 0.459774 0.966141 0.142265
H106  H     H_    0.189189 0.960015 0.033994 0.142453
H107  H     H_    0.189143 0.959970 0.966060 0.142220
H108  H     H_    0.810965 0.959727 0.034078 0.142428
H109  H     H_    0.810999 0.959713 0.966140 0.142209
H110  H     H_    0.085473 0.555802 0.193246 0.187351
H111  H     H_    0.092913 0.575376 0.762062 0.171514
H112  H     H_    0.908682 0.575322 0.234934 0.162549
O1    O     O_3   0.250000 0.500000 0.250000 -0.476031
O2    O     O_R   0.365800 0.521360 0.728640 -0.651246
O3    O     O_R   0.134190 0.478650 0.271350 -0.638152
O4    O     O_R   0.365810 0.978650 0.728650 -0.641855
O5    O     O_R   0.365810 0.978650 0.271350 -0.642052
O6    O     O_R   0.634190 0.978650 0.728650 -0.638958
O7    O     O_R   0.634190 0.978650 0.271350 -0.638732
O8    O     O_R   0.634200 0.521360 0.271360 -0.654924
O9    O     O_R   0.634200 0.521360 0.728640 -0.666530
O10   O     O_R   0.865800 0.021360 0.271360 -0.653058
O11   O     O_R   0.865800 0.021360 0.728640 -0.655077
O12   O     O_R   0.134200 0.021360 0.271360 -0.655471
O13   O     O_R   0.134200 0.021360 0.728640 -0.665136
O14   O     O_R   0.865800 0.521360 0.771360 -0.652366
O15   O     O_R   0.865800 0.521360 0.228640 -0.652633
O16   O     O_R   0.134200 0.521360 0.771360 -0.655153
O17   O     O_3   0.250000 0.500000 0.750000 -0.477478
O18   O     O_R   0.134200 0.521360 0.228640 -0.667775
O19   O     O_R   0.365800 0.021360 0.771360 -0.654407
O20   O     O_R   0.365800 0.021360 0.228640 -0.654420
O21   O     O_R   0.634200 0.021360 0.771360 -0.664370
O22   O     O_R   0.634200 0.021360 0.228640 -0.665353
O23   O     O_R   0.280370 0.478660 0.168540 -0.635851
O24   O     O_R   0.280370 0.478660 0.831460 -0.637987
O25   O     O_R   0.719630 0.478660 0.168540 -0.636936
O26   O     O_R   0.719630 0.478660 0.831460 -0.636751
O27   O     O_R   0.780370 0.978660 0.168540 -0.635489
O28   O     O_3   0.750000 0.500000 0.250000 -0.477182
O29   O     O_R   0.780370 0.978660 0.831460 -0.636888
O30   O     O_R   0.219630 0.978660 0.168540 -0.636700
O31   O     O_R   0.219630 0.978660 0.831460 -0.635686
O32   O     O_R   0.780370 0.478660 0.668540 -0.636248
O33   O     O_R   0.780370 0.478660 0.331460 -0.638257
O34   O     O_R   0.219630 0.478660 0.668540 -0.636775
O35   O     O_R   0.219630 0.478660 0.331460 -0.636075
O36   O     O_R   0.280370 0.978660 0.668540 -0.636615
O37   O     O_R   0.280370 0.978660 0.331460 -0.638374
O38   O     O_R   0.719630 0.978660 0.668540 -0.635608
O39   O     O_3   0.750000 0.500000 0.750000 -0.476323
O40   O     O_R   0.719630 0.978660 0.331460 -0.635898
O41   O     O_R   0.280390 0.418540 0.228640 -0.636704
O42   O     O_R   0.280390 0.418540 0.771360 -0.636500
O43   O     O_R   0.719610 0.418540 0.228640 -0.635683
O44   O     O_R   0.719610 0.418540 0.771360 -0.636281
O45   O     O_R   0.780390 0.918540 0.228640 -0.636802
O46   O     O_R   0.780390 0.918540 0.771360 -0.636731
O47   O     O_R   0.219610 0.918540 0.228640 -0.635869
O48   O     O_R   0.219610 0.918540 0.771360 -0.637526
O49   O     O_R   0.780390 0.418540 0.728640 -0.636688
O50   O     O_3   0.750000 0.000000 0.250000 -0.476188
O51   O     O_R   0.780390 0.418540 0.271360 -0.636382
O52   O     O_R   0.219610 0.418540 0.728640 -0.635762
O53   O     O_R   0.219610 0.418540 0.271360 -0.637079
O54   O     O_R   0.280390 0.918540 0.728640 -0.636367
O55   O     O_R   0.280390 0.918540 0.271360 -0.636409
O56   O     O_R   0.719610 0.918540 0.728640 -0.637580
O57   O     O_R   0.719610 0.918540 0.271360 -0.637431
O58   O     O_R   0.280340 0.581460 0.271360 -0.645331
O59   O     O_R   0.280340 0.581460 0.728640 -0.644785
O60   O     O_R   0.719660 0.581460 0.271360 -0.645285
O61   O     O_3   0.750000 0.000000 0.750000 -0.475744
O62   O     O_R   0.719660 0.581460 0.728640 -0.644731
O63   O     O_R   0.780340 0.081460 0.271360 -0.645440
O64   O     O_R   0.780340 0.081460 0.728640 -0.645935
O65   O     O_R   0.219660 0.081460 0.271360 -0.645345
O66   O     O_R   0.219660 0.081460 0.728640 -0.636554
O67   O     O_R   0.780340 0.581460 0.771360 -0.644341
O68   O     O_R   0.780340 0.581460 0.228640 -0.644856
O69   O     O_R   0.219660 0.581460 0.771360 -0.645096
O70   O     O_R   0.219660 0.581460 0.228640 -0.639481
O71   O     O_R   0.280340 0.081460 0.771360 -0.645731
O72   O     O_3   0.250000 0.000000 0.250000 -0.476890
O73   O     O_R   0.280340 0.081460 0.228640 -0.644776
O74   O     O_R   0.719660 0.081460 0.771360 -0.636517
O75   O     O_R   0.719660 0.081460 0.228640 -0.636795
O76   O     O_R   0.219630 0.521370 0.168530 -0.643119
O77   O     O_R   0.219630 0.521370 0.831470 -0.633602
O78   O     O_R   0.780370 0.521370 0.168530 -0.633586
O79   O     O_R   0.780370 0.521370 0.831470 -0.632894
O80   O     O_R   0.719630 0.021370 0.168530 -0.645224
O81   O     O_R   0.719630 0.021370 0.831470 -0.644599
O82   O     O_R   0.280370 0.021370 0.168530 -0.634178
O83   O     O_3   0.250000 0.000000 0.750000 -0.475755
O84   O     O_R   0.280370 0.021370 0.831470 -0.633681
O85   O     O_R   0.719630 0.521370 0.668530 -0.638327
O86   O     O_R   0.719630 0.521370 0.331470 -0.633429
O87   O     O_R   0.280370 0.521370 0.668530 -0.633090
O88   O     O_R   0.280370 0.521370 0.331470 -0.632828
O89   O     O_R   0.219630 0.021370 0.668530 -0.645024
O90   O     O_R   0.219630 0.021370 0.331470 -0.633519
O91   O     O_R   0.780370 0.021370 0.668530 -0.633753
O92   O     O_R   0.780370 0.021370 0.331470 -0.632840
O93   O     O_R   0.365810 0.478650 0.228650 -0.640201
O94   O     O_R   0.365800 0.521360 0.271360 -0.653306
O95   O     O_R   0.365810 0.478650 0.771350 -0.642394
O96   O     O_R   0.634190 0.478650 0.228650 -0.638983
O97   O     O_R   0.634190 0.478650 0.771350 -0.637958
O98   O     O_R   0.865810 0.978650 0.228650 -0.640126
O99   O     O_R   0.865810 0.978650 0.771350 -0.641861
O100  O     O_R   0.134190 0.978650 0.228650 -0.638933
O101  O     O_R   0.134190 0.978650 0.771350 -0.638897
O102  O     O_R   0.865810 0.478650 0.728650 -0.640143
O103  O     O_R   0.865810 0.478650 0.271350 -0.642412
O104  O     O_R   0.134190 0.478650 0.728650 -0.638753
Zn1   Zn    Zn3+2 0.206610 0.530520 0.219480 0.958380
Zn2   Zn    Zn3+2 0.706610 0.530520 0.280520 0.964300
Zn3   Zn    Zn3+2 0.293390 0.530520 0.719480 0.965240
Zn4   Zn    Zn3+2 0.293390 0.530520 0.280520 0.968079
Zn5   Zn    Zn3+2 0.206610 0.030520 0.719480 0.959925
Zn6   Zn    Zn3+2 0.206610 0.030520 0.280520 0.964248
Zn7   Zn    Zn3+2 0.793390 0.030520 0.719480 0.966870
Zn8   Zn    Zn3+2 0.793390 0.030520 0.280520 0.968539
Zn9   Zn    Zn3+2 0.293390 0.469490 0.219490 0.974425
Zn10  Zn    Zn3+2 0.293390 0.469490 0.780510 0.974872
Zn11  Zn    Zn3+2 0.706610 0.469490 0.219490 0.976312
Zn12  Zn    Zn3+2 0.206610 0.530520 0.780520 0.963913
Zn13  Zn    Zn3+2 0.706610 0.469490 0.780510 0.977378
Zn14  Zn    Zn3+2 0.793390 0.969490 0.219490 0.973750
Zn15  Zn    Zn3+2 0.793390 0.969490 0.780510 0.973359
Zn16  Zn    Zn3+2 0.206610 0.969490 0.219490 0.976388
Zn17  Zn    Zn3+2 0.206610 0.969490 0.780510 0.977154
Zn18  Zn    Zn3+2 0.793390 0.469490 0.719490 0.975524
Zn19  Zn    Zn3+2 0.793390 0.469490 0.280510 0.975139
Zn20  Zn    Zn3+2 0.206610 0.469490 0.719490 0.976399
Zn21  Zn    Zn3+2 0.206610 0.469490 0.280510 0.977514
Zn22  Zn    Zn3+2 0.293390 0.969490 0.719490 0.973083
Zn23  Zn    Zn3+2 0.793390 0.530520 0.219480 0.964281
Zn24  Zn    Zn3+2 0.293390 0.969490 0.280510 0.975332
Zn25  Zn    Zn3+2 0.706610 0.969490 0.719490 0.977261
Zn26  Zn    Zn3+2 0.706610 0.969490 0.280510 0.976930
Zn27  Zn    Zn3+2 0.793390 0.530520 0.780520 0.967295
Zn28  Zn    Zn3+2 0.706610 0.030520 0.219480 0.959411
Zn29  Zn    Zn3+2 0.706610 0.030520 0.780520 0.959964
Zn30  Zn    Zn3+2 0.293390 0.030520 0.219480 0.963477
Zn31  Zn    Zn3+2 0.293390 0.030520 0.780520 0.967191
Zn32  Zn    Zn3+2 0.706610 0.530520 0.719480 0.958850

loop_
_geom_bond_atom_site_label_1
_geom_bond_atom_site_label_2
_ccdc_geom_bond_type
O17   Zn10  S    
O58   Zn4   S    
C237  C274  A    
C37   H87   S    
C27   H75   S    
C2    O103  A    
C265  C281  A    
O39   Zn32  S    
C229  C262  A    
C82   H96   S    
O39   Zn18  S    
O99   Zn15  S    
C54   C107  S    
O49   Zn18  S    
C5    C256  S    
C254  H70   S    
C95   H109  S    
O28   Zn19  S    
C20   H52   S    
C135  C199  S    
O56   Zn25  S    
C145  O63   A    
C241  C270  A    
O82   Zn30  S    
C175  C210  S    
O24   Zn10  S    
C36   C53   A    
C53   C106  S    
C90   C195  S    
C112  O2    A    
C242  C244  A    
C143  O68   A    
O64   Zn7   S    
C113  C201  T    
C236  C253  A    
C97   C115  T    
O51   Zn19  S    
O61   Zn7   S    
O32   Zn18  S    
O60   Zn2   S    
C50   C103  S    
C147  O74   A    
O71   Zn31  S    
C246  H61   S    
C209  C222  T    
C114  C130  T    
C67   C129  S    
C137  O57   A    
C255  H71   S    
C132  O53   A    
C260  C284  A    
C248  C250  A    
C227  C264  A    
C261  C285  A    
O35   Zn21  S    
O84   Zn31  S    
C64   O26   A    
C48   C100  S    
O50   Zn26  S    
C40   C58   A    
C237  C254  A    
C46   O5    A    
C170  C205  S    
C49   C102  S    
C62   C126  S    
C31   H79   S    
O68   Zn23  S    
C51   C104  S    
C250  H65   S    
C138  O56   A    
C37   C38   A    
C236  H10   S    
O65   Zn6   S    
C239  H14   S    
C152  C170  A    
C154  H27   S    
O83   Zn22  S    
O39   Zn27  S    
C39   C56   A    
C61   O76   A    
C139  C216  S    
C43   C96   S    
C26   C27   A    
C61   C127  S    
C184  H18   S    
C171  C206  S    
C79   C194  S    
C160  C178  A    
C63   C125  S    
O17   Zn12  S    
C269  C271  A    
C14   C283  A    
C270  C272  A    
C57   O21   A    
C161  C177  A    
C39   C40   A    
C77   O40   A    
C3    C274  A    
C261  C263  A    
C14   H45   S    
C72   C116  S    
C141  C168  S    
C177  C195  A    
C58   C110  S    
C239  C257  A    
C45   C81   A    
C182  C199  A    
C148  C214  S    
C124  C211  T    
C163  H35   S    
C206  C219  T    
C244  H60   S    
C105  C125  T    
O47   Zn16  S    
C34   H85   S    
C107  C127  T    
C81   H95   S    
C57   C283  S    
C138  O46   A    
C9    H41   S    
O74   Zn29  S    
C76   O38   A    
O28   Zn2   S    
C144  O62   A    
C144  O67   A    
C146  C200  S    
O7    Zn26  S    
C21   H53   S    
O54   Zn22  S    
O30   Zn16  S    
C13   C279  S    
C60   C95   A    
C8    C10   A    
O81   Zn29  S    
C96   C116  T    
O23   Zn9   S    
C185  C197  A    
C16   C285  A    
O83   Zn31  S    
O36   Zn22  S    
C102  C119  T    
C110  C128  T    
C276  C287  A    
C151  H23   S    
C152  H24   S    
C46   C284  S    
O1    Zn4   S    
C60   C114  S    
O6    Zn25  S    
C159  C180  A    
C189  H91   S    
C163  C175  A    
O31   Zn17  S    
C8    C277  A    
O83   Zn5   S    
C85   C86   A    
C4    C267  S    
C268  C279  A    
O43   Zn11  S    
C212  O96   A    
C133  O42   A    
C29   C47   A    
O9    Zn32  S    
O67   Zn27  S    
C49   C84   A    
C30   C48   A    
C134  O51   A    
C40   H88   S    
C12   H44   S    
C150  C188  A    
C140  O48   A    
C78   C80   A    
C228  C246  A    
C75   O37   A    
O61   Zn25  S    
C227  H112  S    
C252  H67   S    
C47   C99   S    
C42   H90   S    
O1    Zn21  S    
C92   C93   A    
O11   Zn7   S    
C134  O43   A    
O50   Zn14  S    
C24   O18   A    
C69   C128  S    
C22   C25   A    
C35   C285  S    
C1    O94   A    
C89   C91   A    
C39   H89   S    
C101  C196  S    
O89   Zn5   S    
O37   Zn24  S    
C161  C169  A    
C162  H34   S    
C7    C234  S    
C150  H22   S    
C166  C172  A    
C156  H29   S    
C10   H42   S    
C15   C284  A    
C235  C252  A    
O28   Zn23  S    
C212  O8    A    
C212  C287  S    
O12   Zn6   S    
C98   C118  T    
C76   O91   A    
C68   C282  S    
C155  H28   S    
C22   H54   S    
C32   H83   S    
C38   C55   A    
C38   H86   S    
C191  C200  A    
O72   Zn16  S    
C152  C186  A    
C227  C244  A    
O61   Zn15  S    
O39   Zn13  S    
C178  C196  A    
C1    C3    S    
C240  C269  A    
C149  C215  S    
O13   Zn5   S    
C99   C117  T    
C87   H101  S    
C59   C111  S    
C83   C84   A    
C243  C246  A    
O22   Zn28  S    
C165  H38   S    
C164  H37   S    
C257  H72   S    
C33   H82   S    
C235  C276  A    
C65   O27   A    
O88   Zn4   S    
C111  C131  T    
O73   Zn30  S    
C52   C105  S    
C109  C129  T    
C225  H110  S    
O52   Zn20  S    
O53   Zn21  S    
C231  C249  A    
C159  H31   S    
C56   C109  S    
C160  H32   S    
C140  O54   A    
C5    C272  A    
O94   Zn4   S    
C91   H105  S    
C183  H19   S    
C7    C270  A    
C2    O15   A    
C147  C213  S    
C138  C219  S    
C66   O29   A    
C189  C202  A    
C148  O73   A    
O85   Zn32  S    
C183  C200  A    
C151  C169  A    
C48   C83   A    
O2    Zn3   S    
C108  C126  T    
C143  O60   A    
C164  C183  A    
C23   H55   S    
C232  H7    S    
C17   C286  A    
C275  C286  A    
O19   Zn31  S    
O42   Zn10  S    
C134  C220  S    
C19   C288  A    
C273  C275  A    
C249  H64   S    
C228  H3    S    
C274  C276  A    
O48   Zn17  S    
C158  H30   S    
O96   Zn11  S    
C238  C271  A    
C63   O25   A    
C155  C192  A    
C144  C201  S    
C229  C247  A    
C156  C191  A    
C140  C217  S    
C149  O66   A    
C67   O82   A    
C240  C258  A    
O102  Zn18  S    
C247  H62   S    
C35   O19   A    
C16   H48   S    
C87   C88   A    
C93   H107  S    
C181  H21   S    
C178  H2    S    
C174  C209  S    
C41   C42   A    
O95   Zn10  S    
C145  O75   A    
C112  O95   A    
O20   Zn30  S    
C57   O6    A    
O8    Zn2   S    
C188  H1    S    
O14   Zn27  S    
C43   C78   A    
C151  C187  A    
C156  C174  A    
C207  C220  T    
C159  C171  A    
C239  C272  A    
O26   Zn13  S    
C132  C222  S    
C165  C182  A    
O1    Zn1   S    
C28   C29   A    
C58   C93   A    
C31   C49   A    
C248  H63   S    
C45   C98   S    
C30   C31   A    
C24   C277  S    
O17   Zn20  S    
C193  C198  A    
C52   C87   A    
C124  C198  S    
C71   C117  S    
C236  C273  A    
C55   C91   A    
C50   C85   A    
C90   C179  T    
C154  C193  A    
C141  O70   A    
C223  O9    A    
C278  C281  S    
O72   Zn6   S    
C164  C174  A    
O100  Zn16  S    
C59   C94   A    
C167  C203  S    
C253  H68   S    
C17   H49   S    
O103  Zn19  S    
C142  O59   A    
C71   O33   A    
C4    C271  A    
C247  C249  A    
C255  C258  A    
O87   Zn3   S    
C136  O49   A    
C259  H74   S    
C68   O7    A    
C85   H99   S    
C6    C269  A    
O40   Zn26  S    
C233  C275  A    
C86   H100  S    
O72   Zn30  S    
C223  O97   A    
C133  O52   A    
C245  O99   A    
C51   C86   A    
C84   H98   S    
C18   H50   S    
C71   O86   A    
C172  C207  S    
C266  C277  A    
O15   Zn23  S    
C256  O100  A    
C157  C215  T    
O1    Zn9   S    
C267  O101  A    
O4    Zn22  S    
C203  C216  T    
C44   C80   A    
C74   O36   A    
C231  H6    S    
C101  C190  T    
C191  H80   S    
C278  O102  A    
C18   C287  A    
C69   O31   A    
C78   H93   S    
C70   O32   A    
O44   Zn13  S    
C73   O88   A    
C74   O89   A    
C68   O22   A    
O46   Zn15  S    
O66   Zn5   S    
C72   O87   A    
C223  C286  S    
C12   C15   A    
O98   Zn14  S    
O62   Zn32  S    
C3    C20   A    
C251  H66   S    
C76   C120  S    
O28   Zn11  S    
C55   C108  S    
C241  H16   S    
O59   Zn3   S    
O78   Zn23  S    
C137  C218  S    
O41   Zn9   S    
C74   C122  S    
C21   C23   A    
O69   Zn12  S    
O93   Zn9   S    
C193  H58   S    
C226  H111  S    
C15   H46   S    
C11   C281  A    
C67   O30   A    
C233  C251  A    
C252  C254  A    
C62   O77   A    
C186  C196  A    
C235  H9    S    
C258  H73   S    
C163  C184  A    
O101  Zn17  S    
O5    Zn24  S    
C233  H8    S    
O104  Zn20  S    
C33   C51   A    
C64   C123  S    
C180  H102  S    
C231  C260  A    
C238  C255  A    
C13   O16   A    
C34   C52   A    
C73   C115  S    
C32   C33   A    
C225  C242  A    
O91   Zn7   S    
C89   H104  S    
C2    C280  S    
C63   O78   A    
C243  H59   S    
C226  C243  A    
C262  C282  A    
C19   H51   S    
C150  C167  A    
C186  H36   S    
O75   Zn28  S    
O50   Zn8   S    
C187  H25   S    
O34   Zn20  S    
C94   C95   A    
O29   Zn15  S    
O79   Zn27  S    
C141  O58   A    
C264  C266  A    
C26   H76   S    
C273  C288  A    
C166  H39   S    
C9    C279  A    
C46   O20   A    
C1    O93   A    
C103  C122  T    
O72   Zn24  S    
C28   H78   S    
C237  H11   S    
C64   O79   A    
C226  C268  A    
C169  C204  S    
C238  H12   S    
C245  O11   A    
C149  O71   A    
C267  O13   A    
C6    C245  S    
C234  O10   A    
C133  C224  S    
C81   C82   A    
O10   Zn8   S    
C234  O98   A    
C210  C224  T    
C70   C118  S    
O18   Zn1   S    
O33   Zn19  S    
C251  C253  A    
C162  C176  A    
C165  C173  A    
C36   H84   S    
C69   O84   A    
O16   Zn12  S    
C263  C283  A    
C18   C20   A    
C73   O35   A    
C180  C197  A    
C176  C194  A    
C264  C280  A    
C136  C221  S    
C142  O69   A    
C24   O3    A    
C106  C123  T    
C100  C120  T    
C79   C168  T    
C173  C208  S    
O90   Zn6   S    
C34   C36   A    
O57   Zn26  S    
C155  C173  A    
C70   O85   A    
C188  C194  A    
O97   Zn13  S    
C148  O65   A    
C66   C130  S    
C166  C181  A    
C80   H94   S    
C181  C198  A    
C27   C44   A    
C66   O81   A    
C65   C131  S    
C26   C43   A    
C35   O4    A    
C147  O64   A    
O80   Zn28  S    
C28   C45   A    
C184  C202  A    
C232  C261  A    
C5    C22   A    
C113  C197  S    
C13   O104  A    
C41   C59   A    
C54   C89   A    
C260  C262  A    
C228  C265  A    
C158  C189  A    
C42   C60   A    
O17   Zn3   S    
O83   Zn17  S    
C104  C121  T    
C278  O14   A    
C208  C221  T    
C65   O80   A    
C10   C280  A    
C257  C259  A    
C30   H81   S    
C132  O41   A    
O27   Zn14  S    
C62   O24   A    
O63   Zn8   S    
O77   Zn12  S    
C94   H108  S    
C44   C97   S    
C158  C175  A    
C142  C179  S    
C72   O34   A    
C92   H106  S    
C205  C218  T    
C153  C171  A    
O70   Zn1   S    
C177  H13   S    
C154  C172  A    
C146  C214  T    
C7    C25   A    
O92   Zn8   S    
C9    C11   A    
C32   C50   A    
O38   Zn25  S    
C37   C54   A    
C83   H97   S    
C139  O47   A    
C192  H69   S    
C88   H103  S    
C14   C16   A    
C232  C250  A    
C242  H57   S    
C225  C266  A    
C192  C199  A    
C230  C248  A    
C41   H92   S    
C75   O90   A    
C29   H77   S    
C185  H47   S    
C230  C263  A    
C160  C170  A    
C241  C259  A    
C187  C195  A    
C75   C121  S    
C47   C82   A    
C229  H4    S    
O21   Zn29  S    
C77   C119  S    
C176  H17   S    
O50   Zn28  S    
C204  C217  T    
C230  H5    S    
O3    Zn21  S    
O86   Zn2   S    
C136  O44   A    
C4    C21   A    
C135  C213  T    
C153  C185  A    
C6    C23   A    
C17   C19   A    
C143  C190  S    
C182  H20   S    
O45   Zn14  S    
C53   C88   A    
C139  O55   A    
C25   H56   S    
C265  C268  A    
C8    H40   S    
C153  H26   S    
C161  H33   S    
C162  C167  A    
C137  O45   A    
C240  H15   S    
O61   Zn29  S    
O25   Zn11  S    
C256  O12   A    
C11   H43   S    
C157  C202  S    
C112  C288  S    
C145  C211  S    
O76   Zn1   S    
C56   C92   A    
C77   O92   A    
C12   C282  A    
O55   Zn24  S    
C61   O23   A    
