data_mof_unit_47248.cif
_audit_creation_date              2012-12-11T18:07:11-0500
_audit_creation_method            fapswitch 2.2
_symmetry_space_group_name_H-M    P1
_symmetry_Int_Tables_number       1
_space_group_crystal_system       triclinic
_cell_length_a                    8.260238
_cell_length_b                    12.851932
_cell_length_c                    26.94577
_cell_angle_alpha                 97.849306
_cell_angle_beta                  92.282983
_cell_angle_gamma                 81.096453
_cell_volume                      2799.1048694

loop_
_atom_site_label
_atom_site_type_symbol
_atom_type_description
_atom_site_fract_x
_atom_site_fract_y
_atom_site_fract_z
_atom_type_partial_charge
Ba1   Ba    Ba6+2 0.859560 0.448380 0.523550 1.629616
Ba2   Ba    Ba6+2 0.330270 0.551530 0.476440 1.636157
C1    C     C_3   0.646502 0.088613 0.664160 -0.385048
C2    C     C_3   0.660473 0.188547 0.641272 0.332832
C3    C     C_3   0.553812 0.731594 0.633301 0.380291
C4    C     C_3   0.645684 0.764972 0.681706 -0.300886
C5    C     C_3   0.994299 0.817542 0.339495 0.305866
C6    C     C_3   0.005089 0.862710 0.290065 -0.106201
C7    C     C_3   0.522125 0.813579 0.357834 0.324365
C8    C     C_3   0.538125 0.911725 0.333577 -0.381129
C9    C     C_R   0.028867 0.416131 0.177861 0.588400
C10   C     C_R   0.896883 0.596770 0.182896 0.601772
C11   C     C_2   0.735820 0.522423 0.269881 -0.093749
C12   C     C_3   0.167121 0.217822 0.661479 0.336262
C13   C     C_3   0.687990 0.512456 0.322744 -0.059993
C14   C     C_1   0.980071 0.475621 0.343519 0.039443
C15   C     C_2   0.023118 0.473597 0.296178 -0.108374
C16   C     C_2   0.895759 0.501533 0.256566 0.202740
C17   C     C_R   0.022486 0.509250 0.104029 -0.114676
C18   C     C_R   0.070322 0.417209 0.127443 -0.030190
C19   C     C_R   0.157128 0.327044 0.099806 -0.056708
C20   C     C_R   0.935648 0.600583 0.132072 -0.021634
C21   C     C_2   0.832656 0.521860 0.358689 -0.077731
C22   C     C_2   0.350214 0.477293 0.641417 -0.256202
C23   C     C_3   0.129926 0.197472 0.714007 -0.090922
C24   C     C_R   0.195785 0.419462 0.974377 0.026230
C25   C     C_R   0.040729 0.599469 0.976520 0.009183
C26   C     C_R   0.136945 0.509697 0.949868 0.047883
C27   C     C_R   0.296604 0.333570 0.946864 -0.102402
C28   C     C_R   0.334338 0.334939 0.897096 -0.058672
C29   C     C_R   0.274110 0.421988 0.872053 -0.026295
C30   C     C_R   0.174774 0.509952 0.898238 -0.113489
C31   C     C_R   0.113669 0.597762 0.872827 -0.027577
C32   C     C_R   0.155909 0.595717 0.821750 0.608635
C33   C     C_R   0.312270 0.422287 0.821319 0.571015
C34   C     C_3   0.202559 0.217418 0.409896 0.246494
C35   C     C_2   0.454786 0.489905 0.729730 -0.068019
C36   C     C_3   0.497124 0.491721 0.675372 -0.018855
C37   C     C_1   0.205351 0.524957 0.657045 0.072782
C38   C     C_2   0.164659 0.528665 0.704662 -0.113266
C39   C     C_2   0.295821 0.508254 0.744202 0.202203
C40   C     C_R   0.152893 0.417893 0.025296 0.026162
C41   C     C_R   0.061604 0.509490 0.052509 0.048433
C42   C     C_R   0.009060 0.601103 0.028641 0.009036
C43   C     C_R   0.197417 0.327166 0.050136 -0.101905
C44   C     C_R   0.891180 0.692987 0.108478 0.169416
C45   C     C_3   0.183473 0.102787 0.390684 -0.124262
C46   C     C_R   0.976993 0.684478 0.949742 -0.128669
C47   C     C_R   0.011940 0.684698 0.899288 0.163707
C48   C     C_R   0.927922 0.692308 0.058101 -0.128061
C49   C     C_R   0.759628 0.823056 0.479550 -0.265618
C50   C     C_R   0.435030 0.190350 0.521844 -0.283170
C51   C     C_R   0.414756 0.013286 0.539020 -0.103194
C52   C     C_R   0.351430 0.120641 0.542459 -0.024680
C53   C     C_R   0.578682 0.153628 0.495199 0.069194
C54   C     C_R   0.642137 0.042468 0.489428 -0.059221
C55   C     C_R   0.557747 0.971895 0.511821 -0.050925
C56   C     C_3   0.982677 0.774597 0.581056 0.268771
C57   C     C_R   0.616710 0.861295 0.505417 0.055644
C58   C     C_R   0.846168 0.889984 0.458669 -0.010967
C59   C     C_R   0.785618 0.998818 0.461987 -0.095930
C60   C     C_3   0.981661 0.893795 0.592742 -0.345490
C61   C     C_3   0.712780 0.289001 0.372315 0.283861
C62   C     C_3   0.707652 0.250902 0.315769 -0.105249
H1    H     H_    0.769192 0.172144 0.616782 0.091246
H2    H     H_    0.231217 0.081023 0.352135 0.128804
H3    H     H_    0.051520 0.094224 0.389094 0.099909
H4    H     H_    0.857771 0.758454 0.570789 -0.010379
H5    H     H_    0.065311 0.744591 0.549137 0.088393
H6    H     H_    0.906708 0.925559 0.626147 0.113675
H7    H     H_    0.929702 0.934323 0.560696 0.092564
H8    H     H_    0.108660 0.910762 0.600562 0.131857
H9    H     H_    0.839425 0.299431 0.384323 0.013202
H10   H     H_    0.627249 0.023322 0.634059 0.090893
H11   H     H_    0.750106 0.309450 0.294764 0.061669
H12   H     H_    0.579209 0.243863 0.303564 0.119764
H13   H     H_    0.547768 0.208532 0.618646 -0.036560
H14   H     H_    0.541251 0.103326 0.689816 0.164905
H15   H     H_    0.623961 0.656400 0.615195 0.079431
H16   H     H_    0.661734 0.700184 0.705691 0.079983
H17   H     H_    0.768168 0.782064 0.673127 0.132168
H18   H     H_    0.760262 0.064470 0.685744 0.122375
H19   H     H_    0.165762 0.262839 0.741545 0.109276
H20   H     H_    0.025816 0.729585 0.333008 0.050316
H21   H     H_    0.866059 0.839927 0.351806 -0.081268
H22   H     H_    0.013841 0.948778 0.297826 0.112339
H23   H     H_    0.633517 0.794501 0.380910 -0.013974
H24   H     H_    0.414235 0.831005 0.382460 0.118858
H25   H     H_    0.628432 0.891243 0.303136 0.139417
H26   H     H_    0.579923 0.973938 0.361659 0.071796
H27   H     H_    0.106553 0.299189 0.656660 0.050226
H28   H     H_    0.419014 0.943292 0.316913 0.126430
H29   H     H_    0.150194 0.450341 0.285628 0.128018
H30   H     H_    0.194445 0.254859 0.116565 0.122556
H31   H     H_    0.553250 0.479119 0.757330 0.099020
H32   H     H_    0.412178 0.266577 0.878164 0.121776
H33   H     H_    0.351413 0.263842 0.962846 0.066895
H34   H     H_    0.261514 0.253314 0.032032 0.066907
H35   H     H_    0.640336 0.539109 0.241950 0.102803
H36   H     H_    0.895044 0.752389 0.966551 0.065949
H37   H     H_    0.301381 0.213632 0.658127 -0.016504
H38   H     H_    0.037167 0.547000 0.715275 0.124525
H39   H     H_    0.893456 0.766684 0.043514 0.066077
H40   H     H_    0.363560 0.431062 0.604526 0.058702
H41   H     H_    0.345366 0.962546 0.555428 0.113897
H42   H     H_    0.854509 0.047872 0.444406 0.103201
H43   H     H_    0.811518 0.741088 0.479723 0.049949
H44   H     H_    0.382655 0.273348 0.524083 0.070406
H45   H     H_    0.996069 0.197465 0.717327 0.120563
N1    N     N_R   0.942236 0.505050 0.205011 -0.431389
N2    N     N_R   0.253730 0.508628 0.796589 -0.432701
O1    O     O_2   0.907040 0.557650 0.617910 -0.477367
O2    O     O_3   0.659406 0.212920 0.397356 -0.653573
O3    O     O_3   0.106871 0.141874 0.625983 -0.612735
O4    O     O_2   0.282660 0.442310 0.382060 -0.457273
O5    O     O_3   0.050670 0.442340 0.442260 -0.508301
O6    O     O_3   0.504750 0.639360 0.411530 -0.449094
O7    O     O_3   0.150759 0.274161 0.370498 -0.647814
O8    O     O_3   0.618400 0.630290 0.524520 -0.485160
O9    O     O_3   0.090070 0.694820 0.435810 -0.486774
O10   O     O_2   0.178590 0.878735 0.470847 -0.464282
O11   O     O_3   0.101132 0.860548 0.375733 -0.590042
O12   O     O_3   0.139040 0.557570 0.557730 -0.496330
O13   O     O_3   0.571310 0.369620 0.475470 -0.480520
O14   O     O_2   0.348200 0.764910 0.523260 -0.460110
O15   O     O_3   0.537587 0.813877 0.603343 -0.657976
O16   O     O_2   0.340303 0.577267 0.327835 -0.494080
O17   O     O_3   0.504101 0.729741 0.319864 -0.596049
O18   O     O_2   0.067912 0.335163 0.197342 -0.590922
O19   O     O_2   0.397024 0.344936 0.799018 -0.593403
O20   O     O_2   0.823111 0.675230 0.207632 -0.570938
O21   O     O_2   0.107879 0.672247 0.799874 -0.564136
O22   O     O_3   0.684960 0.360550 0.588460 -0.486060
O23   O     O_2   0.838492 0.425455 0.672663 -0.500946
O24   O     O_3   0.034212 0.728418 0.624184 -0.635901
O25   O     O_3   0.677487 0.271530 0.679823 -0.587789
O26   O     O_2   0.841490 0.235060 0.476710 -0.474174
O27   O     O_3   0.099640 0.305100 0.564190 -0.485360
O28   O     O_2   0.016215 0.117095 0.531960 -0.487103
P1    P     P_3+3 0.072810 0.589830 0.610360 0.984277
P2    P     P_3+3 0.661990 0.251250 0.462170 0.970465
P3    P     P_3+3 0.144415 0.169126 0.566034 0.932511
P4    P     P_3+3 0.116900 0.410080 0.389630 0.985949
P5    P     P_3+3 0.051241 0.832378 0.434691 0.959883
P6    P     P_3+3 0.674200 0.389625 0.653795 0.964577
P7    P     P_3+3 0.533537 0.765995 0.539028 0.929275
P8    P     P_3+3 0.506483 0.611672 0.345703 1.012044
N3    N     N_3   0.270633 0.030472 0.422649 -0.466566
H46   H     H_    0.393889 0.039434 0.423990 0.147397
H47   H     H_    0.223144 0.053953 0.458249 0.204664
H48   H     H_    0.629730 0.365757 0.380059 0.013305
N4    N     N_3   0.811118 0.148591 0.302528 -0.477674
H49   H     H_    0.774405 0.091888 0.322270 0.197054
H50   H     H_    0.932185 0.156593 0.312986 0.194347
N5    N     N_3   0.391986 0.713265 0.645348 -0.522435
H51   H     H_    0.323854 0.785527 0.660293 0.201019
H52   H     H_    0.337118 0.689963 0.611051 0.173308
H53   H     H_    0.577074 0.837852 0.702694 0.118803
N6    N     N_3   0.145014 0.808042 0.260579 -0.469921
H54   H     H_    0.137660 0.726778 0.253865 0.204722
H55   H     H_    0.251616 0.817545 0.281519 0.237142
H56   H     H_    0.891764 0.854267 0.267300 0.138525
N7    N     N_3   0.808346 0.789333 0.135354 -0.430281
H57   H     H_    0.880350 0.849184 0.134498 0.181697
H58   H     H_    0.697378 0.810915 0.116660 0.175148
N8    N     N_3   0.941118 0.774435 0.875229 -0.433428
H59   H     H_    0.813607 0.782370 0.877480 0.171580
H60   H     H_    0.978973 0.842551 0.895071 0.174136
N9    N     N_3   0.817180 0.609674 0.397497 -0.480475
H61   H     H_    0.871309 0.589370 0.430867 0.220070
H62   H     H_    0.862282 0.671775 0.384635 0.134765
N10   N     N_3   0.221331 0.096341 0.725047 -0.485624
H63   H     H_    0.169761 0.034849 0.703814 0.204916
H64   H     H_    0.202504 0.090149 0.762609 0.190743
H65   H     H_    0.332875 0.224212 0.418868 0.012346
H66   H     H_    0.127184 0.244618 0.443780 0.060947

loop_
_geom_bond_atom_site_label_1
_geom_bond_atom_site_label_2
_ccdc_geom_bond_type
C25   C46   A    
C56   C60   S    
C53   C54   A    
C53   P2    S    
C10   O20   D    
N5    H52   S    
N9    H61   S    
O1    P1    D    
C17   C18   A    
O9    P5    S    
O11   P5    S    
C10   N1    Am   
O15   P7    S    
Ba1   O26   S    
C5    C6    S    
C42   C48   A    
C5    H21   S    
C51   C52   A    
O8    P7    S    
C35   H31   S    
C35   C36   S    
C11   C16   D    
C62   N4    S    
O3    P3    S    
N7    H58   S    
N3    H47   S    
C43   H34   S    
C7    H24   S    
C28   C29   A    
O28   P3    D    
C55   C57   A    
C19   H30   S    
C31   C47   A    
C10   C20   A    
C22   C37   D    
C54   C55   A    
C60   H6    S    
C34   C45   S    
Ba1   Ba2   S    
Ba1   O8    S    
C1    H10   S    
C2    H1    S    
C28   H32   S    
C45   N3    S    
Ba2   O5    S    
C25   C42   A    
N7    H57   S    
C8    H25   S    
C17   C41   A    
C14   C15   D    
C3    O15   S    
C60   H7    S    
C22   C36   S    
N6    H55   S    
Ba1   O5    S    
C3    H15   S    
C34   O7    S    
C7    C8    S    
C45   H2    S    
O25   P6    S    
C50   C53   A    
C23   H45   S    
C2    O25   S    
C13   C21   S    
C5    H20   S    
C8    H28   S    
C48   H39   S    
C4    H17   S    
C9    N1    Am   
N8    H60   S    
Ba2   P4    S    
N9    H62   S    
O10   P5    D    
Ba1   O22   S    
C9    O18   D    
C45   H3    S    
C4    H53   S    
Ba2   O6    S    
C50   C52   A    
C31   C32   A    
C19   C43   A    
O24   P1    S    
C46   H36   S    
O4    P4    D    
C9    C18   A    
C7    O17   S    
C57   P7    S    
C26   C30   A    
C14   P4    S    
N3    H46   S    
O7    P4    S    
O27   P3    S    
C37   C38   D    
C51   C55   A    
C12   H37   S    
C61   H9    S    
C12   O3    S    
O12   P1    S    
C58   C59   A    
C22   H40   S    
C40   C43   A    
C11   H35   S    
C41   C42   A    
Ba1   O12   S    
C36   P6    S    
C27   C28   A    
O5    P4    S    
Ba2   O4    S    
O22   P6    S    
C4    H16   S    
N6    H54   S    
C21   N9    S    
C17   C20   A    
C1    H18   S    
C15   C16   S    
C62   H12   S    
C60   H8    S    
C56   H5    S    
C18   C19   A    
C59   H42   S    
C33   O19   D    
C61   H48   S    
Ba1   P1    S    
C24   C27   A    
C23   N10   S    
C56   H4    S    
C46   C47   A    
C20   C44   A    
N4    H50   S    
C34   H66   S    
C14   C21   D    
C44   N7    S    
C11   C13   S    
N8    H59   S    
C29   C33   A    
O13   P2    S    
C15   H29   S    
C40   C41   A    
C5    O11   S    
C1    C2    S    
N5    H51   S    
C33   N2    Am   
N10   H63   S    
C24   C40   A    
C32   N2    Am   
O23   P6    D    
O26   P2    D    
C37   P1    S    
C38   C39   S    
Ba2   O9    S    
C52   P3    S    
C29   C30   A    
C16   N1    S    
Ba2   O8    S    
O17   P8    S    
C32   O21   D    
Ba2   O13   S    
C56   O24   S    
C44   C48   A    
C24   C26   A    
C27   H33   S    
O6    P8    S    
C30   C31   A    
Ba1   O13   S    
C47   N8    S    
Ba1   O1    S    
C3    N5    S    
C58   P5    S    
C13   P8    S    
C6    N6    S    
C3    C4    S    
N10   H64   S    
C62   H11   S    
O2    P2    S    
O14   P7    D    
C6    H22   S    
C12   C23   S    
C35   C39   D    
C12   H27   S    
Ba1   P2    S    
C38   H38   S    
C61   C62   S    
C61   O2    S    
Ba2   O14   S    
C51   H41   S    
C2    H13   S    
C8    H26   S    
C49   C57   A    
N4    H49   S    
C50   H44   S    
C34   H65   S    
C49   H43   S    
C39   N2    S    
C25   C26   A    
C23   H19   S    
C54   C59   A    
C6    H56   S    
C49   C58   A    
C1    H14   S    
Ba2   O12   S    
Ba1   O27   S    
O16   P8    D    
C7    H23   S    
