data_mof_unit_22979.cif
_audit_creation_date              2012-12-10T20:28:39-0500
_audit_creation_method            fapswitch 2.2
_symmetry_space_group_name_H-M    P1
_symmetry_Int_Tables_number       1
_space_group_crystal_system       triclinic
_cell_length_a                    10.716803
_cell_length_b                    10.633231
_cell_length_c                    9.893917
_cell_angle_alpha                 89.301583
_cell_angle_beta                  91.206109
_cell_angle_gamma                 89.747157
_cell_volume                      1127.10797886

loop_
_atom_site_label
_atom_site_type_symbol
_atom_type_description
_atom_site_fract_x
_atom_site_fract_y
_atom_site_fract_z
_atom_type_partial_charge
C1    C     C_R   0.498352 0.260446 0.500466 0.862770
C2    C     C_R   0.070147 0.395134 0.580430 0.089333
C3    C     C_R   0.128716 0.480588 0.493214 -0.077377
C4    C     C_R   0.061025 0.560102 0.406554 -0.182198
C5    C     C_R   0.933538 0.560472 0.410850 -0.170410
C6    C     C_R   0.873120 0.486689 0.507009 -0.077298
C7    C     C_R   0.562817 0.062813 0.597642 0.176382
C8    C     C_R   0.491366 0.128654 0.502224 -0.085435
C9    C     C_R   0.411668 0.066572 0.411501 -0.210141
C10   C     C_R   0.412906 0.936413 0.410110 -0.200402
C11   C     C_R   0.493313 0.871538 0.500005 -0.100363
C12   C     C_R   0.260547 0.495305 0.498208 0.848900
C13   C     C_R   0.562731 0.934282 0.597995 0.142334
C14   C     C_3   0.700518 0.926578 0.623677 -0.454568
C15   C     C_3   0.700759 0.068789 0.619844 -0.499597
C16   C     C_R   0.568170 0.414243 0.074493 0.218070
C17   C     C_R   0.439058 0.591966 0.069266 -0.095523
C18   C     C_R   0.439459 0.592245 0.925457 -0.067880
C19   C     C_R   0.565769 0.412369 0.932355 0.161994
C20   C     C_3   0.550808 0.272071 0.934235 0.066232
C21   C     C_3   0.557874 0.275372 0.087401 -0.442151
C22   C     C_R   0.498993 0.739601 0.499341 0.875912
C23   C     C_R   0.739931 0.493622 0.502281 0.862332
C24   C     C_R   0.137920 0.299476 0.649513 -0.193881
C25   C     C_R   0.083651 0.230886 0.752669 -0.168018
C26   C     C_R   0.962485 0.257661 0.790131 0.464166
C27   C     C_R   0.887785 0.337553 0.707580 -0.311106
C28   C     C_R   0.940959 0.405911 0.598395 0.047842
H1    H     H_    0.107097 0.624070 0.337715 0.156883
H2    H     H_    0.751405 0.883609 0.538801 0.196788
H3    H     H_    0.725586 0.111485 0.717673 0.243184
H4    H     H_    0.750094 0.109180 0.531629 0.204715
H5    H     H_    0.388820 0.664722 0.121211 0.143660
H6    H     H_    0.389746 0.665367 0.869355 0.151102
H7    H     H_    0.630352 0.222802 0.888760 0.186459
H8    H     H_    0.470752 0.245791 0.137568 0.232812
H9    H     H_    0.643927 0.231439 0.131413 0.240278
H10   H     H_    0.233952 0.279106 0.626023 0.189588
H11   H     H_    0.138281 0.161417 0.808389 0.202224
H12   H     H_    0.791635 0.348113 0.734695 0.185592
H13   H     H_    0.881871 0.622742 0.342178 0.166043
H14   H     H_    0.352172 0.118361 0.340306 0.175418
H15   H     H_    0.354172 0.886894 0.338080 0.159068
H16   H     H_    0.723937 0.886344 0.725355 0.235507
N1    N     N_R   0.499160 0.499140 0.142800 -0.110908
N2    N     N_R   0.499160 0.499180 0.857150 -0.099427
O1    O     O_R   0.500020 0.316790 0.614690 -0.594815
O2    O     O_R   0.500000 0.316760 0.385350 -0.629121
O3    O     O_R   0.316770 0.500020 0.614690 -0.597239
O4    O     O_R   0.316760 0.499980 0.385350 -0.612741
O5    O     O_R   0.500000 0.683240 0.614650 -0.618301
O6    O     O_R   0.499980 0.683210 0.385310 -0.623121
O7    O     O_R   0.683240 0.500020 0.614650 -0.631395
O8    O     O_R   0.683230 0.499980 0.385310 -0.599159
Zn1   Zn    Zn3+2 0.500010 0.500020 0.653130 0.980205
Zn2   Zn    Zn3+2 0.499990 0.499980 0.346870 0.971538
Br1   Br    Br    0.388986 0.213208 0.873466 -0.538355
S1    S     S_3+6 0.913750 0.205614 0.950432 -0.013378
O9    O     O_2   0.843128 0.309900 0.015867 -0.313956
O10   O     O_2   0.831462 0.092163 0.938201 -0.371866
O11   O     O_3   0.038515 0.168623 0.049495 -0.506356
H17   H     H_    0.058763 0.080114 0.028383 0.359152

loop_
_geom_bond_atom_site_label_1
_geom_bond_atom_site_label_2
_ccdc_geom_bond_type
C16   N1    A    
N2    Zn1   S    
C4    H1    S    
C24   H10   S    
C24   C25   A    
C1    O2    A    
C15   H3    S    
C16   C21   S    
C2    C3    A    
C1    C8    S    
C18   H6    S    
C9    C10   A    
C10   H15   S    
C11   C22   S    
C12   O4    A    
C19   C20   S    
C27   H12   S    
S1    O11   S    
C7    C15   S    
C12   O3    A    
C25   C26   A    
C19   N2    A    
C7    C8    A    
C21   H8    S    
C13   C14   S    
C25   H11   S    
C2    C24   A    
C4    C5    A    
C11   C13   A    
C9    H14   S    
C5    C6    A    
C17   H5    S    
C14   H2    S    
C16   C19   A    
C6    C23   S    
C18   N2    A    
C23   O7    A    
C14   H16   S    
C17   N1    A    
C17   C18   A    
O5    Zn1   S    
O7    Zn1   S    
C26   C27   A    
O11   H17   S    
O8    Zn2   S    
C10   C11   A    
S1    O10   D    
C3    C4    A    
O4    Zn2   S    
C7    C13   A    
C21   H9    S    
C20   C21   S    
C23   O8    A    
C22   O6    A    
C27   C28   A    
O2    Zn2   S    
O1    Zn1   S    
C5    H13   S    
C14   C15   S    
C22   O5    A    
C2    C28   A    
C3    C12   S    
S1    O9    D    
O3    Zn1   S    
C20   H7    S    
C20   Br1   S    
C26   S1    S    
C6    C28   A    
O6    Zn2   S    
N1    Zn2   S    
C1    O1    A    
C8    C9    A    
C15   H4    S    
