data_mof_unit_26633.cif
_audit_creation_date              2012-12-10T17:00:39-0500
_audit_creation_method            fapswitch 2.2
_symmetry_space_group_name_H-M    P1
_symmetry_Int_Tables_number       1
_space_group_crystal_system       triclinic
_cell_length_a                    27.723203
_cell_length_b                    11.039877
_cell_length_c                    9.740769
_cell_angle_alpha                 89.13995
_cell_angle_beta                  90.866916
_cell_angle_gamma                 88.146696
_cell_volume                      2979.00817261

loop_
_atom_site_label
_atom_site_type_symbol
_atom_type_description
_atom_site_fract_x
_atom_site_fract_y
_atom_site_fract_z
_atom_type_partial_charge
C1    C     C_R   0.503372 0.265361 0.501133 0.790051
C2    C     C_R   0.277663 0.507317 0.372813 0.311245
C3    C     C_R   0.253421 0.543973 0.492237 0.330268
C4    C     C_R   0.101944 0.527192 0.518119 -0.144851
C5    C     C_R   0.131388 0.419525 0.524431 -0.084173
C6    C     C_R   0.109440 0.305731 0.536237 0.188761
C7    C     C_R   0.123479 0.641710 0.504722 -0.146878
C8    C     C_R   0.354492 0.516327 0.496543 -0.052793
C9    C     C_R   0.645636 0.486140 0.503659 -0.239980
C10   C     C_R   0.978918 0.403121 0.564167 0.031045
C11   C     C_R   0.970416 0.616582 0.496123 0.071884
C12   C     C_R   0.407503 0.503589 0.498988 0.819230
C13   C     C_R   0.949331 0.504860 0.526832 0.063014
C14   C     C_R   0.956740 0.300177 0.617293 -0.216074
C15   C     C_R   0.907266 0.285818 0.602378 0.259260
C16   C     C_R   0.877275 0.383868 0.556251 -0.061519
C17   C     C_R   0.898485 0.493735 0.517952 -0.151186
C18   C     C_R   0.869014 0.591056 0.466945 -0.057506
C19   C     C_R   0.819312 0.573012 0.446695 0.579808
C20   C     C_R   0.826512 0.376966 0.551001 0.645390
C21   C     C_R   0.720436 0.394308 0.416567 0.408796
C22   C     C_R   0.669700 0.401415 0.418330 0.262875
C23   C     C_R   0.498700 0.734095 0.498785 0.769612
C24   C     C_R   0.673121 0.560504 0.590128 0.192714
C25   C     C_R   0.723294 0.550513 0.588674 -0.174955
C26   C     C_R   0.747142 0.469237 0.502169 0.140809
C27   C     C_R   0.029535 0.406319 0.543514 0.004788
C28   C     C_R   0.050924 0.520320 0.525350 -0.023722
C29   C     C_R   0.021252 0.627477 0.514460 -0.057469
C30   C     C_R   0.059070 0.299223 0.535265 0.185255
C31   C     C_R   0.093584 0.748498 0.507453 0.384773
C32   C     C_R   0.940177 0.712053 0.443346 -0.204909
C33   C     C_R   0.889964 0.702717 0.436324 0.261958
C34   C     C_R   0.592470 0.496736 0.501122 0.862209
C35   C     C_R   0.043568 0.740708 0.523491 0.295300
C36   C     C_2   0.520046 0.929999 0.410881 -0.265351
C37   C     C_2   0.492216 0.864833 0.494152 0.257983
C38   C     C_2   0.514693 0.063258 0.394313 0.292678
C39   C     C_2   0.513838 0.133537 0.507829 0.095436
C40   C     C_2   0.463762 0.469697 0.922486 0.051394
C41   C     C_2   0.469916 0.438607 0.073926 0.453674
C42   C     C_R   0.181871 0.429440 0.515615 0.591005
C43   C     C_R   0.174427 0.644585 0.495105 0.586785
C44   C     C_R   0.279838 0.568548 0.611613 -0.161716
C45   C     C_R   0.329950 0.554630 0.614032 -0.192697
C46   C     C_R   0.328128 0.493901 0.375855 -0.277069
Cu1   Cu    Cu3+1 0.500010 0.500020 0.638630 1.041008
Cu2   Cu    Cu3+1 0.499990 0.499980 0.361370 0.994963
H1    H     H_    0.346589 0.464548 0.284278 0.151056
H2    H     H_    0.261267 0.594650 0.704153 0.149557
H3    H     H_    0.955018 0.794663 0.404394 0.182703
H4    H     H_    0.744225 0.608838 0.653466 0.176950
H5    H     H_    0.547350 0.883803 0.350044 0.122494
H6    H     H_    0.428116 0.466886 0.875847 0.084589
H7    H     H_    0.977515 0.225989 0.664538 0.192035
H8    H     H_    0.349454 0.573515 0.708084 0.161185
N1    N     N_R   0.201772 0.539706 0.499165 -0.460899
N2    N     N_R   0.798893 0.470913 0.496435 -0.444898
N3    N     N_2   0.499480 0.498660 0.846910 -0.008619
N4    N     N_2   0.499460 0.498630 0.153040 -0.080890
O1    O     O_R   0.500010 0.321960 0.617040 -0.566253
O2    O     O_2   0.804784 0.279182 0.603011 -0.472100
O3    O     O_2   0.197043 0.750215 0.482124 -0.468063
O4    O     O_2   0.791310 0.656031 0.377035 -0.480451
O5    O     O_R   0.499990 0.321920 0.382900 -0.575123
O6    O     O_R   0.430270 0.500040 0.617060 -0.596785
O7    O     O_R   0.430260 0.500000 0.382910 -0.618592
O8    O     O_R   0.500010 0.678080 0.617100 -0.543336
O9    O     O_R   0.499990 0.678040 0.382960 -0.609730
O10   O     O_R   0.569740 0.500000 0.617090 -0.541016
O11   O     O_R   0.569730 0.499960 0.382940 -0.538046
O12   O     O_2   0.211535 0.330339 0.523328 -0.543872
Cl1   Cl    Cl    0.116522 0.895707 0.490436 -0.554951
N5    N     N_2   0.651578 0.649230 0.676336 -0.402867
H9    H     H_    0.625521 0.618335 0.741044 0.313613
C47   C     C_3   0.638645 0.763224 0.608415 -0.624748
H10   H     H_    0.625296 0.828673 0.685517 0.231174
H11   H     H_    0.609693 0.750809 0.530292 0.194895
H12   H     H_    0.670688 0.801255 0.558283 0.252285
N6    N     N_2   0.860553 0.808572 0.408452 -0.381833
H13   H     H_    0.876642 0.873940 0.349810 0.243773
C48   C     C_3   0.836675 0.856812 0.528495 -0.544163
H14   H     H_    0.863579 0.893423 0.601163 0.220674
H15   H     H_    0.816629 0.786068 0.583601 0.225977
H16   H     H_    0.810091 0.929437 0.496534 0.249347
Cl2   Cl    Cl    0.012050 0.869869 0.588119 -0.652505
Cl3   Cl    Cl    0.441749 0.926797 0.580674 -0.618783
N7    N     N_2   0.514926 0.116801 0.259440 -0.401603
H17   H     H_    0.544168 0.169981 0.241747 0.310812
C49   C     C_3   0.502051 0.043206 0.143732 -0.614391
H18   H     H_    0.498671 0.101243 0.049830 0.250810
H19   H     H_    0.466781 0.001100 0.161377 0.235125
H20   H     H_    0.530616 0.972539 0.126317 0.213294
N8    N     N_2   0.251237 0.477529 0.252282 -0.426393
H21   H     H_    0.267948 0.411051 0.194812 0.256114
C50   C     C_3   0.235461 0.581035 0.168591 -0.655485
H22   H     H_    0.213777 0.550011 0.079808 0.227764
H23   H     H_    0.267166 0.629203 0.129335 0.223390
H24   H     H_    0.212516 0.644521 0.228397 0.264008
N9    N     N_2   0.526436 0.080964 0.639112 -0.410147
H25   H     H_    0.505890 0.113703 0.718676 0.292515
C51   C     C_3   0.577542 0.080817 0.671084 -0.619108
H26   H     H_    0.584748 0.031865 0.770043 0.235084
H27   H     H_    0.589774 0.175302 0.680500 0.252046
H28   H     H_    0.598379 0.034258 0.589615 0.233377
Cl4   Cl    Cl    0.556449 0.445546 0.903501 -0.470798
N10   N     N_2   0.444717 0.337850 0.128989 -0.427199
H29   H     H_    0.433126 0.344476 0.227816 0.298915
C52   C     C_3   0.411839 0.273868 0.041179 -0.751186
H30   H     H_    0.399012 0.192800 0.096858 0.257751
H31   H     H_    0.430412 0.242326 0.947329 0.249896
H32   H     H_    0.380032 0.333381 0.013046 0.216043
N11   N     N_2   0.514438 0.608347 0.100837 -0.288886
H33   H     H_    0.545598 0.636182 0.148126 0.294501
C53   C     C_3   0.477187 0.703858 0.088407 -0.601225
H34   H     H_    0.473063 0.732581 0.979097 0.229001
H35   H     H_    0.487562 0.783576 0.148520 0.209592
H36   H     H_    0.441820 0.673463 0.126019 0.212120
N12   N     N_2   0.136934 0.194679 0.546409 -0.392141
H37   H     H_    0.158685 0.171070 0.465534 0.317979
C54   C     C_3   0.152541 0.155478 0.683183 -0.495550
H38   H     H_    0.192557 0.151555 0.690466 0.250082
H39   H     H_    0.139232 0.063644 0.704766 0.260539
H40   H     H_    0.138405 0.217485 0.763223 0.191893
Cl5   Cl    Cl    0.636837 0.300281 0.316545 -0.534217
Cl6   Cl    Cl    0.750735 0.295153 0.303675 -0.485124
N13   N     N_2   0.890209 0.166152 0.603370 -0.370241
H41   H     H_    0.904276 0.111698 0.682202 0.263744
C55   C     C_3   0.893225 0.109689 0.469908 -0.596281
H42   H     H_    0.856450 0.089515 0.433021 0.262554
H43   H     H_    0.916169 0.025458 0.477272 0.224585
H44   H     H_    0.909322 0.169267 0.390703 0.220047
N14   N     N_2   0.038392 0.185001 0.509102 -0.421810
H45   H     H_    0.055493 0.111246 0.556771 0.341805
C56   C     C_3   0.026515 0.164778 0.366413 -0.571670
H46   H     H_    0.007841 0.077760 0.356963 0.252648
H47   H     H_    0.059925 0.160216 0.304830 0.236823
H48   H     H_    0.001953 0.238684 0.325434 0.213685

loop_
_geom_bond_atom_site_label_1
_geom_bond_atom_site_label_2
_ccdc_geom_bond_type
C10   C27   A    
C56   H48   S    
C21   C26   A    
C23   O9    A    
C47   H12   S    
Cu2   O9    S    
C5    C42   A    
N14   H45   S    
C39   N9    S    
C43   O3    S    
C56   H46   S    
C32   H3    S    
C2    C46   A    
C46   H1    S    
N5    C47   S    
C36   C37   D    
C47   H11   S    
C55   H42   S    
C52   H31   S    
C5    C6    A    
C35   Cl2   S    
C9    C22   A    
C31   Cl1   S    
C15   C16   A    
C50   H24   S    
C51   H28   S    
C18   C19   A    
C8    C45   A    
C54   H40   S    
C36   H5    S    
C45   H8    S    
C16   C17   A    
C53   H35   S    
C50   H23   S    
C1    O5    A    
N10   H29   S    
C7    C43   A    
Cu2   O5    S    
C34   O10   A    
Cu1   O6    S    
C8    C12   S    
C55   H44   S    
C53   H36   S    
C14   H7    S    
C40   N3    D    
C15   N13   S    
C21   C22   A    
C27   C30   A    
N10   C52   S    
N4    N11   S    
N8    H21   S    
C4    C7    A    
C42   N1    A    
N9    C51   S    
C4    C28   A    
Cu2   N4    S    
N12   C54   S    
C19   N2    A    
C12   O7    A    
C3    C44   A    
N3    Cl4   S    
C7    C31   A    
N5    H9    S    
C2    N8    S    
C47   H10   S    
N6    C48   S    
C10   C14   A    
C52   H32   S    
C1    C39   S    
N6    H13   S    
C22   Cl5   S    
C25   C26   A    
C23   C37   S    
C12   O6    A    
C38   N7    S    
C23   O8    A    
C51   H27   S    
N13   C55   S    
Cu1   O10   S    
C49   H19   S    
Cu1   Cu2   S    
C19   O4    S    
C16   C20   A    
C30   N14   S    
C50   H22   S    
C42   O12   S    
C17   C18   A    
C33   N6    S    
C24   C25   A    
N8    C50   S    
C26   N2    S    
C54   H38   S    
C3    N1    S    
C40   C41   S    
C6    C30   A    
N7    C49   S    
C11   C32   A    
C40   H6    S    
C9    C34   S    
C31   C35   A    
Cu2   O11   S    
C20   N2    A    
N13   H41   S    
C6    N12   S    
Cu1   O8    S    
C44   C45   A    
C49   H20   S    
N11   H33   S    
C44   H2    S    
C56   H47   S    
C28   C29   A    
C41   N10   S    
C37   Cl3   S    
C41   N4    D    
C4    C5    A    
C10   C13   A    
C1    O1    A    
Cu1   O1    S    
N12   H37   S    
C9    C24   A    
C48   H16   S    
C29   C35   A    
C48   H15   S    
C13   C17   A    
C32   C33   A    
C36   C38   S    
C2    C3    A    
C25   H4    S    
C52   H30   S    
C11   C13   A    
C24   N5    S    
C49   H18   S    
C38   C39   D    
N9    H25   S    
Cu2   O7    S    
C20   O2    S    
C51   H26   S    
C18   C33   A    
C8    C46   A    
C54   H39   S    
C43   N1    A    
Cu1   N3    S    
N7    H17   S    
C11   C29   A    
C48   H14   S    
C27   C28   A    
N14   C56   S    
C14   C15   A    
N11   C53   S    
C21   Cl6   S    
C34   O11   A    
C53   H34   S    
C55   H43   S    
