data_mof_unit_48571.cif
_audit_creation_date              2013-03-05T15:50:33-0500
_audit_creation_method            fapswitch 2.2
_symmetry_space_group_name_H-M    P1
_symmetry_Int_Tables_number       1
_space_group_crystal_system       triclinic
_cell_length_a                    9.617177
_cell_length_b                    10.806575
_cell_length_c                    13.406452
_cell_angle_alpha                 92.622815
_cell_angle_beta                  72.282082
_cell_angle_gamma                 89.725661
_cell_volume                      1325.57888011

loop_
_atom_site_label
_atom_site_type_symbol
_atom_site_description
_atom_site_fract_x
_atom_site_fract_y
_atom_site_fract_z
_atom_type_partial_charge
O1    O     O_R   0.381190 0.680360 0.500010 -0.572564
O2    O     O_R   0.618760 0.680340 0.500000 -0.545752
C1    C     C_R   0.498558 0.737172 0.502567 0.892687
O3    O     O_R   0.323240 0.499990 0.650990 -0.597295
O4    O     O_R   0.560820 0.499960 0.650980 -0.590733
C2    C     C_R   0.421396 0.495364 0.699973 0.769459
Cu1   Cu    Cu3+1 0.359340 0.500010 0.500010 0.946955
Cu2   Cu    Cu3+1 0.640660 0.499990 0.499990 0.985443
O5    O     O_R   0.381240 0.319660 0.500000 -0.610309
O6    O     O_R   0.618810 0.319640 0.499990 -0.580101
O7    O     O_R   0.439180 0.500040 0.349020 -0.602380
O8    O     O_R   0.676760 0.500010 0.349010 -0.567540
C3    C     C_R   0.499310 0.262983 0.502521 0.812843
C4    C     C_R   0.578569 0.497294 0.299970 0.839334
C5    C     C_R   0.779888 0.381490 0.025274 -0.137717
H1    H     H_    0.835266 0.398360 0.168161 0.150523
H2    H     H_    0.794974 0.304368 0.831248 0.144239
H3    H     H_    0.881716 0.333551 0.983621 0.131038
C6    C     C_R   0.622573 0.479411 0.185749 -0.004982
C7    C     C_R   0.235380 0.544913 0.870364 -0.283100
C8    C     C_R   0.191737 0.562295 0.979466 0.366881
C9    C     C_R   0.290772 0.533400 0.033315 -0.234625
C10   C     C_R   0.432214 0.484392 0.979806 0.040347
C11   C     C_R   0.467292 0.453045 0.871112 0.086250
C12   C     C_R   0.539788 0.464463 0.030892 0.125555
C13   C     C_R   0.672895 0.401517 0.975854 0.176873
C14   C     C_R   0.696657 0.357225 0.872768 -0.216749
C15   C     C_R   0.594828 0.381277 0.821449 -0.167080
C16   C     C_R   0.520052 0.506618 0.134846 -0.165260
C17   C     C_R   0.754541 0.419838 0.129976 -0.126458
C18   C     C_R   0.373075 0.493409 0.815301 -0.155108
H4    H     H_    0.424559 0.559892 0.179170 0.156317
H5    H     H_    0.162709 0.574402 0.827785 0.188366
H6    H     H_    0.253167 0.547400 0.117314 0.174463
H7    H     H_    0.616397 0.340297 0.743073 0.171436
C19   C     C_R   0.294017 0.881565 0.672525 -0.136737
H8    H     H_    0.291669 0.782001 0.677489 0.130077
C20   C     C_R   0.196145 0.951282 0.754174 -0.107579
H9    H     H_    0.120466 0.905224 0.817958 0.166337
C21   C     C_R   0.197062 0.079923 0.754695 -0.116163
H10   H     H_    0.122061 0.133856 0.818863 0.140044
C22   C     C_R   0.295885 0.139534 0.673572 -0.132205
H11   H     H_    0.295094 0.239603 0.679192 0.142309
C23   C     C_R   0.394937 0.070752 0.588928 0.039930
C24   C     C_R   0.394030 0.939962 0.588318 0.052235
C25   C     C_R   0.496538 0.871220 0.505621 -0.290312
C26   C     C_R   0.602259 0.930759 0.426864 0.232412
C27   C     C_R   0.601883 0.059560 0.427141 0.387523
C28   C     C_R   0.498166 0.129238 0.506879 -0.238143
H12   H     H_    0.818496 0.635955 0.622679 0.143263
C29   C     C_R   0.916724 0.341405 0.356957 -0.171931
H13   H     H_    0.808883 0.333083 0.353413 0.232741
C30   C     C_R   0.018366 0.266592 0.283308 -0.218648
H14   H     H_    0.983258 0.209346 0.227396 0.209224
C31   C     C_R   0.163378 0.266003 0.280559 0.322369
C32   C     C_R   0.204572 0.339508 0.355155 -0.240824
H15   H     H_    0.314907 0.327213 0.352956 0.216768
C33   C     C_R   0.104784 0.421263 0.429141 0.169521
C34   C     C_R   0.955428 0.421788 0.429442 0.206524
N1    N     N_R   0.852480 0.498790 0.499000 -0.195894
C35   C     C_R   0.897207 0.574634 0.567405 -0.020011
H16   H     H_    0.076346 0.635823 0.622666 0.131566
C36   C     C_R   0.044990 0.574588 0.567410 -0.034345
N2    N     N_R   0.148360 0.498710 0.498970 -0.188416
O9    O     O_3   0.706027 0.117147 0.349159 -0.579403
C37   C     C_3   0.648922 0.137351 0.266028 -0.205838
H17   H     H_    0.566804 0.214185 0.288188 0.150494
H18   H     H_    0.601122 0.052288 0.240742 0.215324
H19   H     H_    0.738960 0.165378 0.197566 0.176715
N3    N     N_R   0.269073 0.191028 0.201619 0.128286
O10   O     O_R   0.227667 0.098488 0.152557 -0.315057
O11   O     O_R   0.405445 0.222019 0.170928 -0.424335
N4    N     N_R   0.049092 0.613722 0.035160 0.131181
O12   O     O_R   0.959364 0.645407 0.984647 -0.359799
O13   O     O_R   0.007766 0.630161 0.136830 -0.309247
N5    N     N_R   0.707367 0.860913 0.343466 0.156383
O14   O     O_R   0.663951 0.779182 0.285678 -0.344581
O15   O     O_R   0.845109 0.887860 0.318176 -0.253016

loop_
_geom_bond_atom_site_label_1
_geom_bond_atom_site_label_2
_geom_bond_distance
_ccdc_geom_bond_type
C23   C28   1.414208 A    
C5    H3    1.083996 S    
C37   H18   1.114282 S    
C31   C32   1.399825 A    
N4    O12   1.301750 A    
Cu1   Cu2   2.705421 S    
C30   H14   1.082673 S    
Cu1   O7    1.934205 S    
C13   C14   1.391929 A    
C19   H8    1.080960 S    
N5    O15   1.301503 A    
C26   N5    1.438462 S    
C16   H4    1.076758 S    
O4    C2    1.303599 A    
O7    C4    1.300617 A    
C37   H19   1.108229 S    
H1    C17   1.081524 S    
C8    N4    1.442075 S    
C32   H15   1.060068 S    
C35   C36   1.421278 A    
O5    C3    1.297777 A    
C15   H7    1.080315 S    
C10   C11   1.416511 A    
N3    O10   1.301657 A    
C27   O9    1.382604 S    
C21   C22   1.393527 A    
C37   H17   1.108921 S    
C34   N1    1.378918 A    
C8    C9    1.400748 A    
C33   N2    1.386691 A    
N4    O13   1.301851 A    
C22   C23   1.416232 A    
O3    Cu1   1.946756 S    
C30   C31   1.383816 A    
C12   C16   1.402099 A    
C9    H6    1.076031 S    
C29   H13   1.056625 S    
H2    C14   1.084213 S    
N5    O14   1.300939 A    
O3    C2    1.305649 A    
C5    C13   1.403761 A    
C12   C13   1.420086 A    
C24   C25   1.416060 A    
N1    C35   1.368388 A    
C29   C30   1.384187 A    
H16   C36   1.081943 S    
C26   C27   1.391718 A    
Cu2   O8    1.946756 S    
C19   C24   1.417019 A    
C3    C28   1.449145 S    
C7    H5    1.083149 S    
C27   C28   1.405279 A    
O8    C4    1.304315 A    
C29   C34   1.408363 A    
C22   H11   1.080402 S    
C6    C16   1.396218 A    
C23   C24   1.413128 A    
C5    C17   1.392492 A    
Cu1   O5    1.959300 S    
C25   C26   1.406261 A    
C21   H10   1.082787 S    
O1    Cu1   1.961262 S    
C4    C6    1.462532 S    
O2    Cu2   1.959301 S    
C11   C15   1.412720 A    
O6    C3    1.296804 A    
O4    Cu2   1.934205 S    
C1    C25   1.447180 S    
C19   C20   1.393705 A    
O2    C1    1.296830 A    
C33   C34   1.435144 A    
C11   C18   1.417696 A    
Cu2   N1    2.033085 S    
C20   C21   1.389954 A    
C20   H9    1.082718 S    
C32   C33   1.420448 A    
C2    C18   1.473999 S    
C10   C12   1.424224 A    
Cu1   N2    2.033431 S    
C31   N3    1.438260 S    
C36   N2    1.367729 A    
C7    C8    1.396883 A    
Cu2   O6    1.961261 S    
O9    C37   1.408907 S    
C14   C15   1.387081 A    
H12   C35   1.081718 S    
C9    C10   1.417689 A    
N3    O11   1.299963 A    
O1    C1    1.296319 A    
C6    C17   1.398143 A    
C7    C18   1.403093 A    
