data_mof_unit_20184.cif
_audit_creation_date              2012-12-11T15:46:53-0500
_audit_creation_method            fapswitch 2.2
_symmetry_space_group_name_H-M    P1
_symmetry_Int_Tables_number       1
_space_group_crystal_system       triclinic
_cell_length_a                    11.514283
_cell_length_b                    11.552368
_cell_length_c                    19.584414
_cell_angle_alpha                 90.309345
_cell_angle_beta                  89.716326
_cell_angle_gamma                 60.115745
_cell_volume                      2258.55815722

loop_
_atom_site_label
_atom_site_type_symbol
_atom_type_description
_atom_site_fract_x
_atom_site_fract_y
_atom_site_fract_z
_atom_type_partial_charge
C1    C     C_R   0.640219 0.116991 0.599392 0.551356
C2    C     C_1   0.640637 0.704095 0.668052 0.009365
C3    C     C_1   0.126656 0.199438 0.859229 0.004530
C4    C     C_1   0.171384 0.170188 0.727738 -0.028501
C5    C     C_1   0.150080 0.182698 0.798917 -0.029406
C6    C     C_1   0.195155 0.160529 0.667423 0.009687
C7    C     C_1   0.679120 0.191410 0.860671 0.004360
C8    C     C_1   0.658532 0.166949 0.729060 -0.028312
C9    C     C_1   0.666070 0.180846 0.800318 -0.029087
C10   C     C_1   0.652686 0.149338 0.668745 0.007840
C11   C     C_R   0.693133 0.607352 0.200506 -0.023321
C12   C     C_R   0.612215 0.746134 0.598722 0.548812
C13   C     C_R   0.567607 0.700333 0.224800 0.003269
C14   C     C_R   0.550214 0.732075 0.291587 -0.061676
C15   C     C_R   0.789315 0.609430 0.310751 0.211023
C16   C     C_R   0.805820 0.569047 0.241893 -0.146022
C17   C     C_3   0.430786 0.716606 0.217889 -0.245275
C18   C     C_3   0.412381 0.750658 0.293374 -0.214223
C19   C     C_R   0.656372 0.680434 0.337227 0.002247
C20   C     C_R   0.134368 0.196072 0.193037 -0.053063
C21   C     C_R   0.192862 0.260829 0.224264 0.044962
C22   C     C_R   0.223583 0.240724 0.291857 0.079321
C23   C     C_R   0.240899 0.145121 0.598203 0.560725
C24   C     C_R   0.121395 0.102645 0.303688 0.196570
C25   C     C_R   0.093308 0.121251 0.233459 -0.155383
C26   C     C_3   0.319166 0.260323 0.206346 -0.270586
C27   C     C_3   0.352486 0.239422 0.281609 -0.243260
C28   C     C_R   0.192025 0.161433 0.332976 0.024427
C29   C     C_R   0.673169 0.193175 0.195273 0.000638
C30   C     C_R   0.738680 0.064230 0.220314 0.053770
C31   C     C_R   0.736433 0.040934 0.288456 0.120309
C32   C     C_R   0.613347 0.277004 0.312319 -0.149959
C33   C     C_R   0.616317 0.300823 0.242292 -0.164566
C34   C     C_R   0.645796 0.112139 0.402875 0.556135
C35   C     C_3   0.726836 0.945854 0.200181 -0.290068
C36   C     C_3   0.727233 0.918474 0.275806 -0.244826
C37   C     C_R   0.669688 0.145118 0.335282 0.058250
C38   C     C_R   0.081680 0.231488 0.928536 0.546471
C39   C     C_R   0.684229 0.604356 0.929420 0.554411
C40   C     C_R   0.708745 0.206938 0.929994 0.546667
C41   C     C_R   0.082137 0.235537 0.125175 0.538794
C42   C     C_R   0.707626 0.555324 0.133116 0.554057
C43   C     C_R   0.707560 0.212231 0.126916 0.537551
C44   C     C_R   0.620495 0.733652 0.404778 0.570773
C45   C     C_R   0.244013 0.140081 0.401639 0.600454
C46   C     C_1   0.671230 0.646133 0.860019 0.003134
C47   C     C_1   0.654532 0.683710 0.728408 -0.028473
C48   C     C_1   0.663948 0.666408 0.799618 -0.030023
Cr1   Cr    Cr6+3 0.404720 0.198220 0.499960 1.052531
Cr2   Cr    Cr6+3 0.698290 0.897110 0.500380 1.101937
Cr3   Cr    Cr6+3 0.396970 0.904720 0.499610 1.082281
Cr4   Cr    Cr6+3 0.926290 0.152010 0.028150 1.031522
Cr5   Cr    Cr6+3 0.921440 0.451830 0.027490 1.035618
Cr6   Cr    Cr6+3 0.626370 0.446880 0.028730 1.022579
H1    H     H_    0.387872 0.173560 0.173718 0.121495
H2    H     H_    0.440037 0.140540 0.292878 0.105159
H3    H     H_    0.351001 0.326561 0.306782 0.185002
H4    H     H_    0.563337 0.360360 0.347612 0.132070
H5    H     H_    0.576265 0.402194 0.225145 0.127327
H6    H     H_    0.817631 0.868740 0.172787 0.171612
H7    H     H_    0.630063 0.973581 0.175119 0.126515
H8    H     H_    0.631956 0.927825 0.294783 0.106222
H9    H     H_    0.819914 0.827783 0.291810 0.227996
H10   H     H_    0.905118 0.504263 0.221138 0.176447
H11   H     H_    0.431061 0.622631 0.205603 0.148209
H12   H     H_    0.364662 0.802934 0.185294 0.152669
H13   H     H_    0.336710 0.855974 0.303735 0.197387
H14   H     H_    0.404734 0.674903 0.324914 0.175293
H15   H     H_    0.035894 0.080419 0.210602 0.192633
H16   H     H_    0.300009 0.359074 0.187862 0.164498
O1    O     O_R   0.267750 0.231960 0.575440 -0.496260
O2    O     O_R   0.685950 0.784660 0.430010 -0.438722
O3    O     O_R   0.502510 0.767000 0.423980 -0.513009
O4    O     O_R   0.288320 0.026340 0.429250 -0.444553
O5    O     O_3   0.499990 0.000020 0.499980 -0.294716
O6    O     O_R   0.821590 0.119350 0.952850 -0.502568
O7    O     O_R   0.037230 0.162540 0.957390 -0.491737
O8    O     O_R   0.056530 0.344750 0.951370 -0.504155
O9    O     O_R   0.798000 0.560370 0.957490 -0.488993
O10   O     O_R   0.596230 0.579400 0.952760 -0.499923
O11   O     O_R   0.639160 0.321170 0.958690 -0.493311
O12   O     O_R   0.527290 0.186640 0.570530 -0.496800
O13   O     O_R   0.821370 0.124220 0.104400 -0.506583
O14   O     O_R   0.037020 0.167050 0.097880 -0.511058
O15   O     O_R   0.056310 0.349620 0.102920 -0.512874
O16   O     O_R   0.797790 0.564880 0.097980 -0.498982
O17   O     O_R   0.596000 0.584270 0.104310 -0.515368
O18   O     O_R   0.638950 0.325690 0.099180 -0.522901
O19   O     O_3   0.824700 0.350240 0.028120 -0.276449
O20   O     O_R   0.728110 0.003450 0.576380 -0.497238
O21   O     O_R   0.682980 0.789190 0.570500 -0.488242
O22   O     O_R   0.499300 0.771880 0.575540 -0.505527
O23   O     O_R   0.285350 0.030870 0.569740 -0.485986
O24   O     O_R   0.270960 0.227070 0.423890 -0.485961
O25   O     O_R   0.530270 0.182120 0.430040 -0.529687
O26   O     O_R   0.731320 0.998570 0.424830 -0.449206
S1    S     S_3+6 0.935846 0.561934 0.359824 -0.002272
O27   O     O_2   0.955608 0.452127 0.407439 -0.268420
O28   O     O_2   0.054168 0.512878 0.312524 -0.320200
O29   O     O_3   0.929934 0.688604 0.405312 -0.487873
H17   H     H_    0.016045 0.648946 0.429998 0.355992
S2    S     S_3+6 0.058025 0.014651 0.351101 -0.001365
O30   O     O_2   0.940922 0.113984 0.393371 -0.265025
O31   O     O_2   0.012614 0.944847 0.302344 -0.311585
O32   O     O_3   0.170914 0.897688 0.402931 -0.512407
H18   H     H_    0.122582 0.857169 0.425373 0.363081

loop_
_geom_bond_atom_site_label_1
_geom_bond_atom_site_label_2
_ccdc_geom_bond_type
C21   C26   S    
C1    O20   A    
C34   C37   S    
C43   O13   A    
C14   C18   S    
C12   O21   A    
C35   C36   S    
Cr3   O4    S    
C32   H4    S    
C2    C12   S    
C26   H1    S    
S1    O27   D    
C15   C19   A    
C26   C27   S    
C30   C35   S    
C11   C42   S    
C43   O18   A    
Cr5   O9    S    
Cr3   O5    S    
Cr6   O17   S    
C20   C25   A    
C18   H14   S    
C15   C16   A    
C29   C33   A    
S2    O32   S    
Cr4   O14   S    
Cr2   O2    S    
Cr3   O3    S    
Cr2   O20   S    
C3    C38   S    
C8    C9    S    
C7    C40   S    
Cr1   O5    S    
Cr5   O16   S    
C42   O16   A    
Cr1   O24   S    
C36   H9    S    
C33   H5    S    
C22   C28   A    
C21   C22   A    
C29   C43   S    
Cr4   O19   S    
C44   O3    A    
C15   S1    S    
C36   H8    S    
C45   O24   A    
C40   O11   A    
S1    O28   D    
C20   C41   S    
Cr6   O10   S    
C46   C48   T    
C28   C45   S    
C23   O1    A    
C24   C25   A    
Cr6   O19   S    
C4    C6    T    
C27   H3    S    
C27   H2    S    
C38   O8    A    
Cr4   O6    S    
C18   H13   S    
C41   O14   A    
Cr1   O25   S    
C23   O23   A    
C31   C37   A    
C35   H6    S    
C39   O9    A    
Cr1   O12   S    
Cr4   O13   S    
C29   C30   A    
Cr3   O22   S    
C11   C16   A    
C47   C48   S    
C17   C18   S    
C17   H12   S    
C35   H7    S    
C32   C37   A    
C34   O25   A    
S2    O31   D    
Cr3   O23   S    
C39   C46   S    
C22   C27   S    
Cr5   O19   S    
C26   H16   S    
C25   H15   S    
Cr4   O7    S    
S1    O29   S    
C19   C44   S    
C7    C9    T    
C14   C19   A    
C12   O22   A    
C1    C10   S    
C24   C28   A    
C34   O26   A    
C4    C5    S    
C3    C5    T    
C38   O7    A    
C2    C47   T    
C41   O15   A    
O32   H18   S    
C17   H11   S    
C13   C17   S    
C32   C33   A    
Cr5   O8    S    
C1    O12   A    
Cr2   O5    S    
C39   O10   A    
Cr6   O18   S    
C11   C13   A    
Cr2   O26   S    
C30   C31   A    
C6    C23   S    
O29   H17   S    
C44   O2    A    
C24   S2    S    
S2    O30   D    
C40   O6    A    
Cr2   O21   S    
C20   C21   A    
C8    C10   T    
Cr1   O1    S    
C31   C36   S    
C45   O4    A    
Cr5   O15   S    
C42   O17   A    
C16   H10   S    
C13   C14   A    
Cr6   O11   S    
