data_mof_unit_45718.cif
_audit_creation_date              2012-12-10T17:00:03-0500
_audit_creation_method            fapswitch 2.2
_symmetry_space_group_name_H-M    P1
_symmetry_Int_Tables_number       1
_space_group_crystal_system       triclinic
_cell_length_a                    15.119364
_cell_length_b                    15.104528
_cell_length_c                    10.025846
_cell_angle_alpha                 90.836746
_cell_angle_beta                  90.772333
_cell_angle_gamma                 90.030782
_cell_volume                      2289.15827956

loop_
_atom_site_label
_atom_site_type_symbol
_atom_type_description
_atom_site_fract_x
_atom_site_fract_y
_atom_site_fract_z
_atom_type_partial_charge
C1    C     C_R   0.380054 0.882332 0.498352 0.958348
C2    C     C_2   0.689608 0.240904 0.393398 -0.296230
C3    C     C_2   0.187029 0.257170 0.398124 -0.282945
C4    C     C_2   0.193765 0.736639 0.391089 -0.307901
C5    C     C_2   0.685203 0.815374 0.497545 -0.391941
C6    C     C_2   0.667051 0.200855 0.505642 -0.409224
C7    C     C_2   0.185953 0.316457 0.498082 -0.405012
C8    C     C_2   0.167872 0.700170 0.504523 -0.407431
C9    C     C_2   0.259915 0.194985 0.386224 0.524002
C10   C     C_2   0.252304 0.813393 0.394537 0.530120
C11   C     C_2   0.753216 0.687776 0.389702 0.523848
C12   C     C_R   0.377439 0.114804 0.499506 0.945940
C13   C     C_2   0.749550 0.316466 0.398812 0.519955
C14   C     C_2   0.300095 0.168754 0.499278 -0.434274
C15   C     C_2   0.313357 0.816229 0.493265 -0.420596
C16   C     C_2   0.798989 0.667662 0.500955 -0.429086
C17   C     C_2   0.813158 0.316427 0.493695 -0.421411
C18   C     C_2   0.569341 0.020064 0.927004 0.496387
C19   C     C_2   0.053356 0.547700 0.928483 0.494735
C20   C     C_2   0.563996 0.031815 0.076464 -0.266963
C21   C     C_2   0.040441 0.558092 0.076417 -0.251045
C22   C     C_3   0.291172 0.221661 0.163032 0.093945
C23   C     C_R   0.880192 0.382189 0.498410 0.957056
C24   C     C_3   0.222626 0.205522 0.051562 -0.339393
C25   C     C_3   0.229097 0.275183 0.943358 -0.985046
C26   C     C_3   0.171501 0.887418 0.226673 0.090151
C27   C     C_3   0.174164 0.844680 0.087181 -0.352538
C28   C     C_3   0.083671 0.847165 0.018157 -0.943406
C29   C     C_3   0.750978 0.692456 0.154550 0.094200
C30   C     C_3   0.668697 0.654652 0.083346 -0.366597
C31   C     C_3   0.640658 0.711276 0.965366 -0.961525
C32   C     C_3   0.663496 0.409073 0.265052 0.090694
C33   C     C_3   0.640565 0.381318 0.121261 -0.338492
C34   C     C_R   0.877008 0.614366 0.499723 0.951017
C35   C     C_3   0.548561 0.413261 0.080279 -0.991031
C36   C     C_3   0.703544 0.965698 0.861919 0.129579
C37   C     C_3   0.765120 0.962625 0.984588 -0.412545
C38   C     C_3   0.838872 0.894825 0.965626 -0.973123
C39   C     C_3   0.197942 0.549066 0.865442 0.128615
C40   C     C_3   0.252899 0.560496 0.994333 -0.419706
C41   C     C_3   0.345428 0.521670 0.979559 -0.961501
C42   C     C_R   0.615281 0.122140 0.501344 0.961685
C43   C     C_R   0.618699 0.881222 0.499816 0.945564
C44   C     C_R   0.115662 0.621808 0.501252 0.954767
C45   C     C_R   0.118765 0.381389 0.499881 0.952071
C46   C     C_2   0.680977 0.751515 0.403981 -0.297390
H1    H     H_    0.625969 0.749092 0.333234 0.172913
H2    H     H_    0.317404 0.767324 0.571361 0.112302
H3    H     H_    0.778043 0.689634 0.599166 0.123134
H4    H     H_    0.818302 0.266158 0.569609 0.118132
H5    H     H_    0.441103 0.993309 0.897158 0.114400
H6    H     H_    0.948447 0.469892 0.896317 0.119967
H7    H     H_    0.618333 0.065734 0.127086 0.185272
H8    H     H_    0.071190 0.614589 0.126369 0.184524
H9    H     H_    0.454222 0.961448 0.100382 0.169788
H10   H     H_    0.980095 0.442868 0.100431 0.161951
H11   H     H_    0.358199 0.213390 0.120439 0.163113
H12   H     H_    0.666352 0.217167 0.296417 0.183831
H13   H     H_    0.287730 0.291685 0.199809 0.129116
H14   H     H_    0.233356 0.138832 0.006256 0.227709
H15   H     H_    0.155018 0.207288 0.093455 0.214443
H16   H     H_    0.214547 0.341819 0.985862 0.264227
H17   H     H_    0.180119 0.260363 0.862545 0.271984
H18   H     H_    0.296313 0.275147 0.899936 0.263497
H19   H     H_    0.161045 0.959694 0.214637 0.173589
H20   H     H_    0.113541 0.864014 0.283976 0.128390
H21   H     H_    0.222811 0.880561 0.025719 0.224981
H22   H     H_    0.196055 0.774814 0.093660 0.215573
H23   H     H_    0.136658 0.257503 0.319774 0.177264
H24   H     H_    0.034882 0.808718 0.075655 0.263443
H25   H     H_    0.088360 0.817202 0.916686 0.285174
H26   H     H_    0.060437 0.916600 0.009049 0.259832
H27   H     H_    0.807832 0.684889 0.086252 0.163617
H28   H     H_    0.744771 0.765081 0.173378 0.140965
H29   H     H_    0.683214 0.586435 0.046865 0.231680
H30   H     H_    0.612916 0.650698 0.153889 0.212097
H31   H     H_    0.624024 0.779318 0.000247 0.261089
H32   H     H_    0.581206 0.681732 0.916021 0.269040
H33   H     H_    0.694510 0.714330 0.891307 0.260254
H34   H     H_    0.173914 0.709075 0.294787 0.179546
H35   H     H_    0.663697 0.482566 0.271554 0.184743
H36   H     H_    0.610890 0.386913 0.334135 0.121210
H37   H     H_    0.690110 0.409760 0.053022 0.229858
H38   H     H_    0.642953 0.308104 0.110667 0.219331
H39   H     H_    0.497624 0.383742 0.145001 0.264825
H40   H     H_    0.534299 0.392955 0.975291 0.275199
H41   H     H_    0.544894 0.486564 0.088137 0.264777
H42   H     H_    0.744555 0.971317 0.771271 0.168065
H43   H     H_    0.666331 0.902128 0.850714 0.132111
H44   H     H_    0.795157 0.028956 0.002884 0.241652
H45   H     H_    0.739057 0.822792 0.569398 0.135026
H46   H     H_    0.726575 0.944366 0.073616 0.216025
H47   H     H_    0.810698 0.828398 0.942758 0.261886
H48   H     H_    0.879287 0.890941 0.058634 0.268276
H49   H     H_    0.882445 0.914609 0.882848 0.271990
H50   H     H_    0.236771 0.575469 0.781505 0.165465
H51   H     H_    0.186688 0.477412 0.841994 0.132003
H52   H     H_    0.258835 0.632043 0.020107 0.232728
H53   H     H_    0.219625 0.526667 0.077513 0.221037
H54   H     H_    0.341652 0.449962 0.954144 0.268600
H55   H     H_    0.382460 0.530041 0.075269 0.272427
H56   H     H_    0.683887 0.228136 0.603586 0.167999
H57   H     H_    0.381922 0.556459 0.900404 0.266242
H58   H     H_    0.236002 0.320630 0.576466 0.143771
H59   H     H_    0.181976 0.730156 0.601662 0.168774
H60   H     H_    0.275373 0.186762 0.597142 0.128533
N1    N     N_2   0.501330 0.000000 0.852150 -0.227139
N2    N     N_2   0.001330 0.500000 0.852150 -0.231375
N3    N     N_2   0.501360 1.000000 0.147810 -0.204784
N4    N     N_2   0.001360 0.500000 0.147810 -0.203021
O1    O     O_R   0.409520 0.909540 0.613040 -0.634805
O2    O     O_R   0.590440 0.909540 0.613100 -0.626279
O3    O     O_R   0.090440 0.590460 0.613100 -0.576688
O4    O     O_R   0.090440 0.409540 0.613100 -0.630002
O5    O     O_R   0.590480 0.090460 0.386960 -0.627515
O6    O     O_R   0.590480 0.909540 0.386960 -0.612272
O7    O     O_R   0.090480 0.590460 0.386960 -0.627818
O8    O     O_R   0.090480 0.409540 0.386960 -0.616227
O9    O     O_3   0.281131 0.157146 0.263082 -0.614067
O10   O     O_3   0.253996 0.876022 0.292952 -0.617058
O11   O     O_3   0.770187 0.642602 0.269946 -0.617458
O12   O     O_R   0.409520 0.090460 0.613040 -0.632174
O13   O     O_3   0.749832 0.379645 0.298702 -0.613802
O14   O     O_3   0.648249 0.041232 0.867003 -0.617349
O15   O     O_3   0.118547 0.598530 0.872003 -0.619149
O16   O     O_R   0.909520 0.409540 0.613040 -0.634887
O17   O     O_R   0.909520 0.590460 0.613040 -0.625582
O18   O     O_R   0.409560 0.909540 0.386900 -0.557582
O19   O     O_R   0.409560 0.090460 0.386900 -0.546004
O20   O     O_R   0.909560 0.409540 0.386900 -0.556317
O21   O     O_R   0.909560 0.590460 0.386900 -0.543006
O22   O     O_R   0.590440 0.090460 0.613100 -0.570612
Zn1   Zn    Zn3+2 0.499970 1.000000 0.650990 0.955801
Zn2   Zn    Zn3+2 0.999970 0.500000 0.650990 0.952457
Zn3   Zn    Zn3+2 0.500030 0.000000 0.349010 0.974135
Zn4   Zn    Zn3+2 0.000030 0.500000 0.349010 0.974860

loop_
_geom_bond_atom_site_label_1
_geom_bond_atom_site_label_2
_ccdc_geom_bond_type
C36   H43   S    
C45   O8    A    
C24   H15   S    
C39   O15   S    
N3    Zn3   S    
N4    Zn4   S    
O17   Zn2   S    
O2    Zn1   S    
C4    C8    D    
C8    H59   S    
C40   H53   S    
C2    C6    D    
C21   N4    D    
O6    Zn3   S    
C28   H26   S    
C36   H42   S    
C32   H35   S    
C26   C27   S    
C17   C23   S    
C37   H44   S    
C7    C45   S    
C36   C37   S    
C19   C21   S    
C37   C38   S    
C26   O10   S    
C4    H34   S    
C3    C7    D    
C10   C15   D    
C40   H52   S    
C30   C31   S    
C13   O13   S    
C35   H40   S    
C39   H51   S    
C29   H27   S    
C25   H17   S    
C2    C13   S    
C18   N1    D    
C27   H22   S    
C16   C34   S    
O19   Zn3   S    
C35   H41   S    
C45   O4    A    
C34   O17   A    
C29   O11   S    
C38   H49   S    
C1    O18   A    
C1    C15   S    
C19   N2    D    
C3    H23   S    
C5    C43   S    
H9    N3    S    
C32   O13   S    
C11   O11   S    
C15   H2    S    
C22   H11   S    
H10   N4    S    
C31   H31   S    
C22   O9    S    
O20   Zn4   S    
C12   O19   A    
C26   H20   S    
C27   H21   S    
C24   C25   S    
O21   Zn4   S    
O18   Zn3   S    
C22   H13   S    
O1    Zn1   S    
C29   H28   S    
C19   O15   S    
C41   H57   S    
C23   O20   A    
C25   H18   S    
C9    C14   D    
O12   Zn1   S    
N2    Zn2   S    
C29   C30   S    
C3    C9    S    
C43   O6    A    
C30   H30   S    
C11   C16   D    
C24   H14   S    
C38   H48   S    
O4    Zn2   S    
C41   H54   S    
C16   H3    S    
C33   H37   S    
O16   Zn2   S    
C5    H45   S    
C23   O16   A    
C40   C41   S    
C12   C14   S    
C44   O3    A    
C7    H58   S    
C9    O9    S    
C22   C24   S    
C28   H25   S    
C43   O2    A    
C4    C10   S    
C39   C40   S    
O8    Zn4   S    
C31   H32   S    
C46   H1    S    
C37   H46   S    
C36   O14   S    
C26   H19   S    
C28   H24   S    
C8    C44   S    
C20   H7    S    
C17   H4    S    
C34   O21   A    
C2    H12   S    
C31   H33   S    
C32   H36   S    
C5    C46   D    
C13   C17   D    
O3    Zn2   S    
C32   C33   S    
N1    Zn1   S    
C1    O1    A    
C30   H29   S    
C35   H39   S    
C21   H8    S    
O5    Zn3   S    
C44   O7    A    
C38   H47   S    
C33   C35   S    
C41   H55   S    
O22   Zn1   S    
C18   C20   S    
C25   H16   S    
C6    H56   S    
C33   H38   S    
C39   H50   S    
C10   O10   S    
C20   N3    D    
C42   O5    A    
C14   H60   S    
C12   O12   A    
H6    N2    S    
H5    N1    S    
C6    C42   S    
C27   C28   S    
C11   C46   S    
C42   O22   A    
O7    Zn4   S    
C18   O14   S    
