data_mof_unit_66369.cif
_audit_creation_date              2012-10-26T19:11:16-0400
_audit_creation_method            fapswitch 2.2
_symmetry_space_group_name_H-M    P1
_symmetry_Int_Tables_number       1
_space_group_crystal_system       triclinic
_cell_length_a                    15.886131
_cell_length_b                    15.906676
_cell_length_c                    14.660898
_cell_angle_alpha                 90.307051
_cell_angle_beta                  90.489738
_cell_angle_gamma                 89.994796
_cell_volume                      3704.55498306

loop_
_atom_site_label
_atom_site_type_symbol
_atom_type_description
_atom_site_fract_x
_atom_site_fract_y
_atom_site_fract_z
_atom_type_partial_charge
Br1   Br    Br    0.355417 0.090339 0.625378 -0.399866
Br2   Br    Br    0.331464 0.086943 0.414697 -0.431799
Br3   Br    Br    0.402891 0.344264 0.899382 -0.486168
Br4   Br    Br    0.067847 0.675286 0.411775 -0.391041
Br5   Br    Br    0.932102 0.658568 0.623243 -0.344263
Br6   Br    Br    0.072746 0.481888 0.709201 -0.421895
Br7   Br    Br    0.670110 0.092109 0.577739 -0.489957
C1    C     C_R   0.499989 0.339809 0.499796 0.558629
C2    C     C_3   0.534289 0.047756 0.409665 -0.226548
C3    C     C_3   0.533292 0.950465 0.409627 -0.229125
C4    C     C_R   0.339433 0.499935 0.499613 0.557174
C5    C     C_1   0.499673 0.749743 0.500767 0.004796
C6    C     C_3   0.498499 0.082712 0.500748 0.064091
C7    C     C_3   0.554897 0.951351 0.579963 -0.196089
C8    C     C_3   0.498888 0.917204 0.501123 -0.024833
C9    C     C_3   0.408033 0.950448 0.513781 -0.166078
C10   C     C_3   0.406441 0.048475 0.512735 0.273426
C11   C     C_1   0.499342 0.825173 0.501021 -0.053205
C12   C     C_3   0.082912 0.499929 0.499950 0.021025
C13   C     C_1   0.499225 0.174901 0.499746 0.055484
C14   C     C_1   0.499666 0.250315 0.499411 0.060913
C15   C     C_3   0.508395 0.589443 0.054413 -0.230580
C16   C     C_R   0.499964 0.660207 0.500221 0.553362
C17   C     C_3   0.414686 0.462865 0.052123 -0.163712
C18   C     C_3   0.413634 0.461644 0.944238 0.400227
C19   C     C_3   0.498226 0.498889 0.091808 -0.025910
C20   C     C_3   0.508151 0.589972 0.947891 -0.227802
C21   C     C_3   0.498696 0.499401 0.908200 0.064353
C22   C     C_3   0.573924 0.447837 0.947608 -0.251132
C23   C     C_3   0.972838 0.564923 0.550883 0.223737
C24   C     C_3   0.571412 0.444776 0.053889 -0.234864
C25   C     C_1   0.500830 0.500824 0.804909 0.207846
C26   C     C_1   0.498119 0.498623 0.195046 0.125244
C27   C     C_R   0.660585 0.499961 0.500413 0.549502
C28   C     C_3   0.972387 0.427468 0.537108 -0.112752
C29   C     C_3   0.027263 0.434660 0.450326 -0.161231
C30   C     C_1   0.249872 0.499836 0.498952 0.041202
C31   C     C_1   0.750183 0.499888 0.501272 0.018685
C32   C     C_3   0.029126 0.492941 0.586002 0.187792
C33   C     C_3   0.266420 0.476709 0.920580 -0.038685
C34   C     C_3   0.917178 0.500014 0.501501 -0.013037
C35   C     C_3   0.027243 0.571782 0.464761 0.180735
C36   C     C_3   0.970524 0.507098 0.414662 -0.126480
C37   C     C_1   0.174446 0.499802 0.499107 0.044061
C38   C     C_1   0.825635 0.499872 0.501609 0.008311
C39   C     C_3   0.554768 0.048956 0.580550 0.029290
Cu1   Cu    Cu3+1 0.499890 0.499910 0.589920 1.076439
Cu2   Cu    Cu3+1 0.500110 0.500090 0.410080 1.021052
H1    H     H_    0.050796 0.381095 0.408937 0.159892
H2    H     H_    0.948755 0.368191 0.567221 0.170707
H3    H     H_    0.456363 0.629919 0.079736 0.142971
H4    H     H_    0.404718 0.398397 0.078914 0.139147
H5    H     H_    0.361865 0.501825 0.078269 0.131451
H6    H     H_    0.632444 0.467755 0.082260 0.139619
H7    H     H_    0.563877 0.378472 0.076222 0.153322
H8    H     H_    0.634200 0.477074 0.926164 0.132491
H9    H     H_    0.568369 0.617112 0.080354 0.137669
H10   H     H_    0.567827 0.618497 0.923630 0.120141
H11   H     H_    0.945354 0.513225 0.344141 0.155616
H12   H     H_    0.599772 0.070232 0.399440 0.176572
H13   H     H_    0.574309 0.382876 0.919457 0.177864
H14   H     H_    0.620039 0.926748 0.572461 0.189490
H15   H     H_    0.497358 0.071247 0.350348 0.165839
H16   H     H_    0.260134 0.438417 0.983396 0.124423
H17   H     H_    0.250778 0.437763 0.859682 0.212328
H18   H     H_    0.219161 0.527916 0.924301 0.168903
H19   H     H_    0.598240 0.926436 0.398533 0.156858
H20   H     H_    0.493421 0.927262 0.351984 0.151441
H21   H     H_    0.382644 0.926294 0.579084 0.164071
H22   H     H_    0.529480 0.071175 0.646850 0.189844
H23   H     H_    0.531108 0.928118 0.646438 0.134850
H24   H     H_    0.366834 0.924376 0.458801 0.173007
H25   H     H_    0.456209 0.630805 0.922653 0.176716
N1    N     N_1   0.501700 0.501390 0.724970 -0.169629
N2    N     N_1   0.498280 0.498620 0.275030 -0.184241
O1    O     O_R   0.499910 0.379360 0.575970 -0.469958
O2    O     O_R   0.500090 0.379510 0.424100 -0.496026
O3    O     O_R   0.378990 0.499920 0.575920 -0.469811
O4    O     O_R   0.379170 0.500070 0.424050 -0.493040
O5    O     O_R   0.499910 0.620490 0.575900 -0.492868
O6    O     O_R   0.500090 0.620640 0.424030 -0.492411
O7    O     O_R   0.620830 0.499930 0.575950 -0.489862
O8    O     O_R   0.621010 0.500080 0.424080 -0.496647
O9    O     O_3   0.346964 0.513214 0.910407 -0.571063

loop_
_geom_bond_atom_site_label_1
_geom_bond_atom_site_label_2
_ccdc_geom_bond_type
C17   H4    S    
C8    C11   S    
C7    H23   S    
C33   O9    S    
C28   C29   S    
C9    H24   S    
C15   H9    S    
C7    C39   S    
C3    H19   S    
C18   C21   S    
C5    C16   S    
C12   C32   S    
Cu2   O4    S    
C21   C22   S    
C17   C19   S    
Cu1   O1    S    
C3    C8    S    
C25   N1    T    
C6    C39   S    
C8    C9    S    
C7    H14   S    
C1    O1    A    
Cu2   O6    S    
Cu1   O7    S    
C4    C30   S    
C2    C6    S    
C31   C38   T    
C26   N2    T    
C9    C10   S    
C18   O9    S    
C23   C34   S    
C16   O5    A    
C2    C3    S    
C12   C35   S    
C36   H11   S    
C19   C24   S    
C27   C31   S    
Br2   C10   S    
C34   C36   S    
Cu2   N2    S    
Cu1   O5    S    
C22   H13   S    
Br7   C39   S    
Br3   C18   S    
C17   C18   S    
C17   H5    S    
Cu2   O2    S    
C28   C32   S    
C4    O3    A    
C19   C26   S    
Cu1   Cu2   S    
C7    C8    S    
C21   C25   S    
C28   H2    S    
C1    C14   S    
C4    O4    A    
C15   C20   S    
C15   C19   S    
C1    O2    A    
C35   C36   S    
C12   C37   S    
Br5   C23   S    
C16   O6    A    
C6    C13   S    
C2    H15   S    
C9    H21   S    
Cu1   N1    S    
C20   H10   S    
C22   H8    S    
C3    H20   S    
Br1   C10   S    
C33   H16   S    
Cu2   O8    S    
C6    C10   S    
C12   C29   S    
C2    H12   S    
C30   C37   T    
C22   C24   S    
Br4   C35   S    
C23   C32   S    
C24   H6    S    
C28   C34   S    
C33   H17   S    
C39   H22   S    
C13   C14   T    
C27   O8    A    
C5    C11   T    
C20   C21   S    
C34   C38   S    
Br6   C32   S    
C23   C35   S    
C29   C36   S    
C33   H18   S    
C27   O7    A    
Cu1   O3    S    
C24   H7    S    
C20   H25   S    
C29   H1    S    
C15   H3    S    
