data_mof_unit_53607.cif
_audit_creation_date              2012-12-10T18:43:08-0500
_audit_creation_method            fapswitch 2.2
_symmetry_space_group_name_H-M    P1
_symmetry_Int_Tables_number       1
_space_group_crystal_system       triclinic
_cell_length_a                    8.718603
_cell_length_b                    19.410205
_cell_length_c                    18.140818
_cell_angle_alpha                 89.792543
_cell_angle_beta                  97.949525
_cell_angle_gamma                 90.224783
_cell_volume                      3040.42870922

loop_
_atom_site_label
_atom_site_type_symbol
_atom_type_description
_atom_site_fract_x
_atom_site_fract_y
_atom_site_fract_z
_atom_type_partial_charge
C1    C     C_R   0.499375 0.367422 0.500155 0.820119
C2    C     C_R   0.500595 0.632577 0.499870 0.821800
C3    C     C_R   0.639268 0.965042 0.527197 0.523533
C4    C     C_R   0.360121 0.034792 0.478061 0.515613
C5    C     C_R   0.634933 0.037339 0.526133 -0.278225
C6    C     C_R   0.365894 0.962860 0.475643 -0.271689
C7    C     C_R   0.496304 0.071953 0.502099 -0.027763
C8    C     C_R   0.504315 0.928147 0.499944 -0.033556
C9    C     C_R   0.392550 0.462402 0.714306 -0.030685
C10   C     C_R   0.612863 0.534464 0.286270 -0.041834
C11   C     C_R   0.391774 0.461087 0.791998 0.353618
C12   C     C_R   0.618815 0.533279 0.208622 0.369557
C13   C     C_R   0.501717 0.500360 0.838782 -0.095078
C14   C     C_R   0.500323 0.499051 0.161306 -0.079569
C15   C     C_R   0.611532 0.538895 0.805410 0.251812
C16   C     C_R   0.384494 0.463999 0.194245 0.228128
C17   C     C_R   0.607989 0.537859 0.727707 0.012646
C18   C     C_R   0.387885 0.464831 0.271877 0.005161
C19   C     C_R   0.629823 0.475658 0.969865 -0.126709
C20   C     C_R   0.372048 0.523865 0.029919 -0.103155
C21   C     C_R   0.629233 0.475155 0.047311 -0.095849
C22   C     C_R   0.372299 0.523977 0.952427 -0.081313
C23   C     C_R   0.203508 0.500004 0.480991 0.893360
C24   C     C_R   0.796486 0.500025 0.518997 0.893543
C25   C     C_R   0.500285 0.499196 0.078436 0.188020
C26   C     C_R   0.501536 0.500241 0.921464 0.167742
C27   C     C_2   0.037759 0.500100 0.470414 -0.366401
C28   C     C_2   0.962225 0.499974 0.529533 -0.353731
C29   C     C_R   0.487585 0.744594 0.431744 -0.217529
C30   C     C_R   0.509768 0.255755 0.568709 -0.219499
C31   C     C_R   0.488741 0.816455 0.431026 0.409164
C32   C     C_R   0.508851 0.183934 0.569883 0.379144
C33   C     C_R   0.505501 0.852669 0.498684 0.086346
C34   C     C_R   0.495066 0.147379 0.502529 0.073176
C35   C     C_R   0.521334 0.816570 0.566263 -0.169675
C36   C     C_R   0.481642 0.183046 0.434725 -0.139528
C37   C     C_R   0.519314 0.744860 0.566747 -0.179521
C38   C     C_R   0.483457 0.254785 0.433786 -0.189236
C39   C     C_R   0.502221 0.708281 0.499482 -0.108660
C40   C     C_R   0.497786 0.291718 0.500794 -0.107212
Cu1   Cu    Cu3+1 0.499960 0.500000 0.573360 0.954661
Cu2   Cu    Cu3+1 0.500040 0.500000 0.426640 0.950792
H1    H     H_    0.977713 0.500293 0.413719 0.167442
H2    H     H_    0.022291 0.499794 0.586214 0.181331
H3    H     H_    0.691477 0.567948 0.702323 0.170357
H4    H     H_    0.300318 0.436998 0.296828 0.168727
H5    H     H_    0.730254 0.456321 0.947566 0.173628
H6    H     H_    0.271739 0.543461 0.052117 0.172442
H7    H     H_    0.729258 0.455347 0.083006 0.161910
H8    H     H_    0.271968 0.543294 0.916536 0.176918
H9    H     H_    0.474928 0.717285 0.379250 0.193103
H10   H     H_    0.520135 0.283298 0.621015 0.184631
H11   H     H_    0.533895 0.844081 0.618612 0.157780
H12   H     H_    0.471000 0.155190 0.382592 0.179524
H13   H     H_    0.531405 0.718137 0.619730 0.175784
H14   H     H_    0.473380 0.281250 0.380671 0.177953
H15   H     H_    0.739509 0.066854 0.542955 0.164512
H16   H     H_    0.262306 0.933955 0.455003 0.195418
H17   H     H_    0.307168 0.432853 0.678510 0.152880
H18   H     H_    0.697879 0.563515 0.322684 0.149837
N1    N     N_R   0.499980 0.500020 0.683620 -0.225064
N2    N     N_R   0.500020 0.499980 0.316380 -0.220699
O1    O     O_R   0.499930 0.400180 0.561970 -0.586759
O2    O     O_R   0.500070 0.599820 0.438030 -0.580838
O3    O     O_R   0.500010 0.400190 0.438070 -0.581178
O4    O     O_R   0.499990 0.599810 0.561930 -0.582995
O5    O     O_R   0.274810 0.500000 0.547650 -0.578655
O6    O     O_R   0.725190 0.500000 0.452350 -0.583921
O7    O     O_R   0.274880 0.500000 0.423750 -0.593209
O8    O     O_R   0.725120 0.500000 0.576250 -0.585672
Cl1   Cl    Cl    0.750899 0.591049 0.858402 -0.588216
Cl2   Cl    Cl    0.237607 0.415849 0.140986 -0.632765
Cl3   Cl    Cl    0.472659 0.859484 0.344662 -0.552348
Cl4   Cl    Cl    0.521891 0.141311 0.656414 -0.644864
O9    O     O_3   0.776532 0.929520 0.547510 -0.573042
C41   C     C_3   0.841253 0.947136 0.620711 -0.290259
H19   H     H_    0.752988 0.947330 0.659704 0.175400
H20   H     H_    0.902034 0.997573 0.621667 0.164471
H21   H     H_    0.928985 0.907819 0.641292 0.200699
O10   O     O_3   0.224319 0.069209 0.452652 -0.559328
C42   C     C_3   0.122665 0.062984 0.506427 -0.265557
H22   H     H_    0.176307 0.083105 0.561501 0.177710
H23   H     H_    0.083978 0.008718 0.511788 0.178466
H24   H     H_    0.018104 0.094317 0.488135 0.196051
O11   O     O_3   0.279932 0.423525 0.821662 -0.572660
C43   C     C_3   0.327719 0.354217 0.828006 -0.232562
H25   H     H_    0.440783 0.349000 0.864540 0.165132
H26   H     H_    0.334480 0.331235 0.772421 0.155360
H27   H     H_    0.240574 0.324356 0.854052 0.210763
O12   O     O_3   0.730523 0.570191 0.177429 -0.553158
C44   C     C_3   0.880307 0.549231 0.209069 -0.255475
H28   H     H_    0.890294 0.492137 0.214415 0.156840
H29   H     H_    0.914723 0.574262 0.263838 0.154027
H30   H     H_    0.963974 0.566262 0.171826 0.218605

loop_
_geom_bond_atom_site_label_1
_geom_bond_atom_site_label_2
_ccdc_geom_bond_type
C38   C40   A    
C35   H11   S    
Cu1   Cu2   S    
C6    H16   S    
C16   Cl2   S    
C41   H21   S    
Cu1   N1    S    
C21   H7    S    
C42   H22   S    
C24   O8    A    
Cu1   O5    S    
O11   C43   S    
C9    N1    A    
C12   O12   S    
C35   C37   A    
C41   H20   S    
C4    O10   S    
C32   Cl4   S    
C43   H26   S    
C31   Cl3   S    
C20   C25   A    
C1    O1    A    
C23   O5    A    
C19   C26   A    
C23   O7    A    
C30   H10   S    
C1    C40   S    
C17   N1    A    
C2    C39   S    
Cu2   O3    S    
C1    O3    A    
C31   C33   A    
C23   C27   S    
C3    O9    S    
Cu2   N2    S    
C34   C36   A    
C22   H8    S    
Cu2   O6    S    
C10   N2    A    
C4    C7    A    
C18   H4    S    
C42   H23   S    
C2    O2    A    
C41   H19   S    
C4    C6    A    
C3    C8    A    
C44   H28   S    
C5    C7    A    
C43   H25   S    
C18   N2    A    
C6    C8    A    
C2    O4    A    
C28   H2    S    
Cu2   O7    S    
C9    H17   S    
C32   C34   A    
C10   H18   S    
O9    C41   S    
C44   H29   S    
C29   C39   A    
C30   C40   A    
C9    C11   A    
C20   H6    S    
C10   C12   A    
C16   C18   A    
C20   C22   A    
C13   C15   A    
C7    C34   S    
C14   C16   A    
C13   C26   S    
Cu1   O1    S    
Cu2   O2    S    
C42   H24   S    
C29   H9    S    
C15   C17   A    
C21   C25   A    
C19   C21   A    
C24   C28   S    
C17   H3    S    
O10   C42   S    
C3    C5    A    
C43   H27   S    
Cu1   O4    S    
C15   Cl1   S    
C5    H15   S    
C36   C38   A    
C12   C14   A    
C37   C39   A    
C44   H30   S    
C30   C32   A    
C11   C13   A    
O12   C44   S    
C11   O11   S    
C33   C35   A    
C19   H5    S    
C8    C33   S    
C14   C25   S    
C36   H12   S    
C24   O6    A    
C37   H13   S    
C27   H1    S    
C38   H14   S    
C29   C31   A    
C22   C26   A    
C27   C28   D    
Cu1   O8    S    
