data_mof_unit_68043.cif
_audit_creation_date              2012-12-11T14:37:47-0500
_audit_creation_method            fapswitch 2.2
_symmetry_space_group_name_H-M    P1
_symmetry_Int_Tables_number       1
_space_group_crystal_system       monoclinic
_cell_length_a                    14.609774
_cell_length_b                    15.871958
_cell_length_c                    7.084016
_cell_angle_alpha                 90.0
_cell_angle_beta                  78.907291
_cell_angle_gamma                 90.0
_cell_volume                      1611.99216965

loop_
_atom_site_label
_atom_site_type_symbol
_atom_type_description
_atom_site_fract_x
_atom_site_fract_y
_atom_site_fract_z
_atom_type_partial_charge
O1    O     O_R   0.337080 0.165770 0.524980 -0.525199
O2    O     O_R   0.662920 0.834230 0.475020 -0.537996
O3    O     O_R   0.662920 0.665770 0.475020 -0.525199
O4    O     O_R   0.337080 0.334230 0.524980 -0.537996
O5    O     O_R   0.348340 0.341430 0.191390 -0.519115
O6    O     O_R   0.651660 0.658570 0.808610 -0.536236
O7    O     O_R   0.651660 0.841430 0.808610 -0.519116
O8    O     O_R   0.348340 0.158570 0.191390 -0.536235
O9    O     O_R   0.165780 0.339950 0.082750 -0.532297
O10   O     O_R   0.834220 0.660050 0.917250 -0.532593
O11   O     O_R   0.834220 0.839950 0.917250 -0.532297
O12   O     O_R   0.165780 0.160050 0.082750 -0.532593
C1    C     C_R   0.368812 0.364393 0.354463 0.710052
C2    C     C_R   0.630573 0.635830 0.645765 0.729547
C3    C     C_R   0.631188 0.864393 0.645537 0.710051
C4    C     C_R   0.369427 0.135830 0.354235 0.729544
O13   O     O_3   0.191540 0.250000 0.407620 -0.369796
O14   O     O_3   0.808460 0.750000 0.592380 -0.369796
V1    V     V_3+5 0.262540 0.250000 0.108780 1.638538
V2    V     V_3+5 0.737460 0.750000 0.891220 1.638537
O15   O     O_R   0.154530 0.164290 0.756910 -0.529095
O16   O     O_R   0.845470 0.835710 0.243090 -0.529536
O17   O     O_R   0.845470 0.664290 0.243090 -0.529094
O18   O     O_R   0.154530 0.335710 0.756910 -0.529536
C5    C     C_R   0.135364 0.131601 0.932573 0.768549
C6    C     C_R   0.865165 0.868063 0.067208 0.769906
C7    C     C_R   0.864636 0.631601 0.067427 0.768549
C8    C     C_R   0.134835 0.368063 0.932792 0.769906
V3    V     V_3+5 0.240320 0.250000 0.616280 1.598543
V4    V     V_3+5 0.759680 0.750000 0.383720 1.598543
O19   O     O_3   0.311330 0.250000 0.867310 -0.357300
O20   O     O_3   0.688670 0.750000 0.132690 -0.357300
C9    C     C_3   0.072671 0.526167 0.069795 -0.033037
C10   C     C_3   0.925835 0.472988 0.930262 -0.044036
C11   C     C_3   0.927329 0.026167 0.930205 -0.033036
C12   C     C_3   0.074165 0.972988 0.069738 -0.044037
C13   C     C_3   0.032039 0.570631 0.911746 -0.233683
C14   C     C_3   0.966475 0.428399 0.088318 -0.232273
C15   C     C_3   0.967960 0.070631 0.088254 -0.233683
C16   C     C_3   0.033525 0.928399 0.911682 -0.232273
H1    H     H_    0.058463 0.630292 0.838951 0.179681
H2    H     H_    0.940051 0.368786 0.161245 0.185130
H3    H     H_    0.941537 0.130292 0.161049 0.179681
H4    H     H_    0.059949 0.868786 0.838755 0.185130
C17   C     C_3   0.932821 0.558462 0.030567 -0.142212
C18   C     C_3   0.065911 0.440695 0.969518 -0.145108
C19   C     C_3   0.067179 0.058461 0.969434 -0.142212
C20   C     C_3   0.934088 0.940695 0.030482 -0.145108
C21   C     C_3   0.972444 0.514359 0.189857 0.194558
C22   C     C_3   0.026254 0.484729 0.809925 0.191015
C23   C     C_3   0.027556 0.014358 0.810143 0.194558
C24   C     C_3   0.973746 0.984729 0.190075 0.191015
C25   C     C_2   0.572398 0.372224 0.102834 -0.055844
C26   C     C_2   0.523326 0.445936 0.571956 -0.018135
C27   C     C_2   0.427602 0.872225 0.897167 -0.055843
C28   C     C_2   0.476674 0.945937 0.428045 -0.018135
C29   C     C_2   0.602326 0.392664 0.264711 0.124345
C30   C     C_2   0.552068 0.461072 0.383236 0.012160
C31   C     C_2   0.397674 0.892664 0.735290 0.124345
C32   C     C_2   0.447932 0.961072 0.616764 0.012160
C33   C     C_2   0.461013 0.497799 0.715206 0.759742
O21   O     O_2   0.437932 0.470249 0.878184 -0.530903
O22   O     O_R   0.426622 0.575537 0.668061 -0.647548
H5    H     H_    0.384444 0.603240 0.781418 0.330120
C34   C     C_2   0.603389 0.302735 0.967664 0.828011
O23   O     O_2   0.562604 0.291704 0.834538 -0.525313
O24   O     O_R   0.676700 0.249667 0.989146 -0.619649
H6    H     H_    0.688348 0.204884 0.885606 0.343237
C35   C     C_2   0.538988 0.997799 0.284795 0.759743
O25   O     O_2   0.562067 0.970251 0.121816 -0.530904
O26   O     O_R   0.573381 0.075535 0.331941 -0.647547
H7    H     H_    0.615560 0.103238 0.218584 0.330122
C36   C     C_2   0.396611 0.802736 0.032337 0.828009
O27   O     O_2   0.437397 0.791705 0.165463 -0.525313
O28   O     O_R   0.323300 0.749668 0.010856 -0.619648
H8    H     H_    0.311651 0.704885 0.114396 0.343237
I1    I     I_    0.511673 0.569211 0.239223 -0.291846
I2    I     I_    0.706517 0.324090 0.373788 -0.236008
I3    I     I_    0.488327 0.069212 0.760777 -0.291845
I4    I     I_    0.293484 0.824091 0.626212 -0.236009
C37   C     C_2   0.157536 0.565327 0.121142 0.840933
O29   O     O_2   0.152017 0.635325 0.194293 -0.514540
O30   O     O_R   0.242247 0.521883 0.085352 -0.648402
H9    H     H_    0.293771 0.553588 0.132187 0.318022
C38   C     C_2   0.839726 0.435878 0.878879 0.867549
O31   O     O_2   0.841684 0.364325 0.814439 -0.498254
O32   O     O_R   0.758014 0.483655 0.902771 -0.660755
H10   H     H_    0.707354 0.455141 0.846461 0.294818
C39   C     C_2   0.842464 0.065327 0.878858 0.840932
O33   O     O_2   0.847982 0.135325 0.805706 -0.514539
O34   O     O_R   0.757753 0.021883 0.914647 -0.648403
H11   H     H_    0.706230 0.053587 0.867807 0.318021
C40   C     C_2   0.160274 0.935878 0.121121 0.867550
O35   O     O_2   0.158316 0.864325 0.185561 -0.498253
O36   O     O_R   0.241985 0.983655 0.097229 -0.660755
H12   H     H_    0.292646 0.955141 0.153539 0.294819
I5    I     I_    0.887214 0.521667 0.468406 -0.324779
I6    I     I_    0.113440 0.479138 0.532395 -0.312965
I7    I     I_    0.112786 0.021667 0.531594 -0.324779
I8    I     I_    0.886559 0.979138 0.467605 -0.312966

loop_
_geom_bond_atom_site_label_1
_geom_bond_atom_site_label_2
_ccdc_geom_bond_type
O10   C7    A    
O32   H10   S    
C32   I3    S    
C40   O35   D    
C27   C31   D    
O13   V3    S    
C36   O27   D    
O36   H12   S    
V1    O19   S    
C37   O29   D    
C14   C21   S    
C38   O31   D    
C8    C18   S    
C14   H2    S    
C26   C30   D    
C9    C21   S    
C12   C19   S    
C35   O26   S    
O4    C1    A    
C33   O22   S    
O18   V3    S    
C30   I1    S    
C12   C40   S    
O9    V1    S    
O10   V2    S    
C34   O24   S    
O14   V4    S    
O17   C7    A    
C39   O34   S    
C25   C34   S    
C5    C19   S    
C16   H4    S    
O5    C1    A    
O4    V3    S    
C12   C24   S    
C6    C20   S    
C7    C17   S    
O7    C3    A    
C15   C24   S    
C31   C32   S    
C40   O36   S    
C9    C18   S    
C36   O28   S    
C33   O21   D    
C11   C20   S    
C37   O30   S    
C38   O32   S    
C23   I7    S    
O11   V2    S    
C10   C22   S    
O8    V1    S    
C22   I6    S    
O24   H6    S    
O17   V4    S    
C12   C16   S    
O34   H11   S    
C10   C17   S    
C25   C29   D    
C19   C23   S    
O11   C6    A    
O15   V3    S    
C24   I8    S    
C9    C13   S    
C28   C32   D    
C10   C38   S    
O3    V4    S    
C11   C15   S    
O28   H8    S    
O6    C2    A    
O30   H9    S    
C17   C21   S    
O1    V3    S    
O1    C4    A    
O2    C3    A    
O7    V2    S    
O3    C2    A    
C11   C39   S    
C34   O23   D    
C11   C23   S    
C13   C17   S    
C15   C19   S    
V2    O20   S    
C16   C20   S    
O15   C5    A    
O16   V4    S    
C10   C14   S    
C29   I2    S    
O18   C8    A    
C31   I4    S    
C15   H3    S    
O5    V1    S    
C26   C33   S    
C16   C23   S    
O6    V2    S    
C18   C22   S    
O12   C5    A    
O2    V4    S    
O26   H7    S    
V3    O19   S    
V4    O20   S    
C13   C22   S    
C29   C30   S    
O12   V1    S    
O13   V1    S    
O14   V2    S    
C13   H1    S    
C35   O25   D    
C14   C18   S    
C21   I5    S    
O22   H5    S    
C27   C36   S    
C20   C24   S    
O8    C4    A    
C28   C35   S    
O16   C6    A    
C39   O33   D    
C9    C37   S    
O9    C8    A    
