data_mof_unit_28267.cif
_audit_creation_date              2012-12-10T18:19:07-0500
_audit_creation_method            fapswitch 2.2
_symmetry_space_group_name_H-M    P1
_symmetry_Int_Tables_number       1
_space_group_crystal_system       triclinic
_cell_length_a                    14.84629
_cell_length_b                    14.191298
_cell_length_c                    11.574968
_cell_angle_alpha                 89.600288
_cell_angle_beta                  91.355498
_cell_angle_gamma                 89.91122
_cell_volume                      2437.96296237

loop_
_atom_site_label
_atom_site_type_symbol
_atom_type_description
_atom_site_fract_x
_atom_site_fract_y
_atom_site_fract_z
_atom_type_partial_charge
C1    C     C_R   0.327442 0.499744 0.495191 0.921159
C2    C     C_R   0.672529 0.499409 0.504034 0.934175
C3    C     C_R   0.902012 0.496168 0.395900 0.025134
C4    C     C_R   0.097676 0.493673 0.602123 0.026369
C5    C     C_R   0.961855 0.484208 0.713397 0.014628
C6    C     C_R   0.038096 0.492745 0.284534 0.010305
C7    C     C_R   0.055735 0.488390 0.709584 0.407378
C8    C     C_R   0.944074 0.495659 0.288205 0.410065
C9    C     C_R   0.579861 0.799546 0.496779 0.478071
C10   C     C_R   0.424018 0.201122 0.530577 0.482520
C11   C     C_R   0.420350 0.800122 0.502850 0.502059
C12   C     C_R   0.576340 0.201228 0.471222 0.483031
C13   C     C_R   0.420217 0.899860 0.517581 -0.197014
C14   C     C_R   0.580181 0.101140 0.480971 -0.184326
C15   C     C_R   0.580670 0.899897 0.485455 -0.200640
C16   C     C_R   0.420413 0.100996 0.522495 -0.183734
C17   C     C_R   0.500427 0.950279 0.501615 -0.137518
C18   C     C_R   0.500324 0.050809 0.501609 -0.129229
C19   C     C_R   0.341330 0.950183 0.545176 0.389443
C20   C     C_R   0.661356 0.050153 0.468478 0.355761
C21   C     C_R   0.660286 0.950680 0.461319 0.396899
C22   C     C_R   0.339699 0.049732 0.537959 0.352443
C23   C     C_R   0.501101 0.500359 0.282078 0.880277
C24   C     C_R   0.498834 0.499836 0.717917 0.882584
C25   C     C_1   0.501625 0.501135 0.161504 -0.221844
C26   C     C_1   0.498062 0.499814 0.838484 -0.223520
C27   C     C_1   0.500681 0.500901 0.059353 -0.008582
C28   C     C_1   0.498877 0.500222 0.940632 -0.008485
C29   C     C_R   0.809106 0.498875 0.400338 -0.301364
C30   C     C_R   0.190539 0.497531 0.597994 -0.281074
C31   C     C_R   0.767687 0.496283 0.505492 -0.177993
C32   C     C_R   0.232157 0.497894 0.493003 -0.169736
C33   C     C_R   0.815418 0.481139 0.609193 0.425019
C34   C     C_R   0.184471 0.486102 0.388809 0.412877
C35   C     C_R   0.909830 0.486798 0.609356 -0.030390
C36   C     C_R   0.090000 0.491846 0.388669 -0.030322
C37   C     C_R   0.952978 0.493700 0.500926 -0.090124
C38   C     C_R   0.046735 0.494421 0.497139 -0.083096
H1    H     H_    0.767393 0.501701 0.322408 0.172311
H2    H     H_    0.232105 0.498128 0.676108 0.168180
N1    N     N_R   0.500000 0.750030 0.500000 -0.210808
N2    N     N_R   0.500000 0.249970 0.500000 -0.211711
O1    O     O_R   0.367850 0.580280 0.500030 -0.584798
O2    O     O_R   0.632150 0.419720 0.499970 -0.597044
O3    O     O_R   0.632150 0.580280 0.499970 -0.575512
O4    O     O_R   0.367850 0.419720 0.500030 -0.593366
O5    O     O_R   0.500010 0.580270 0.334450 -0.616339
O6    O     O_R   0.499990 0.419730 0.665550 -0.642450
O7    O     O_R   0.499990 0.580270 0.665550 -0.614919
O8    O     O_R   0.500010 0.419730 0.334450 -0.641713
Zn1   Zn    Zn3+2 0.500000 0.607200 0.500000 0.976910
Zn2   Zn    Zn3+2 0.500000 0.392800 0.500000 0.953910
O9    O     O_3   0.768666 0.461181 0.708592 -0.651624
C39   C     C_3   0.760736 0.362042 0.718985 0.079940
H3    H     H_    0.827762 0.329465 0.737331 0.149650
H4    H     H_    0.732109 0.330556 0.638356 0.191321
C40   C     C_3   0.698832 0.338249 0.818460 -0.302645
H5    H     H_    0.733989 0.353479 0.901955 0.217712
H6    H     H_    0.638018 0.383034 0.811930 0.244397
C41   C     C_3   0.669421 0.235247 0.815785 -0.988158
H7    H     H_    0.636087 0.218574 0.731463 0.263555
H8    H     H_    0.619993 0.221935 0.884315 0.264294
H9    H     H_    0.728459 0.188262 0.830669 0.258714
O10   O     O_3   0.231039 0.465018 0.289848 -0.648949
C42   C     C_3   0.236965 0.365589 0.281444 0.081398
H10   H     H_    0.169577 0.335105 0.260742 0.147930
H11   H     H_    0.262722 0.333290 0.363766 0.187740
C43   C     C_3   0.301018 0.339464 0.185422 -0.301439
H12   H     H_    0.268002 0.353688 0.100158 0.212416
H13   H     H_    0.362181 0.383402 0.192463 0.245788
C44   C     C_3   0.329161 0.236062 0.192894 -0.983823
H14   H     H_    0.361320 0.220225 0.278466 0.265064
H15   H     H_    0.379150 0.220838 0.125807 0.264675
H16   H     H_    0.269712 0.189843 0.178840 0.257939
N3    N     N_3   0.919855 0.478849 0.823583 -0.406605
H17   H     H_    0.936653 0.539176 0.870504 0.180645
H18   H     H_    0.944898 0.419899 0.868603 0.214873
N4    N     N_3   0.080487 0.492664 0.174480 -0.399390
H19   H     H_    0.062849 0.554699 0.130357 0.175154
H20   H     H_    0.056373 0.435351 0.126686 0.214095
O11   O     O_3   0.106086 0.471041 0.809823 -0.655582
C45   C     C_3   0.137634 0.556488 0.857703 0.033854
H21   H     H_    0.084374 0.588027 0.911173 0.134503
H22   H     H_    0.157149 0.609314 0.790957 0.143686
C46   C     C_3   0.220131 0.534206 0.934755 -0.314049
H23   H     H_    0.200421 0.484696 0.004161 0.243645
H24   H     H_    0.272775 0.499546 0.883104 0.208990
C47   C     C_3   0.259604 0.622677 0.989164 -0.941969
H25   H     H_    0.288776 0.668035 0.921296 0.270507
H26   H     H_    0.313727 0.603177 0.052788 0.280855
H27   H     H_    0.206386 0.661990 0.034102 0.265985
O12   O     O_3   0.894122 0.481583 0.187021 -0.656102
C48   C     C_3   0.860016 0.568125 0.143222 0.036038
H28   H     H_    0.911981 0.603169 0.090429 0.132863
H29   H     H_    0.839974 0.617700 0.212547 0.145331
C49   C     C_3   0.777373 0.547087 0.066030 -0.313953
H30   H     H_    0.798397 0.506225 0.989863 0.242931
H31   H     H_    0.728692 0.503444 0.114428 0.213941
C50   C     C_3   0.729924 0.636896 0.025055 -0.959414
H32   H     H_    0.696863 0.670868 0.098960 0.273784
H33   H     H_    0.677427 0.619479 0.958712 0.276655
H34   H     H_    0.778747 0.686608 0.986851 0.266692
O13   O     O_3   0.660771 0.752003 0.503893 -0.578793
C51   C     C_3   0.693987 0.753997 0.619687 0.172200
H35   H     H_    0.660920 0.697243 0.670078 0.160264
H36   H     H_    0.681452 0.822593 0.663318 0.086092
C52   C     C_3   0.795994 0.737869 0.620758 -0.288540
H37   H     H_    0.812512 0.678315 0.563534 0.235497
H38   H     H_    0.829976 0.801630 0.586804 0.237315
C53   C     C_3   0.832874 0.716900 0.742295 -1.018411
H39   H     H_    0.818597 0.776672 0.800578 0.260885
H40   H     H_    0.906923 0.706260 0.739797 0.264664
H41   H     H_    0.801813 0.651703 0.776735 0.306646
O14   O     O_3   0.350048 0.249629 0.569435 -0.596512
C54   C     C_3   0.361851 0.270587 0.688501 0.186736
H42   H     H_    0.344266 0.345927 0.700230 0.168377
H43   H     H_    0.432163 0.260540 0.723244 0.110080
C55   C     C_3   0.297658 0.211857 0.760906 -0.344757
H44   H     H_    0.228508 0.215080 0.722032 0.265979
H45   H     H_    0.321012 0.137520 0.762987 0.216931
C56   C     C_3   0.294850 0.247968 0.884406 -1.001592
H46   H     H_    0.363911 0.249669 0.923253 0.266639
H47   H     H_    0.252270 0.200733 0.936961 0.279009
H48   H     H_    0.265615 0.320011 0.885336 0.278392
O15   O     O_3   0.339070 0.754245 0.487485 -0.579849
C57   C     C_3   0.318741 0.745966 0.367413 0.181581
H49   H     H_    0.276851 0.681845 0.355418 0.180519
H50   H     H_    0.379714 0.735477 0.314237 0.112019
C58   C     C_3   0.263653 0.830503 0.321814 -0.384706
H51   H     H_    0.205883 0.843219 0.378926 0.264564
H52   H     H_    0.306727 0.894344 0.320171 0.203886
C59   C     C_3   0.226864 0.813291 0.199934 -1.008046
H53   H     H_    0.282797 0.796012 0.141798 0.281934
H54   H     H_    0.192065 0.877666 0.166769 0.272672
H55   H     H_    0.177674 0.754422 0.200615 0.270045
O16   O     O_3   0.650811 0.249908 0.433915 -0.596559
C60   C     C_3   0.641146 0.271227 0.314357 0.186903
H56   H     H_    0.657070 0.347026 0.302436 0.169458
H57   H     H_    0.571875 0.259745 0.277075 0.106825
C61   C     C_3   0.708599 0.214396 0.245320 -0.345164
H58   H     H_    0.776435 0.217835 0.287877 0.265708
H59   H     H_    0.686411 0.139788 0.241749 0.216190
C62   C     C_3   0.715004 0.252474 0.122410 -1.002153
H60   H     H_    0.646994 0.255419 0.080656 0.267338
H61   H     H_    0.758816 0.205761 0.071440 0.278704
H62   H     H_    0.744534 0.324327 0.123303 0.281343
O17   O     O_3   0.264671 0.901452 0.576718 -0.623659
C63   C     C_3   0.248806 0.913687 0.695929 0.133020
H63   H     H_    0.179811 0.887465 0.712508 0.155895
H64   H     H_    0.249143 0.989061 0.721323 0.149889
C64   C     C_3   0.315717 0.857010 0.772200 -0.370471
H65   H     H_    0.310455 0.780991 0.750619 0.245757
H66   H     H_    0.385717 0.880501 0.756455 0.210382
C65   C     C_3   0.297131 0.870713 0.900000 -1.005326
H67   H     H_    0.301517 0.946526 0.922753 0.272507
H68   H     H_    0.348238 0.831492 0.952881 0.273879
H69   H     H_    0.229052 0.843878 0.920488 0.272740
O18   O     O_3   0.742441 0.097314 0.460043 -0.634463
C66   C     C_3   0.789644 0.091714 0.567123 0.121975
H70   H     H_    0.813120 0.018274 0.584234 0.159729
H71   H     H_    0.746447 0.114819 0.638994 0.128777
C67   C     C_3   0.871620 0.156404 0.562745 -0.325781
H72   H     H_    0.914384 0.134957 0.490039 0.233773
H73   H     H_    0.849035 0.230137 0.546753 0.229280
C68   C     C_3   0.927455 0.151784 0.675081 -1.014179
H74   H     H_    0.885054 0.167802 0.750183 0.263649
H75   H     H_    0.982704 0.204343 0.672009 0.272703
H76   H     H_    0.957348 0.080459 0.686839 0.270247
O19   O     O_3   0.738362 0.902566 0.434295 -0.632969
C69   C     C_3   0.759811 0.917445 0.316887 0.123376
H77   H     H_    0.829403 0.890855 0.305250 0.154296
H78   H     H_    0.761171 0.993306 0.292783 0.154946
C70   C     C_3   0.696259 0.863364 0.234536 -0.363256
H79   H     H_    0.699345 0.786964 0.255925 0.247253
H80   H     H_    0.625820 0.887995 0.244429 0.210362
C71   C     C_3   0.722108 0.878773 0.108964 -1.004158
H81   H     H_    0.720433 0.955087 0.086876 0.269079
H82   H     H_    0.673432 0.841847 0.050858 0.276735
H83   H     H_    0.790755 0.850644 0.094466 0.266283
O20   O     O_3   0.258690 0.096591 0.549540 -0.632880
C72   C     C_3   0.209188 0.092374 0.444120 0.123851
H84   H     H_    0.183313 0.019748 0.429750 0.158335
H85   H     H_    0.251304 0.113580 0.369982 0.127643
C73   C     C_3   0.129250 0.159905 0.449817 -0.321518
H86   H     H_    0.087221 0.139956 0.524140 0.232688
H87   H     H_    0.154167 0.232811 0.463914 0.231432
C74   C     C_3   0.071405 0.157308 0.339116 -1.016487
H88   H     H_    0.112781 0.172793 0.262677 0.264192
H89   H     H_    0.017222 0.211130 0.343429 0.272962
H90   H     H_    0.040025 0.086772 0.328733 0.269479

loop_
_geom_bond_atom_site_label_1
_geom_bond_atom_site_label_2
_ccdc_geom_bond_type
C62   H62   S    
C68   H74   S    
C10   N2    A    
O19   C69   S    
C14   C18   A    
O17   C63   S    
C63   C64   S    
O7    Zn1   S    
C51   H36   S    
O11   C45   S    
C46   H23   S    
C60   H57   S    
C48   H28   S    
C41   H9    S    
C48   C49   S    
C35   C37   A    
C63   H64   S    
C67   H72   S    
C59   H55   S    
C74   H89   S    
N4    H20   S    
C1    O4    A    
C40   H6    S    
C69   H77   S    
O3    Zn1   S    
C62   H60   S    
C49   C50   S    
O4    Zn2   S    
C73   H86   S    
C69   C70   S    
C41   H8    S    
C64   C65   S    
C3    C29   A    
C55   H44   S    
C74   H90   S    
C12   N2    A    
C53   H39   S    
C1    O1    A    
C71   H83   S    
C66   H70   S    
C2    O2    A    
C43   H12   S    
C42   H11   S    
C49   H31   S    
C50   H34   S    
O8    Zn2   S    
C52   H37   S    
C66   H71   S    
C8    O12   S    
C65   H68   S    
C10   O14   S    
C9    O13   S    
C58   C59   S    
C47   H25   S    
O2    Zn2   S    
C46   H24   S    
C68   H75   S    
C20   O18   S    
C52   H38   S    
C4    C7    A    
C34   O10   S    
C51   H35   S    
O14   C54   S    
C67   H73   S    
C70   H80   S    
C2    O3    A    
C33   O9    S    
C60   C61   S    
C39   H4    S    
C23   O5    A    
C13   C19   A    
C24   O6    A    
C14   C20   A    
C19   C22   A    
C61   H58   S    
C65   H69   S    
C22   O20   S    
C3    C8    A    
C72   H85   S    
C5    C7    A    
N4    H19   S    
C59   H53   S    
C23   O8    A    
O5    Zn1   S    
C57   C58   S    
C54   H43   S    
C72   H84   S    
C1    C32   S    
C19   O17   S    
C16   C22   A    
C41   H7    S    
C55   C56   S    
C32   C34   A    
C5    N3    S    
N3    H17   S    
C37   C38   A    
C67   C68   S    
C50   H32   S    
C47   H27   S    
O6    Zn2   S    
C64   H65   S    
C54   C55   S    
C49   H30   S    
C29   H1    S    
C31   C33   A    
C17   C18   A    
C56   H46   S    
C66   C67   S    
C30   H2    S    
C43   C44   S    
C16   C18   A    
C63   H63   S    
C61   C62   S    
N3    H18   S    
C53   H41   S    
C65   H67   S    
C55   H45   S    
C59   H54   S    
C71   H81   S    
C7    O11   S    
C4    C38   A    
C45   H21   S    
C68   H76   S    
C45   H22   S    
O15   C57   S    
C52   C53   S    
C42   C43   S    
O13   C51   S    
O20   C72   S    
C44   H15   S    
C58   H51   S    
C46   C47   S    
C24   O7    A    
C62   H61   S    
C39   H3    S    
C57   H50   S    
C72   C73   S    
C50   H33   S    
C9    N1    A    
C24   C26   S    
O16   C60   S    
C40   C41   S    
C44   H16   S    
C6    C8    A    
C70   C71   S    
O9    C39   S    
C61   H59   S    
C25   C27   T    
C45   C46   S    
C60   H56   S    
C26   C28   T    
C73   H87   S    
C73   C74   S    
C13   C17   A    
O10   C42   S    
C36   C38   A    
C47   H26   S    
C12   C14   A    
C74   H88   S    
C29   C31   A    
C10   C16   A    
C30   C32   A    
C11   C13   A    
O1    Zn1   S    
C40   H5    S    
O18   C66   S    
C69   H78   S    
C57   H49   S    
C21   O19   S    
C5    C35   A    
C71   H82   S    
O12   C48   S    
C33   C35   A    
C6    C36   A    
C11   N1    A    
C34   C36   A    
C64   H66   S    
C9    C15   A    
C53   H40   S    
C56   H47   S    
C6    N4    S    
C70   H79   S    
C15   C21   A    
C23   C25   S    
C11   O15   S    
C20   C21   A    
C3    C37   A    
C48   H29   S    
C42   H10   S    
C12   O16   S    
C27   C28   S    
C56   H48   S    
C43   H13   S    
C2    C31   S    
C44   H14   S    
C15   C17   A    
N1    Zn1   S    
C51   C52   S    
C4    C30   A    
C54   H42   S    
N2    Zn2   S    
C58   H52   S    
C39   C40   S    
