data_mof_unit_66813.cif
_audit_creation_date              2012-12-11T14:27:19-0500
_audit_creation_method            fapswitch 2.2
_symmetry_space_group_name_H-M    P1
_symmetry_Int_Tables_number       1
_space_group_crystal_system       triclinic
_cell_length_a                    8.260889
_cell_length_b                    15.243081
_cell_length_c                    15.017072
_cell_angle_alpha                 96.951822
_cell_angle_beta                  99.615665
_cell_angle_gamma                 98.51493
_cell_volume                      1823.13297995

loop_
_atom_site_label
_atom_site_type_symbol
_atom_type_description
_atom_site_fract_x
_atom_site_fract_y
_atom_site_fract_z
_atom_type_partial_charge
Ba1   Ba    Ba6+2 0.154720 0.543770 0.458160 1.658532
Ba2   Ba    Ba6+2 0.655440 0.456220 0.541760 1.655149
C1    C     C_3   0.509851 0.822729 0.168988 -0.359754
C2    C     C_R   0.891452 0.794471 0.523828 0.047475
C3    C     C_R   0.078702 0.231627 0.519671 -0.261014
C4    C     C_3   0.931155 0.784040 0.248663 0.394337
C5    C     C_R   0.174749 0.172915 0.558302 0.030830
C6    C     C_R   0.109091 0.081657 0.549814 -0.166051
C7    C     C_R   0.947487 0.045320 0.499397 -0.016671
C8    C     C_R   0.856672 0.105526 0.452976 -0.044136
C9    C     C_R   0.875265 0.951019 0.492254 -0.020958
C10   C     C_R   0.705867 0.921144 0.445951 -0.060012
C11   C     C_R   0.621920 0.982850 0.400039 0.118659
C12   C     C_3   0.427176 0.752940 0.219623 0.559713
C13   C     C_R   0.706976 0.067826 0.392965 0.169156
C14   C     C_R   0.964322 0.885910 0.531153 -0.123947
C15   C     C_R   0.725760 0.768444 0.480115 -0.277556
C16   C     C_3   0.986184 0.872787 0.214985 -0.001209
C17   C     C_R   0.919935 0.201135 0.467283 0.036220
C18   C     C_R   0.218675 0.480444 0.765960 -0.261454
C19   C     C_R   0.115831 0.452235 0.825910 0.010228
C20   C     C_R   0.178178 0.468148 0.920364 -0.161074
C21   C     C_R   0.347533 0.507946 0.955442 0.017442
C22   C     C_R   0.445165 0.538323 0.892547 -0.123082
C23   C     C_3   0.697569 0.728050 0.725405 0.349381
C24   C     C_R   0.380725 0.526368 0.799557 0.027772
C25   C     C_R   0.586808 0.564717 0.090864 -0.109709
C26   C     C_R   0.657941 0.571040 0.182696 0.007618
C27   C     C_R   0.408810 0.482503 0.209495 0.017600
C28   C     C_3   0.746425 0.355515 0.265632 0.291164
C29   C     C_R   0.337574 0.473292 0.116770 -0.130797
C30   C     C_R   0.423526 0.516274 0.055363 0.042935
C31   C     C_R   0.565616 0.534532 0.242433 -0.246167
C32   C     C_3   0.713459 0.337138 0.161016 -0.258570
C33   C     C_3   0.097784 0.664984 0.738598 0.302787
C34   C     C_3   0.721135 0.828195 0.724851 -0.421256
C35   C     C_3   0.161261 0.697038 0.839933 -0.427312
C36   C     C_3   0.305591 0.250192 0.250850 0.270860
C37   C     C_3   0.282580 0.233966 0.146494 -0.364415
C38   C     C_3   0.220347 0.698373 0.074036 -0.188070
C39   C     C_2   0.855503 0.304275 0.124853 0.527948
C40   C     C_2   0.238890 0.166401 0.285586 0.474782
C41   C     C_3   0.016322 0.936167 0.075204 -0.228833
C42   C     C_3   0.305216 0.289611 0.856220 -0.323819
C43   C     C_3   0.242365 0.094900 0.934823 -0.278681
C44   C     C_3   0.687236 0.025901 0.920954 -0.219224
C45   C     C_3   0.896367 0.219812 0.716679 0.346507
C46   C     C_3   0.438510 0.979830 0.707121 -0.230335
C47   C     C_3   0.340916 0.997052 0.413951 -0.108561
C48   C     C_3   0.710947 0.085463 0.235848 -0.181689
C49   C     C_3   0.884750 0.122417 0.731880 -0.422798
C50   C     C_3   0.467016 0.188866 0.787353 0.473624
C51   C     C_3   0.475982 0.104616 0.840035 0.469805
C52   C     C_R   0.630498 0.829254 0.443175 0.007490
H1    H     H_    0.691908 0.398856 0.132494 0.006955
H2    H     H_    0.149529 0.209674 0.115306 0.170074
H3    H     H_    0.356324 0.182663 0.125019 0.104219
H4    H     H_    0.324499 0.296301 0.120146 0.042698
H5    H     H_    0.529253 0.722840 0.255622 -0.065708
H6    H     H_    0.562871 0.788519 0.114122 0.070645
H7    H     H_    0.793663 0.714248 0.780514 0.029570
H8    H     H_    0.711898 0.696046 0.657382 0.025013
H9    H     H_    0.697693 0.861869 0.789914 0.116172
H10   H     H_    0.850565 0.854208 0.718128 0.098440
H11   H     H_    0.634252 0.842266 0.665604 0.095337
H12   H     H_    0.600283 0.286110 0.136411 0.088237
H13   H     H_    0.610909 0.868628 0.217775 0.068974
H14   H     H_    0.797290 0.222213 0.657499 0.106083
H15   H     H_    0.019222 0.242690 0.699049 -0.026500
H16   H     H_    0.753839 0.088576 0.713998 0.157493
H17   H     H_    0.953542 0.085704 0.687231 0.075932
H18   H     H_    0.937433 0.118025 0.803662 0.136905
H19   H     H_    0.566428 0.244493 0.825464 0.068106
H20   H     H_    0.002401 0.786391 0.318809 0.049679
H21   H     H_    0.668463 0.699270 0.476824 0.070388
H22   H     H_    0.091324 0.903889 0.567082 0.080588
H23   H     H_    0.197280 0.639231 0.708046 0.040048
H24   H     H_    0.130815 0.302210 0.528099 0.075024
H25   H     H_    0.186411 0.040764 0.583741 0.063917
H26   H     H_    0.664340 0.597335 0.049622 0.059713
H27   H     H_    0.093983 0.446276 0.964006 0.071936
H28   H     H_    0.216811 0.431841 0.094497 0.059076
H29   H     H_    0.797570 0.776855 0.251894 -0.127303
H30   H     H_    0.572589 0.571403 0.912662 0.054601
H31   H     H_    0.621602 0.540853 0.313914 0.062484
H32   H     H_    0.171228 0.469000 0.693137 0.068397
H33   H     H_    0.931780 0.927018 0.249432 0.031933
H34   H     H_    0.987489 0.611155 0.729564 0.037765
H35   H     H_    0.123711 0.890563 0.233974 0.137752
H36   H     H_    0.642331 0.383297 0.288901 -0.063362
H37   H     H_    0.859783 0.406093 0.289901 0.099055
H38   H     H_    0.250312 0.636240 0.191373 0.244146
H39   H     H_    0.123429 0.639202 0.042702 0.124334
H40   H     H_    0.304336 0.711300 0.025044 0.082312
H41   H     H_    0.159698 0.757489 0.087124 0.169375
H42   H     H_    0.975566 0.347353 0.135942 0.035847
H43   H     H_    0.217106 0.172018 0.355090 -0.023570
H44   H     H_    0.809864 0.849881 0.093128 0.197792
H45   H     H_    0.283762 0.742055 0.850750 0.133008
H46   H     H_    0.984877 0.918068 0.999762 0.082500
H47   H     H_    0.153979 0.945209 0.096081 0.139371
H48   H     H_    0.972277 0.999858 0.095064 0.153991
H49   H     H_    0.208802 0.165338 0.772947 0.184962
H50   H     H_    0.175882 0.292304 0.864301 0.143292
H51   H     H_    0.366160 0.352368 0.837703 0.134237
H52   H     H_    0.375308 0.281748 0.923486 0.109229
H53   H     H_    0.489650 0.166825 0.978438 0.201769
H54   H     H_    0.188517 0.155148 0.954505 0.127994
H55   H     H_    0.238504 0.052140 0.989317 0.121114
H56   H     H_    0.175093 0.639084 0.876121 0.067052
H57   H     H_    0.162378 0.057296 0.871171 0.114961
H58   H     H_    0.730696 0.153549 0.889015 0.225546
H59   H     H_    0.678016 0.048529 0.992808 0.143448
H60   H     H_    0.816396 0.014568 0.919460 0.095096
H61   H     H_    0.601700 0.961269 0.895830 0.107135
H62   H     H_    0.337728 0.973881 0.821756 0.202455
H63   H     H_    0.360669 0.912942 0.680350 0.111050
H64   H     H_    0.567859 0.970595 0.728754 0.122353
H65   H     H_    0.433383 0.019087 0.650283 0.134861
H66   H     H_    0.422149 0.968317 0.291613 0.215071
H67   H     H_    0.071851 0.733997 0.869538 0.114056
H68   H     H_    0.374559 0.986125 0.485965 0.097804
H69   H     H_    0.349644 0.069055 0.411639 0.113007
H70   H     H_    0.210092 0.964355 0.386527 0.101651
H71   H     H_    0.524062 0.113101 0.306392 0.203265
H72   H     H_    0.664857 0.124882 0.182461 0.156265
H73   H     H_    0.665537 0.013750 0.209052 0.067162
H74   H     H_    0.849423 0.099004 0.249537 0.142210
H75   H     H_    0.437977 0.270396 0.283160 0.008283
H76   H     H_    0.419417 0.863146 0.138849 0.102696
N1    N     N_2   0.315535 0.680067 0.157800 -0.425728
N2    N     N_2   0.936360 0.865095 0.116652 -0.412796
N3    N     N_2   0.307646 0.217214 0.785293 -0.464220
N4    N     N_2   0.414803 0.121188 0.925960 -0.445182
N5    N     N_2   0.650111 0.093885 0.864444 -0.427853
N6    N     N_2   0.377074 0.022029 0.783639 -0.420393
N7    N     N_2   0.450554 0.960759 0.359415 -0.414267
N8    N     N_2   0.648999 0.110909 0.318241 -0.408991
O1    O     O_2   0.174040 0.723040 0.553850 -0.438974
O2    O     O_2   0.762926 0.426195 0.811451 -0.475202
O3    O     O_3   0.875907 0.274148 0.795704 -0.612325
O4    O     O_3   0.901550 0.609570 0.550800 -0.500149
O5    O     O_3   0.408230 0.452130 0.390190 -0.466659
O6    O     O_2   0.675480 0.547140 0.721810 -0.484796
O7    O     O_3   0.539028 0.697362 0.742585 -0.649231
O8    O     O_2   0.483210 0.183317 0.532204 -0.493943
O9    O     O_3   0.506311 0.171958 0.698996 -0.617677
O10   O     O_3   0.370320 0.665070 0.388210 -0.473169
O11   O     O_2   0.283981 0.816072 0.446342 -0.483661
O12   O     O_3   0.210541 0.312852 0.278539 -0.629572
O13   O     O_3   0.054667 0.738023 0.698751 -0.650599
O14   O     O_3   0.337335 0.795213 0.279099 -0.592376
O15   O     O_2   0.134800 0.452800 0.278160 -0.452451
O16   O     O_3   0.937630 0.618610 0.340820 -0.485554
O17   O     O_2   0.975760 0.542323 0.179179 -0.511965
O18   O     O_2   0.835678 0.229606 0.080604 -0.635540
O19   O     O_2   0.204249 0.093176 0.237432 -0.663007
O20   O     O_3   0.961379 0.712203 0.189423 -0.584172
O21   O     O_2   0.636250 0.276900 0.446120 -0.451211
O22   O     O_3   0.908740 0.390420 0.449120 -0.493596
O23   O     O_3   0.439970 0.334920 0.611710 -0.446837
O24   O     O_3   0.760302 0.274861 0.299671 -0.616910
O25   O     O_3   0.402050 0.547860 0.609740 -0.456360
O26   O     O_3   0.872650 0.381380 0.659100 -0.495509
P1    P     P_3+3 0.004160 0.709210 0.580280 0.974533
P2    P     P_3+3 0.305010 0.425580 0.290930 0.977918
P3    P     P_3+3 0.881436 0.611231 0.222746 0.929702
P4    P     P_3+3 0.806120 0.290780 0.419650 1.021195
P5    P     P_3+3 0.906781 0.386308 0.776845 0.956028
P6    P     P_3+3 0.408557 0.779585 0.391763 0.977576
P7    P     P_3+3 0.502726 0.579812 0.722888 0.943819
P8    P     P_3+3 0.395572 0.217626 0.608575 0.961777

loop_
_geom_bond_atom_site_label_1
_geom_bond_atom_site_label_2
_ccdc_geom_bond_type
O7    P7    S    
O2    P5    D    
Ba2   O5    S    
C47   N7    S    
O15   P2    D    
C1    H76   S    
Ba2   O6    S    
C52   P6    S    
C16   N2    S    
C51   N5    S    
C38   H39   S    
C28   H36   S    
C32   H12   S    
C41   H47   S    
C42   H50   S    
C5    C6    A    
C42   H51   S    
C2    P1    S    
C12   H5    S    
C51   N6    S    
O6    P7    D    
C43   N4    S    
C29   H28   S    
C49   H17   S    
C44   H61   S    
C41   N2    S    
C33   C35   S    
C22   C24   A    
C36   C40   S    
H53   N4    S    
O8    P8    D    
C8    C13   A    
C36   C37   S    
C43   H55   S    
C39   H42   S    
O12   P2    S    
C27   C31   A    
O21   P4    D    
Ba1   Ba2   S    
C33   H34   S    
O1    P1    D    
C31   H31   S    
C45   H15   S    
Ba1   O4    S    
C26   P3    S    
C44   N5    S    
O23   P8    S    
C29   C30   A    
O17   P3    D    
Ba2   O21   S    
C18   H32   S    
C6    H25   S    
O10   P6    S    
C21   C22   A    
C48   H72   S    
C49   H16   S    
C34   H9    S    
O25   P7    S    
C7    C8    A    
Ba1   O1    S    
C43   H54   S    
C13   N8    S    
C1    H6    S    
C32   H1    S    
C19   C20   A    
C50   N3    S    
O26   P5    S    
C32   C39   S    
C33   O13   S    
C35   H67   S    
Ba2   O23   S    
C4    O20   S    
O20   P3    S    
C4    H20   S    
C46   H65   S    
C12   N1    S    
C4    C16   S    
C44   H60   S    
O11   P6    D    
C36   H75   S    
H38   N1    S    
C41   H46   S    
C50   H19   S    
C40   H43   S    
Ba2   O26   S    
C3    C5    A    
C28   C32   S    
C34   H11   S    
C6    C7    A    
C45   C49   S    
O13   P1    S    
C37   H4    S    
C33   H23   S    
C11   N7    S    
C27   P2    S    
C2    C14   A    
C20   H27   S    
O5    P2    S    
Ba1   O5    S    
O14   P6    S    
C9    C14   A    
C37   H2    S    
Ba1   P1    S    
C8    C17   A    
O3    P5    S    
C23   H7    S    
C10   C11   A    
Ba1   O15   S    
C7    C9    A    
C35   H56   S    
C1    C12   S    
C3    C17   A    
C2    C15   A    
C38   N1    S    
C24   P7    S    
C25   H26   S    
C50   O9    S    
C11   C13   A    
Ba2   O4    S    
O24   P4    S    
O16   P3    S    
C40   O19   D    
C48   H74   S    
C49   H18   S    
C28   O24   S    
C38   H41   S    
C12   O14   S    
Ba2   P4    S    
C45   H14   S    
C35   H45   S    
C50   C51   S    
C42   N3    S    
O9    P8    S    
C4    H29   S    
C44   H59   S    
C25   C30   A    
C14   H22   S    
C16   H35   S    
C46   N6    S    
Ba1   O22   S    
C1    H13   S    
C51   N4    S    
C38   H40   S    
C28   H37   S    
C48   H73   S    
Ba2   O25   S    
C26   C31   A    
C46   H64   S    
C9    C10   A    
C48   N8    S    
C46   H63   S    
H62   N6    S    
C42   H52   S    
H71   N8    S    
C45   O3    S    
C16   H33   S    
C21   C30   S    
C39   O18   D    
C22   H30   S    
C41   H48   S    
C27   C29   A    
C34   H10   S    
C43   H57   S    
O4    P1    S    
C47   H70   S    
C18   C24   A    
Ba1   P2    S    
C19   P5    S    
C47   H68   S    
C23   H8    S    
O22   P4    S    
H49   N3    S    
Ba1   O16   S    
C23   C34   S    
C18   C19   A    
Ba1   O25   S    
C47   H69   S    
Ba2   O22   S    
C17   P4    S    
H44   N2    S    
C25   C26   A    
C15   H21   S    
C20   C21   A    
Ba1   O10   S    
C23   O7    S    
H66   N7    S    
H58   N5    S    
C3    H24   S    
C5    P8    S    
C15   C52   A    
C36   O12   S    
C10   C52   A    
C37   H3    S    
