data_mof_unit_13249.cif
_audit_creation_date              2012-12-10T17:50:39-0500
_audit_creation_method            fapswitch 2.2
_symmetry_space_group_name_H-M    P1
_symmetry_Int_Tables_number       1
_space_group_crystal_system       triclinic
_cell_length_a                    15.721598
_cell_length_b                    10.56725
_cell_length_c                    9.888977
_cell_angle_alpha                 88.855431
_cell_angle_beta                  89.88142
_cell_angle_gamma                 91.870448
_cell_volume                      1641.6867909

loop_
_atom_site_label
_atom_site_type_symbol
_atom_type_description
_atom_site_fract_x
_atom_site_fract_y
_atom_site_fract_z
_atom_type_partial_charge
C1    C     C_R   0.515548 0.262887 0.500674 0.880426
C2    C     C_R   0.631019 0.056157 0.842832 -0.150963
C3    C     C_R   0.637027 0.925843 0.833454 -0.177622
C4    C     C_R   0.337961 0.499702 0.500116 0.912220
C5    C     C_R   0.610406 0.865448 0.716320 -0.142013
C6    C     C_R   0.573264 0.933609 0.608466 0.083171
C7    C     C_R   0.570950 0.066487 0.615433 0.083101
C8    C     C_R   0.546904 0.134134 0.497971 -0.220713
C9    C     C_R   0.555993 0.076060 0.371826 -0.039180
C10   C     C_R   0.545500 0.944701 0.364838 0.034129
C11   C     C_R   0.542436 0.873849 0.489885 -0.200857
C12   C     C_3   0.082739 0.497338 0.499779 0.161756
C13   C     C_R   0.384335 0.339126 0.143646 -0.142138
C14   C     C_R   0.328261 0.258943 0.074898 -0.190450
C15   C     C_R   0.328893 0.258342 0.934995 -0.184429
C16   C     C_R   0.511920 0.740693 0.497446 0.877123
C17   C     C_R   0.385505 0.338093 0.863028 -0.148121
C18   C     C_R   0.442319 0.422026 0.929268 0.161295
C19   C     C_R   0.441994 0.422447 0.074067 0.183265
C20   C     C_R   0.559486 0.566553 0.069911 -0.125772
C21   C     C_R   0.559011 0.567350 0.926920 -0.121171
C22   C     C_R   0.662087 0.500356 0.499871 0.872787
C23   C     C_3   0.972685 0.558301 0.608325 -0.145200
C24   C     C_3   0.968940 0.376459 0.502976 -0.205237
C25   C     C_3   0.026518 0.437017 0.391773 0.052728
C26   C     C_1   0.249015 0.498821 0.500404 -0.187761
C27   C     C_1   0.751013 0.499127 0.499482 -0.182416
C28   C     C_3   0.026371 0.437985 0.612517 -0.175629
C29   C     C_1   0.057863 0.370859 0.273459 0.136587
C30   C     C_3   0.532739 0.888731 0.224206 -0.362725
C31   C     C_3   0.438520 0.890851 0.183153 -0.318010
C32   C     C_3   0.425288 0.852757 0.036493 -0.846388
C33   C     C_1   0.577874 0.150667 0.250499 0.208337
C34   C     C_3   0.917182 0.497085 0.498708 0.191012
C35   C     C_3   0.030606 0.617550 0.495446 -0.178317
C36   C     C_3   0.973229 0.556546 0.385593 -0.201573
C37   C     C_1   0.173691 0.498045 0.500361 -0.068651
C38   C     C_1   0.826313 0.497987 0.499037 -0.071291
C39   C     C_R   0.599946 0.126753 0.734243 -0.146614
H1    H     H_    0.665095 0.871977 0.915231 0.127882
H2    H     H_    0.949597 0.604166 0.292553 0.137861
H3    H     H_    0.057766 0.715875 0.492765 0.139951
H4    H     H_    0.948295 0.608229 0.697449 0.134445
H5    H     H_    0.050098 0.389996 0.705258 0.146608
H6    H     H_    0.605439 0.228322 0.742054 0.174756
H7    H     H_    0.654833 0.103433 0.931671 0.156673
H8    H     H_    0.463086 0.916791 0.967236 0.274241
H9    H     H_    0.444053 0.753792 0.022392 0.269923
H10   H     H_    0.356985 0.859563 0.009946 0.244188
H11   H     H_    0.399779 0.825938 0.250135 0.237565
H12   H     H_    0.624733 0.767006 0.707146 0.148081
H13   H     H_    0.414866 0.988129 0.194608 0.216646
H14   H     H_    0.570990 0.942530 0.146750 0.181550
H15   H     H_    0.559953 0.794861 0.215139 0.210738
H16   H     H_    0.609098 0.619013 0.122017 0.132099
H17   H     H_    0.381958 0.330202 0.250872 0.201912
H18   H     H_    0.284956 0.195446 0.130750 0.153221
H19   H     H_    0.286081 0.194411 0.881776 0.149427
H20   H     H_    0.384332 0.328860 0.756103 0.205423
H21   H     H_    0.607973 0.620940 0.872587 0.135686
H22   H     H_    0.941818 0.278093 0.505143 0.139806
N1    N     N_R   0.499210 0.498800 0.142780 -0.115048
N2    N     N_R   0.499180 0.498720 0.857170 -0.121913
N3    N     N_1   0.082695 0.318744 0.180208 -0.218227
N4    N     N_1   0.595375 0.210368 0.154452 -0.223462
O1    O     O_R   0.500000 0.316780 0.614690 -0.650509
O2    O     O_R   0.499990 0.316750 0.385360 -0.626529
O3    O     O_R   0.376780 0.500000 0.614650 -0.621745
O4    O     O_R   0.376770 0.499980 0.385310 -0.627816
O5    O     O_R   0.500010 0.683250 0.614640 -0.608959
O6    O     O_R   0.500000 0.683220 0.385310 -0.618783
O7    O     O_R   0.623230 0.500020 0.614690 -0.635566
O8    O     O_R   0.623220 0.500000 0.385350 -0.613746
Zn1   Zn    Zn3+2 0.500010 0.500020 0.653130 0.922950
Zn2   Zn    Zn3+2 0.499990 0.499980 0.346870 0.935978

loop_
_geom_bond_atom_site_label_1
_geom_bond_atom_site_label_2
_ccdc_geom_bond_type
C24   H22   S    
C1    C8    S    
C32   H9    S    
C35   C36   S    
C31   H13   S    
C33   N4    T    
C7    C8    A    
C2    H7    S    
C30   H15   S    
C12   C28   S    
C30   C31   S    
C18   N2    A    
C27   C38   T    
O3    Zn1   S    
O1    Zn1   S    
C23   H4    S    
C18   C19   A    
C12   C37   S    
C35   H3    S    
C1    O2    A    
C2    C39   A    
C8    C9    A    
O5    Zn1   S    
C9    C10   A    
C39   H6    S    
C13   H17   S    
C29   N3    T    
C13   C14   A    
C9    C33   S    
O8    Zn2   S    
C36   H2    S    
C16   O6    A    
C20   H16   S    
C22   O7    A    
C4    O4    A    
C17   C18   A    
C25   C29   S    
C30   H14   S    
C13   C19   A    
C16   O5    A    
C24   C25   S    
C21   H21   S    
O7    Zn1   S    
C6    C11   A    
C4    O3    A    
C28   H5    S    
C24   C34   S    
C11   C16   S    
C10   C30   S    
C31   C32   S    
C23   C34   S    
C1    O1    A    
C23   C28   S    
C12   C35   S    
C17   H20   S    
C3    H1    S    
C23   C35   S    
C22   C27   S    
C15   H19   S    
N1    Zn2   S    
O2    Zn2   S    
C31   H11   S    
C15   C17   A    
C14   H18   S    
C34   C38   S    
C24   C28   S    
C3    C5    A    
C4    C26   S    
C26   C37   T    
C6    C7    A    
N2    Zn1   S    
C12   C25   S    
C2    C3    A    
O6    Zn2   S    
C5    C6    A    
C32   H8    S    
O4    Zn2   S    
C34   C36   S    
C20   N1    A    
C32   H10   S    
C21   N2    A    
C10   C11   A    
C25   C36   S    
C20   C21   A    
C7    C39   A    
C14   C15   A    
C5    H12   S    
C19   N1    A    
C22   O8    A    
