data_mof_unit_38196.cif
_audit_creation_date              2012-12-10T17:43:22-0500
_audit_creation_method            fapswitch 2.2
_symmetry_space_group_name_H-M    P1
_symmetry_Int_Tables_number       1
_space_group_crystal_system       triclinic
_cell_length_a                    15.047986
_cell_length_b                    13.711501
_cell_length_c                    10.674419
_cell_angle_alpha                 90.189685
_cell_angle_beta                  90.028436
_cell_angle_gamma                 90.284555
_cell_volume                      2202.41842229

loop_
_atom_site_label
_atom_site_type_symbol
_atom_type_description
_atom_site_fract_x
_atom_site_fract_y
_atom_site_fract_z
_atom_type_partial_charge
C1    C     C_R   0.329114 0.499747 0.500754 0.882274
C2    C     C_R   0.670875 0.500271 0.499109 0.881946
C3    C     C_R   0.953005 0.503463 0.497207 -0.082829
C4    C     C_R   0.047007 0.501528 0.500620 -0.084654
C5    C     C_R   0.906877 0.474362 0.386794 -0.015500
C6    C     C_R   0.093142 0.530210 0.611274 -0.006031
C7    C     C_R   0.951535 0.556421 0.715016 -0.304665
C8    C     C_R   0.048397 0.447316 0.283140 -0.285794
C9    C     C_R   0.044083 0.557868 0.718703 0.537895
C10   C     C_R   0.956041 0.450155 0.278124 0.526481
C11   C     C_R   0.447439 0.793295 0.582965 0.061409
C12   C     C_R   0.552539 0.206700 0.417013 0.066747
C13   C     C_R   0.552593 0.793454 0.417089 0.028842
C14   C     C_R   0.447405 0.206545 0.582912 0.031529
C15   C     C_R   0.553757 0.896490 0.415011 -0.009722
C16   C     C_R   0.446224 0.103505 0.584976 -0.008867
C17   C     C_R   0.446250 0.896331 0.585018 -0.010417
C18   C     C_R   0.553717 0.103663 0.414955 -0.012290
C19   C     C_R   0.499995 0.948192 0.500003 0.088650
C20   C     C_R   0.499980 0.051803 0.499979 0.087660
C21   C     C_R   0.607172 0.948859 0.330331 -0.190151
C22   C     C_R   0.392794 0.051134 0.669641 -0.186856
C23   C     C_R   0.392808 0.948547 0.669664 -0.179670
C24   C     C_R   0.607146 0.051445 0.330294 -0.172188
C25   C     C_R   0.500086 0.499732 0.259759 0.942985
C26   C     C_R   0.500184 0.500274 0.740244 0.943993
C27   C     C_3   0.426536 0.542826 0.041874 0.252633
C28   C     C_3   0.574109 0.457218 0.958113 0.249939
C29   C     C_3   0.497796 0.592349 0.960719 0.259824
C30   C     C_3   0.502863 0.407694 0.039294 0.259990
C31   C     C_3   0.429081 0.451618 0.957911 0.214967
C32   C     C_3   0.571571 0.548419 0.042129 0.215943
C33   C     C_3   0.500320 0.501036 0.875688 -0.217413
C34   C     C_3   0.500296 0.498999 0.124322 -0.216159
C35   C     C_R   0.813158 0.471141 0.387123 0.300171
C36   C     C_R   0.186907 0.530210 0.612176 0.304676
C37   C     C_R   0.767081 0.501392 0.495630 -0.208338
C38   C     C_R   0.232884 0.498934 0.504085 -0.211568
C39   C     C_R   0.811935 0.536044 0.601577 0.352775
C40   C     C_R   0.187912 0.465301 0.397721 0.353202
C41   C     C_R   0.905335 0.533346 0.604808 -0.028735
C42   C     C_R   0.094605 0.470175 0.393538 -0.038146
Cu1   Cu    Cu3+1 0.500000 0.597420 0.500000 1.009588
Cu2   Cu    Cu3+1 0.500000 0.402580 0.500000 1.014872
H1    H     H_    0.916630 0.571716 0.801289 0.155340
H2    H     H_    0.083016 0.428171 0.197824 0.186061
H3    H     H_    0.406349 0.752415 0.647620 0.152867
H4    H     H_    0.593619 0.247577 0.352345 0.156747
H5    H     H_    0.593712 0.752702 0.352467 0.148866
H6    H     H_    0.406295 0.247297 0.647544 0.151094
H7    H     H_    0.648981 0.910498 0.264097 0.150478
H8    H     H_    0.350983 0.089495 0.735871 0.152299
H9    H     H_    0.351004 0.910064 0.735902 0.150564
H10   H     H_    0.648933 0.089925 0.264037 0.158930
N1    N     N_R   0.500000 0.743810 0.500000 -0.195699
N2    N     N_R   0.500000 0.256190 0.500000 -0.197312
O1    O     O_R   0.370260 0.582280 0.500030 -0.593796
O2    O     O_R   0.629740 0.417720 0.499970 -0.589409
O3    O     O_R   0.629740 0.582280 0.499970 -0.573945
O4    O     O_R   0.370260 0.417720 0.500030 -0.570501
O5    O     O_R   0.499980 0.582260 0.316850 -0.573731
O6    O     O_R   0.500020 0.417740 0.683150 -0.573020
O7    O     O_R   0.500020 0.582260 0.683150 -0.563423
O8    O     O_R   0.499980 0.417740 0.316850 -0.563682
O9    O     O_3   0.354955 0.401354 0.911531 -0.705754
H11   H     H_    0.321499 0.379920 0.986592 0.366090
O10   O     O_3   0.645720 0.598621 0.088587 -0.723452
H12   H     H_    0.679987 0.618688 0.013625 0.354367
O11   O     O_3   0.349699 0.587172 0.087948 -0.670200
H13   H     H_    0.315176 0.605912 0.012746 0.360445
O12   O     O_3   0.650944 0.412899 0.911999 -0.670048
H14   H     H_    0.686006 0.395266 0.987152 0.363080
O13   O     O_3   0.495114 0.688607 0.918162 -0.696237
H15   H     H_    0.493957 0.729506 0.994869 0.346220
O14   O     O_3   0.505552 0.311436 0.081848 -0.693228
H16   H     H_    0.506704 0.270537 0.005141 0.347816
O15   O     O_3   0.768889 0.438373 0.280931 -0.663976
H17   H     H_    0.704998 0.454350 0.284643 0.321414
O16   O     O_3   0.231433 0.560802 0.719203 -0.667941
H18   H     H_    0.294724 0.542085 0.716349 0.324540
O17   O     O_3   0.762077 0.569214 0.701695 -0.701562
H19   H     H_    0.791593 0.628104 0.736373 0.315097
O18   O     O_3   0.237620 0.431248 0.297986 -0.695142
H20   H     H_    0.207767 0.372320 0.264012 0.324715
O19   O     O_3   0.085819 0.577022 0.831847 -0.527832
C43   C     C_3   0.080137 0.677703 0.858162 -0.260389
H21   H     H_    0.010748 0.699303 0.880177 0.124356
H22   H     H_    0.106850 0.722457 0.779674 0.168359
H23   H     H_    0.121197 0.693804 0.942129 0.198662
O20   O     O_3   0.914661 0.423721 0.167263 -0.520316
C44   C     C_3   0.913303 0.505421 0.087325 -0.218819
H24   H     H_    0.981588 0.526315 0.057462 0.165872
H25   H     H_    0.879454 0.568652 0.132045 0.159856
H26   H     H_    0.875024 0.485890 0.001954 0.206281

loop_
_geom_bond_atom_site_label_1
_geom_bond_atom_site_label_2
_ccdc_geom_bond_type
C14   N2    A    
C27   C29   S    
O13   H15   S    
C11   H3    S    
C19   C20   A    
O14   H16   S    
C6    C9    A    
O17   H19   S    
Cu1   O7    S    
C39   C41   A    
O19   C43   S    
Cu2   O8    S    
C15   C19   A    
C17   C23   A    
C18   C24   A    
C7    H1    S    
C35   C37   A    
C8    C42   A    
C29   C32   S    
C30   C31   S    
C43   H22   S    
C29   O13   S    
C24   H10   S    
C29   C33   S    
C31   O9    S    
C9    O19   S    
C11   C17   A    
Cu2   O2    S    
C31   C33   S    
C27   O11   S    
Cu1   O3    S    
C25   C34   S    
C40   C42   A    
C40   O18   S    
C23   H9    S    
C27   C34   S    
C30   C34   S    
C27   C31   S    
O10   H12   S    
C28   C32   S    
C39   O17   S    
C4    C6    A    
C1    O4    A    
C44   H24   S    
C43   H21   S    
Cu2   O6    S    
O15   H17   S    
C35   O15   S    
C43   H23   S    
C25   O8    A    
C32   C34   S    
C26   O7    A    
C1    O1    A    
C44   H25   S    
Cu2   N2    S    
C26   C33   S    
O18   H20   S    
C16   C20   A    
C25   O5    A    
C12   N2    A    
C1    C38   S    
C32   O10   S    
C13   H5    S    
Cu1   N1    S    
C28   C33   S    
C13   C15   A    
Cu1   Cu2   S    
C14   C16   A    
C28   O12   S    
C3    C4    A    
C21   H7    S    
C11   N1    A    
Cu1   O5    S    
C22   H8    S    
C7    C9    A    
C3    C41   A    
C16   C22   A    
C2    O3    A    
C3    C5    A    
C36   O16   S    
C2    O2    A    
C28   C30   S    
C26   O6    A    
C5    C10   A    
C37   C39   A    
C44   H26   S    
C38   C40   A    
C30   O14   S    
C2    C37   S    
O20   C44   S    
C14   H6    S    
C4    C42   A    
Cu2   O4    S    
C5    C35   A    
C36   C38   A    
C17   C19   A    
C12   H4    S    
C6    C36   A    
C18   C20   A    
C7    C41   A    
O11   H13   S    
C8    H2    S    
Cu1   O1    S    
O16   H18   S    
C15   C21   A    
O12   H14   S    
C10   O20   S    
C8    C10   A    
O9    H11   S    
C21   C24   A    
C12   C18   A    
C22   C23   A    
C13   N1    A    
