data_mof_unit_39237.cif
_audit_creation_date              2013-03-05T16:00:50-0500
_audit_creation_method            fapswitch 2.2
_symmetry_space_group_name_H-M    P1
_symmetry_Int_Tables_number       1
_space_group_crystal_system       triclinic
_cell_length_a                    8.230587
_cell_length_b                    13.105663
_cell_length_c                    18.878522
_cell_angle_alpha                 101.159168
_cell_angle_beta                  91.560399
_cell_angle_gamma                 97.782704
_cell_volume                      1976.47774898

loop_
_atom_site_label
_atom_site_type_symbol
_atom_site_description
_atom_site_fract_x
_atom_site_fract_y
_atom_site_fract_z
_atom_type_partial_charge
P1    P     P_3+3 0.041040 0.394770 0.336330 0.506766
O1    O     O_2   0.873090 0.425890 0.325140 -0.402675
O2    O     O_3   0.122420 0.434370 0.414380 -0.352211
O3    O     O_3   0.659500 0.627100 0.368810 -0.377657
O4    O     O_2   0.768577 0.542139 0.245984 -0.411285
O5    O     O_3   0.024119 0.255912 0.317895 -0.538327
O6    O     O_3   0.701873 0.730648 0.253246 -0.503159
H1    H     H_    0.717714 0.821135 0.356446 0.101961
C1    C     C_3   0.672035 0.911930 0.276913 -0.150926
H2    H     H_    0.637089 0.976268 0.318558 0.070381
H3    H     H_    0.804376 0.930780 0.268292 0.144227
P2    P     P_3+3 0.672880 0.754030 0.556100 0.477565
P3    P     P_3+3 0.115395 0.814804 0.399797 0.515107
O7    O     O_2   0.848200 0.768190 0.534530 -0.360088
O8    O     O_3   0.081160 0.685950 0.404810 -0.392254
O9    O     O_2   0.983878 0.867058 0.444595 -0.338398
O10   O     O_3   0.693017 0.793410 0.650569 -0.531884
O11   O     O_3   0.056142 0.820258 0.310854 -0.506389
C2    C     C_3   0.124927 0.744977 0.262241 0.445400
H4    H     H_    0.063258 0.664897 0.264026 0.124990
H5    H     H_    0.258256 0.750151 0.274375 0.023869
C3    C     C_3   0.100033 0.765265 0.186294 -0.818298
H6    H     H_    0.967617 0.748344 0.168791 0.270579
H7    H     H_    0.145929 0.848580 0.185155 0.292888
C4    C     C_3   0.233737 0.787945 0.637284 0.162358
H8    H     H_    0.346521 0.761932 0.613410 0.065557
H9    H     H_    0.131131 0.771060 0.595389 0.152453
C5    C     C_3   0.267045 0.904071 0.670606 0.210196
H10   H     H_    0.387701 0.921311 0.701392 0.139109
Ba1   Ba    Ba6+2 0.852780 0.548340 0.465070 1.597799
C6    C     C_3   0.877737 0.204305 0.278950 0.301489
H11   H     H_    0.805140 0.254277 0.254964 0.070864
H12   H     H_    0.798497 0.168954 0.316925 0.084744
C7    C     C_3   0.914001 0.113842 0.220068 -0.308216
H13   H     H_    0.796443 0.065309 0.197859 0.188115
H14   H     H_    0.992601 0.064638 0.243010 0.203588
C8    C     C_3   0.718432 0.708212 0.682435 0.437863
H15   H     H_    0.843486 0.688990 0.672148 0.079224
H16   H     H_    0.626343 0.637815 0.662157 0.119825
C9    C     C_3   0.701245 0.738834 0.763570 -0.925442
H17   H     H_    0.794678 0.806693 0.787613 0.287571
H18   H     H_    0.717940 0.672111 0.789925 0.209084
H19   H     H_    0.577119 0.760551 0.774285 0.257574
P4    P     P_3+3 0.148670 0.605320 0.663680 0.470645
O12   O     O_2   0.316610 0.574140 0.674900 -0.365291
O13   O     O_3   0.067290 0.565720 0.585630 -0.397685
O14   O     O_3   0.530210 0.372990 0.631200 -0.297411
O15   O     O_3   0.190952 0.739012 0.693579 -0.585765
P5    P     P_3+3 0.066344 0.177305 0.593422 0.619158
O16   O     O_3   0.611340 0.366290 0.463630 -0.386181
O17   O     O_3   0.108550 0.314140 0.595200 -0.351288
O18   O     O_2   0.205659 0.134592 0.549536 -0.241869
O19   O     O_3   0.117314 0.163117 0.681165 -0.446761
Ba2   Ba    Ba6+2 0.337060 0.451750 0.534940 1.654591
P6    P     P_3+3 0.637841 0.609421 0.276129 0.445658
C10   C     C_3   0.645982 0.809492 0.304131 0.366733
H20   H     H_    0.514149 0.790256 0.313299 -0.027288
O20   O     O_3   0.578370 0.633800 0.536380 -0.422519
C11   C     C_3   0.460918 0.290389 0.317212 0.377475
H21   H     H_    0.347403 0.312974 0.342062 0.130289
H22   H     H_    0.560180 0.358638 0.328208 0.110339
C12   C     C_3   0.427210 0.256073 0.235828 -0.872510
H23   H     H_    0.334540 0.184452 0.224249 0.315343
H24   H     H_    0.381030 0.318535 0.212528 0.212945
H25   H     H_    0.540682 0.237410 0.209034 0.237790
P7    P     P_3+3 0.521352 0.231841 0.437888 0.519202
O21   O     O_2   0.341510 0.231850 0.465510 -0.309406
O22   O     O_3   0.508975 0.205460 0.343193 -0.563553
H26   H     H_    0.168854 0.714590 0.147872 0.213636
C13   C     C_3   0.012367 0.213617 0.729713 0.415950
H27   H     H_    0.948468 0.272333 0.708798 0.052621
H28   H     H_    0.920350 0.152408 0.743620 0.129175
C14   C     C_3   0.107731 0.269481 0.799669 -0.872432
H29   H     H_    0.188662 0.339972 0.790592 0.286224
H30   H     H_    0.020742 0.295040 0.841155 0.201761
H31   H     H_    0.182013 0.215812 0.820325 0.280576
P8    P     P_3+3 0.553663 0.396093 0.725643 0.500823
C15   C     C_3   0.589284 0.223593 0.772537 0.925068
H32   H     H_    0.707345 0.272560 0.792820 -0.160063
O23   O     O_2   0.433750 0.473030 0.753626 -0.411998
O24   O     O_3   0.467615 0.282027 0.754902 -0.526875
H33   H     H_    0.626814 0.126694 0.851662 0.250020
C16   C     C_3   0.529513 0.168278 0.833323 -0.948751
H34   H     H_    0.417856 0.110646 0.814386 0.271502
H35   H     H_    0.499598 0.226948 0.880160 0.225545
C17   C     C_R   0.988439 0.466511 0.049114 0.035147
C18   C     C_R   0.890671 0.415610 0.095849 -0.162555
C19   C     C_R   0.759749 0.448172 0.956807 -0.200779
C20   C     C_R   0.927438 0.475956 0.979285 0.062890
C21   C     C_R   0.704003 0.449074 0.886881 -0.181527
C22   C     C_R   0.813042 0.475354 0.835259 -0.006229
C23   C     C_R   0.977532 0.516925 0.858110 0.012159
C24   C     C_R   0.035310 0.517419 0.930773 0.045680
C25   C     C_R   0.762510 0.459513 0.761306 0.122441
C26   C     C_R   0.871763 0.491980 0.711764 -0.500295
C27   C     C_R   0.028884 0.545860 0.733823 0.278794
C28   C     C_R   0.083160 0.558353 0.808610 -0.047945
C29   C     C_R   0.153763 0.505758 0.072447 0.040680
C30   C     C_R   0.212417 0.500992 0.144349 0.003670
C31   C     C_R   0.107331 0.454984 0.192547 -0.040658
C32   C     C_R   0.949420 0.409576 0.164677 -0.005053
H36   H     H_    0.830182 0.480244 0.655513 0.175165
H37   H     H_    0.574085 0.425881 0.873467 0.163937
H38   H     H_    0.865083 0.370835 0.196009 0.142880
C33   C     C_R   0.238102 0.611219 0.836355 -0.037304
C34   C     C_R   0.296601 0.609642 0.906504 -0.190760
C35   C     C_R   0.200034 0.558780 0.954179 0.042855
C36   C     C_R   0.260383 0.551148 0.024852 0.036422
C37   C     C_R   0.425889 0.584769 0.049129 -0.171127
C38   C     C_R   0.376157 0.543058 0.167875 -0.045861
C39   C     C_R   0.481891 0.580765 0.118554 -0.091939
C40   C     C_R   0.429654 0.547646 0.240266 0.183247
C41   C     C_R   0.322583 0.508390 0.288532 -0.533142
C42   C     C_R   0.163709 0.457261 0.266359 0.221648
H39   H     H_    0.318380 0.652655 0.803786 0.170606
H40   H     H_    0.610651 0.607813 0.132573 0.187819
H41   H     H_    0.366497 0.513881 0.343874 0.173382
H42   H     H_    0.667090 0.426102 0.992426 0.132934
H43   H     H_    0.767139 0.377192 0.080348 0.128066
H44   H     H_    0.418610 0.650642 0.922096 0.139167
H45   H     H_    0.517059 0.613828 0.015247 0.144229
C43   C     C_R   0.780061 0.161189 0.503315 -0.121572
C44   C     C_R   0.417855 0.809566 0.472787 -0.512638
C45   C     C_R   0.397396 0.972489 0.431237 0.132534
C46   C     C_R   0.328998 0.870691 0.436889 0.218708
C47   C     C_R   0.571773 0.848497 0.508766 0.246199
C48   C     C_R   0.638760 0.956762 0.509532 -0.031259
C49   C     C_R   0.550787 0.019978 0.470044 -0.101577
C50   C     C_R   0.621443 0.127560 0.472582 0.217934
C51   C     C_R   0.862426 0.107178 0.545789 0.164939
C52   C     C_R   0.788602 0.004821 0.550124 -0.036036
H46   H     H_    0.848219 0.963219 0.584848 0.199680
H47   H     H_    0.363770 0.730124 0.474314 0.172499
N1    N     N_R   0.267071 0.963202 0.613954 0.231745
O25   O     O_R   0.395624 0.027643 0.605951 -0.316249
O26   O     O_R   0.141894 0.946286 0.568026 -0.411152
I1    I     I_    0.085840 0.950801 0.745654 -0.301778
I2    I     I_    0.029476 0.160100 0.129207 -0.362600
N2    N     N_R   0.575984 0.902973 0.209173 0.269908
O27   O     O_R   0.611987 0.841849 0.150569 -0.359160
O28   O     O_R   0.467307 0.965227 0.205013 -0.371584
N3    N     N_R   0.619111 0.148181 0.708524 0.220948
O29   O     O_R   0.644845 0.053499 0.712533 -0.440293
O30   O     O_R   0.647237 0.181771 0.649108 -0.441396
I3    I     I_    0.259236 0.032718 0.353156 -0.232623
I4    I     I_    0.913819 0.281895 0.468989 -0.113180

loop_
_geom_bond_atom_site_label_1
_geom_bond_atom_site_label_2
_geom_bond_distance
_ccdc_geom_bond_type
P7    O22   1.751327 S    
C47   C48   1.448156 A    
P6    C40   1.843596 S    
N2    O28   1.300202 A    
C14   H29   1.107865 S    
Ba1   O13   2.796562 S    
C26   C27   1.397833 A    
O6    P6    1.743498 S    
C49   C50   1.441755 A    
H1    C10   1.110313 S    
C10   H20   1.106310 S    
C4    C5    1.514636 S    
Ba1   Ba2   4.577804 S    
C12   H23   1.108232 S    
P3    O11   1.753191 S    
C44   H47   1.081546 S    
C5    N1    1.437064 S    
C23   C24   1.438101 A    
C5    H10   1.109953 S    
C2    H5    1.105186 S    
C7    H13   1.106598 S    
C8    C9    1.521987 S    
C15   N3    1.455002 S    
O2    Ba2   2.797202 S    
C44   C46   1.406305 A    
P2    C47   1.921081 S    
C34   C35   1.419096 A    
P8    C25   1.852634 S    
C29   C36   1.428191 A    
C36   C37   1.408936 A    
P1    O1    1.513912 D    
C38   C39   1.405096 A    
C31   C32   1.397249 A    
C12   H24   1.105725 S    
C18   C32   1.394385 A    
C15   C16   1.529898 S    
C9    H19   1.110575 S    
C2    H4    1.109312 S    
P5    O17   1.773443 S    
P2    O10   1.754693 S    
C35   C36   1.437298 A    
C6    H12   1.107312 S    
C13   H27   1.113790 S    
C1    H2    1.110503 S    
C43   C50   1.392545 A    
C26   H36   1.082232 S    
C45   C49   1.441631 A    
P7    C50   1.896691 S    
P2    O20   1.628407 S    
C9    H18   1.108301 S    
P7    O21   1.582714 D    
Ba1   O16   2.886175 S    
C11   H21   1.107076 S    
C14   H30   1.110025 S    
O6    C10   1.403825 S    
O7    Ba1   2.931275 S    
O19   C13   1.409723 S    
C40   C41   1.404984 A    
P4    O13   1.563712 S    
C23   C28   1.427111 A    
C38   C40   1.411878 A    
C3    H6    1.110283 S    
C11   H22   1.109759 S    
P1    O5    1.770839 S    
C2    C3    1.521393 S    
C31   C42   1.450126 A    
P5    C51   1.910589 S    
C45   I3    2.165900 S    
C22   C23   1.411839 A    
C15   H32   1.103819 S    
O11   C2    1.401876 S    
C44   C47   1.403739 A    
N1    O26   1.295190 A    
Ba2   O21   2.931550 S    
C4    H8    1.109090 S    
C30   C38   1.410255 A    
C7    I2    2.132713 S    
P1    O2    1.563713 S    
O2    Ba1   2.920994 S    
C18   H43   1.077504 S    
C8    H15   1.105777 S    
P4    C27   1.896108 S    
C11   O22   1.398533 S    
C1    H3    1.107387 S    
C16   H34   1.110154 S    
P8    O24   1.759433 S    
P5    O18   1.536439 D    
C27   C28   1.440863 A    
O13   Ba2   2.921891 S    
C13   C14   1.519838 S    
C6    C7    1.527793 S    
C1    C10   1.519009 S    
O16   Ba2   2.903387 S    
O16   P7    1.784668 S    
C4    O15   1.373959 S    
C39   H40   1.079575 S    
O14   Ba2   2.812158 S    
C41   H41   1.081973 S    
C9    H17   1.108074 S    
C16   H35   1.110692 S    
P2    O7    1.507047 D    
O12   Ba2   2.835391 S    
H33   C16   1.111024 S    
C32   H38   1.064261 S    
P3    O8    1.695454 S    
O3    P6    1.720982 S    
C14   H31   1.109153 S    
C3    H7    1.110509 S    
P1    C42   1.924182 S    
O10   C8    1.403144 S    
C19   H42   1.077466 S    
C48   C49   1.462383 A    
N3    O30   1.297395 A    
P4    O12   1.514260 D    
O8    Ba1   2.841203 S    
C41   C42   1.399439 A    
Ba2   O20   2.885557 S    
P8    O23   1.536742 D    
C11   C12   1.521624 S    
C3    H26   1.107180 S    
C12   H25   1.107991 S    
P2    Ba1   3.440783 S    
C17   C18   1.411408 A    
C28   C33   1.401623 A    
O4    P6    1.534703 D    
C6    H11   1.094082 S    
C34   H44   1.077189 S    
C5    I1    2.152522 S    
C19   C21   1.388453 A    
C17   C20   1.431492 A    
N2    O27   1.301024 A    
N1    O25   1.292927 A    
C4    H9    1.110387 S    
C33   C34   1.401642 A    
C30   C31   1.433022 A    
C33   H39   1.078748 S    
O1    Ba1   2.835048 S    
O17   Ba2   2.841832 S    
C37   C39   1.390410 A    
C51   C52   1.414169 A    
P3    C46   1.871712 S    
C8    H16   1.109192 S    
P4    O15   1.717844 S    
C24   C35   1.415217 A    
C22   C25   1.413525 A    
C1    N2    1.461470 S    
C15   O24   1.410090 S    
C37   H45   1.077169 S    
C21   C22   1.402727 A    
P5    O19   1.748405 S    
Ba1   O20   2.904288 S    
P1    Ba1   3.393360 S    
O5    C6    1.410009 S    
C7    H14   1.108040 S    
C43   I4    2.024457 S    
C20   C24   1.424285 A    
C25   C26   1.400213 A    
C17   C29   1.414296 A    
C48   C52   1.433972 A    
C21   H37   1.080449 S    
P4    Ba2   3.393956 S    
C19   C20   1.410583 A    
C29   C30   1.443894 A    
P3    O9    1.543500 D    
O14   P8    1.750523 S    
N3    O29   1.302699 A    
C13   H28   1.101743 S    
C43   C51   1.386942 A    
O3    Ba1   2.812796 S    
C52   H46   1.077514 S    
C45   C46   1.401140 A    
