data_mof_unit_11606.cif
_audit_creation_date              2012-12-11T15:27:17-0500
_audit_creation_method            fapswitch 2.2
_symmetry_space_group_name_H-M    P1
_symmetry_Int_Tables_number       1
_space_group_crystal_system       triclinic
_cell_length_a                    13.989607
_cell_length_b                    13.989611
_cell_length_c                    27.429951
_cell_angle_alpha                 90.000052
_cell_angle_beta                  90.0
_cell_angle_gamma                 119.999895
_cell_volume                      4649.08274465

loop_
_atom_site_label
_atom_site_type_symbol
_atom_type_description
_atom_site_fract_x
_atom_site_fract_y
_atom_site_fract_z
_atom_type_partial_charge
C1    C     C_R   0.236012 0.786000 0.569372 0.542349
C2    C     C_1   0.698759 0.857232 0.860518 -0.081490
C3    C     C_1   0.142767 0.841526 0.860518 -0.081489
C4    C     C_1   0.158475 0.301243 0.860518 -0.081490
C5    C     C_1   0.610775 0.804181 0.661018 -0.072112
C6    C     C_1   0.195819 0.806594 0.661018 -0.072109
C7    C     C_1   0.193407 0.389227 0.661019 -0.072115
C8    C     C_1   0.589197 0.789900 0.618294 -0.007402
C9    C     C_1   0.210100 0.799297 0.618294 -0.007400
C10   C     C_1   0.200704 0.410804 0.618294 -0.007402
C11   C     C_R   0.107096 0.220488 0.949233 0.551689
C12   C     C_R   0.214000 0.450012 0.569372 0.542350
C13   C     C_R   0.779512 0.886608 0.949232 0.551688
C14   C     C_R   0.113392 0.892904 0.949232 0.551688
C15   C     C_R   0.613568 0.806746 0.385474 0.025456
C16   C     C_R   0.193254 0.806820 0.385474 0.025456
C17   C     C_R   0.193178 0.386432 0.385474 0.025456
C18   C     C_R   0.607556 0.891014 0.360266 -0.125517
C19   C     C_R   0.108993 0.716537 0.360264 -0.125517
C20   C     C_R   0.283460 0.392448 0.360266 -0.125517
C21   C     C_R   0.635897 0.909596 0.311372 -0.123162
C22   C     C_R   0.090411 0.726296 0.311370 -0.123163
C23   C     C_R   0.549988 0.763988 0.569372 0.542350
C24   C     C_R   0.273700 0.364106 0.311371 -0.123163
C25   C     C_R   0.672812 0.845809 0.287261 0.036354
C26   C     C_R   0.154191 0.827000 0.287261 0.036354
C27   C     C_R   0.172997 0.327186 0.287262 0.036354
C28   C     C_R   0.233393 0.787426 0.431543 0.543393
C29   C     C_R   0.212574 0.445966 0.431543 0.543394
C30   C     C_R   0.554034 0.766607 0.431543 0.543394
C31   C     C_R   0.689624 0.769479 0.313691 -0.120275
C32   C     C_R   0.230513 0.920144 0.313692 -0.120273
C33   C     C_R   0.079854 0.310370 0.313692 -0.120275
C34   C     C_3   0.634019 0.722329 0.792654 -0.207828
C35   C     C_R   0.659522 0.749532 0.362524 -0.126900
C36   C     C_R   0.250461 0.909989 0.362525 -0.126901
C37   C     C_R   0.090009 0.340473 0.362525 -0.126901
C38   C     C_R   0.654923 0.759175 0.206119 -0.120196
C39   C     C_R   0.240826 0.895755 0.206119 -0.120197
C40   C     C_R   0.104248 0.345073 0.206119 -0.120197
C41   C     C_R   0.676433 0.767963 0.156397 -0.132271
C42   C     C_R   0.232038 0.908477 0.156398 -0.132271
C43   C     C_R   0.091527 0.323564 0.156398 -0.132272
C44   C     C_R   0.754203 0.966437 0.161556 -0.126336
C45   C     C_3   0.277674 0.911681 0.792655 -0.207830
C46   C     C_R   0.033566 0.787760 0.161555 -0.126337
C47   C     C_R   0.212234 0.245797 0.161556 -0.126336
C48   C     C_R   0.734599 0.957888 0.211375 -0.121744
C49   C     C_R   0.042114 0.776703 0.211373 -0.121744
C50   C     C_R   0.223289 0.265401 0.211375 -0.121745
C51   C     C_R   0.687783 0.854547 0.234231 0.035818
C52   C     C_R   0.145454 0.833235 0.234230 0.035818
C53   C     C_R   0.166763 0.312215 0.234231 0.035818
C54   C     C_R   0.729496 0.872021 0.134234 0.022772
C55   C     C_R   0.127981 0.857475 0.134234 0.022771
C56   C     C_3   0.088306 0.365976 0.792654 -0.207825
C57   C     C_R   0.142525 0.270504 0.134235 0.022771
C58   C     C_R   0.106360 0.221180 0.086194 0.546516
C59   C     C_R   0.778820 0.885180 0.086194 0.546516
C60   C     C_R   0.114820 0.893640 0.086194 0.546516
C61   C     C_3   0.558138 0.855440 0.739098 -0.244249
C62   C     C_3   0.144550 0.702695 0.739097 -0.244249
C63   C     C_3   0.297302 0.441868 0.739099 -0.244248
C64   C     C_3   0.755333 0.907489 0.723337 -0.028826
C65   C     C_3   0.092517 0.847853 0.723337 -0.028834
C66   C     C_3   0.152162 0.244671 0.723337 -0.028830
C67   C     C_3   0.607415 0.706715 0.737391 -0.190855
C68   C     C_3   0.779167 0.920639 0.779061 -0.174403
C69   C     C_3   0.079368 0.858539 0.779061 -0.174410
C70   C     C_3   0.141481 0.220836 0.779062 -0.174404
C71   C     C_1   0.729895 0.870166 0.902142 -0.024614
C72   C     C_1   0.129833 0.859728 0.902142 -0.024614
C73   C     C_1   0.140272 0.270106 0.902142 -0.024615
C74   C     C_3   0.633177 0.817925 0.713690 0.055423
C75   C     C_3   0.182074 0.815251 0.713690 0.055424
C76   C     C_3   0.184750 0.366825 0.713690 0.055423
C77   C     C_3   0.582072 0.870681 0.794771 -0.228901
C78   C     C_3   0.293286 0.900692 0.737392 -0.190856
C79   C     C_3   0.129307 0.711387 0.794770 -0.228899
C80   C     C_3   0.288609 0.417935 0.794772 -0.228900
C81   C     C_3   0.673157 0.842974 0.808182 0.043334
C82   C     C_3   0.157025 0.830182 0.808182 0.043337
C83   C     C_3   0.169819 0.326845 0.808182 0.043337
C84   C     C_2   0.836088 0.885471 0.695990 0.210732
C85   C     C_2   0.114540 0.950626 0.695989 0.210723
C86   C     C_2   0.049390 0.163914 0.695990 0.210728
C87   C     C_3   0.099298 0.392582 0.737391 -0.190854
Cr1   Cr    Cr6+3 0.164410 0.584450 0.499910 1.022151
Cr2   Cr    Cr6+3 0.415550 0.579960 0.499910 1.022152
Cr3   Cr    Cr6+3 0.420040 0.835590 0.499910 1.022152
Cr4   Cr    Cr6+3 0.156760 0.076070 0.017830 1.019662
Cr5   Cr    Cr6+3 0.923930 0.080690 0.017830 1.019662
Cr6   Cr    Cr6+3 0.919310 0.843240 0.017830 1.019663
H1    H     H_    0.608665 0.957293 0.805246 0.118825
H2    H     H_    0.699306 0.701348 0.800872 0.137055
H3    H     H_    0.298664 0.997951 0.800875 0.137051
H4    H     H_    0.002039 0.300685 0.800871 0.137058
H5    H     H_    0.572730 0.936859 0.377055 0.133127
H6    H     H_    0.063154 0.635865 0.377052 0.133130
H7    H     H_    0.364132 0.427278 0.377054 0.133127
H8    H     H_    0.615148 0.678128 0.222768 0.103742
H9    H     H_    0.321872 0.937032 0.222770 0.103742
H10   H     H_    0.062974 0.384846 0.222770 0.103741
H11   H     H_    0.656625 0.694305 0.135749 0.117212
H12   H     H_    0.042693 0.651375 0.805243 0.118827
H13   H     H_    0.305696 0.962332 0.135751 0.117214
H14   H     H_    0.037676 0.343372 0.135750 0.117212
H15   H     H_    0.622228 0.968979 0.291844 0.099845
H16   H     H_    0.031035 0.653242 0.291841 0.099846
H17   H     H_    0.346753 0.377779 0.291842 0.099845
H18   H     H_    0.760810 0.032638 0.232257 0.101554
H19   H     H_    0.967365 0.728159 0.232255 0.101554
H20   H     H_    0.271829 0.239191 0.232257 0.101553
H21   H     H_    0.796229 0.047833 0.145202 0.129598
H22   H     H_    0.952170 0.748384 0.145200 0.129596
H23   H     H_    0.348631 0.391347 0.805248 0.118824
H24   H     H_    0.251606 0.203773 0.145202 0.129597
H25   H     H_    0.721777 0.722079 0.296102 0.101656
H26   H     H_    0.277908 0.999698 0.296104 0.101656
H27   H     H_    0.000300 0.278214 0.296103 0.101655
H28   H     H_    0.571849 0.934346 0.722991 0.116707
H29   H     H_    0.065643 0.637505 0.722989 0.116708
H30   H     H_    0.362499 0.428157 0.722993 0.116707
H31   H     H_    0.666416 0.685262 0.381423 0.127481
H32   H     H_    0.314725 0.981155 0.381426 0.127480
H33   H     H_    0.018844 0.333576 0.381425 0.127480
H34   H     H_    0.469910 0.792556 0.733102 0.112288
H35   H     H_    0.766376 0.986999 0.709318 0.137885
H36   H     H_    0.013004 0.779388 0.709318 0.137895
H37   H     H_    0.220631 0.233630 0.709317 0.137888
H38   H     H_    0.809239 0.007948 0.789710 0.119153
H39   H     H_    0.992058 0.801310 0.789709 0.119153
H40   H     H_    0.198724 0.190771 0.789710 0.119148
H41   H     H_    0.846069 0.902933 0.788860 0.147680
H42   H     H_    0.097085 0.943151 0.788859 0.147679
H43   H     H_    0.056875 0.153930 0.788860 0.147681
H44   H     H_    0.518691 0.645086 0.732299 0.093968
H45   H     H_    0.207430 0.677345 0.733101 0.112289
H46   H     H_    0.354911 0.873592 0.732299 0.093966
H47   H     H_    0.126390 0.481306 0.732299 0.093967
H48   H     H_    0.654052 0.671540 0.719398 0.177307
H49   H     H_    0.328465 0.982505 0.719400 0.177309
H50   H     H_    0.017488 0.345944 0.719397 0.177305
H51   H     H_    0.559181 0.664319 0.813733 0.106698
H52   H     H_    0.335677 0.894843 0.813734 0.106698
H53   H     H_    0.105128 0.440812 0.813734 0.106695
H54   H     H_    0.878340 0.934729 0.664231 0.113376
H55   H     H_    0.065281 0.943623 0.664231 0.113370
H56   H     H_    0.322645 0.530095 0.733102 0.112288
H57   H     H_    0.056397 0.121666 0.664230 0.113370
H58   H     H_    0.505084 0.815952 0.815303 0.115085
H59   H     H_    0.184029 0.689119 0.815303 0.115085
H60   H     H_    0.310862 0.494922 0.815303 0.115086
O1    O     O_R   0.137310 0.468260 0.552980 -0.506366
O2    O     O_R   0.139940 0.470480 0.446230 -0.521043
O3    O     O_R   0.529520 0.669460 0.446230 -0.521043
O4    O     O_R   0.330540 0.860060 0.446230 -0.521041
O5    O     O_R   0.176560 0.690850 0.450770 -0.505877
O6    O     O_R   0.309150 0.485710 0.450770 -0.505877
O7    O     O_R   0.514290 0.823440 0.450770 -0.505876
O8    O     O_3   0.333333 0.666667 0.499990 -0.271798
O9    O     O_3   0.000000 0.000000 0.017910 -0.218722
O10   O     O_R   0.149710 0.171070 0.967700 -0.497098
O11   O     O_R   0.828930 0.978640 0.967700 -0.497098
O12   O     O_R   0.531740 0.669050 0.552980 -0.506365
O13   O     O_R   0.021360 0.850290 0.967700 -0.497098
O14   O     O_R   0.178510 0.985930 0.071830 -0.520012
O15   O     O_R   0.014070 0.192580 0.071830 -0.520012
O16   O     O_R   0.807420 0.821490 0.071830 -0.520011
O17   O     O_R   0.147830 0.173300 0.066650 -0.501783
O18   O     O_R   0.826700 0.974530 0.066650 -0.501783
O19   O     O_R   0.025470 0.852170 0.066650 -0.501782
O20   O     O_2   0.851286 0.810137 0.707898 -0.581264
O21   O     O_2   0.189879 0.041157 0.707896 -0.581256
O22   O     O_2   0.958856 0.148709 0.707901 -0.581265
O23   O     O_R   0.330950 0.862690 0.552980 -0.506364
O24   O     O_R   0.180530 0.983530 0.965090 -0.512127
O25   O     O_R   0.016470 0.197000 0.965090 -0.512127
O26   O     O_R   0.803000 0.819470 0.965090 -0.512127
O27   O     O_R   0.174120 0.688790 0.549730 -0.499730
O28   O     O_R   0.311210 0.485330 0.549730 -0.499730
O29   O     O_R   0.514670 0.825880 0.549730 -0.499730

loop_
_geom_bond_atom_site_label_1
_geom_bond_atom_site_label_2
_ccdc_geom_bond_type
C25   C31   A    
C15   C18   A    
C44   C48   A    
Cr6   O19   S    
C26   C32   A    
C7    C10   T    
C18   C21   A    
C17   C29   S    
C36   H32   S    
C24   C27   A    
C87   H47   S    
C78   H46   S    
C77   H58   S    
C6    C9    T    
Cr6   O26   S    
C80   H60   S    
C29   O6    A    
Cr3   O29   S    
C27   C33   A    
C30   O7    A    
C46   C49   A    
C34   H51   S    
C28   O5    A    
C46   H22   S    
C56   C83   S    
C45   H52   S    
C68   C81   S    
C64   C68   S    
Cr4   O14   S    
C35   H31   S    
C58   O17   A    
C38   H8    S    
C86   H57   S    
C1    O27   A    
C45   C82   S    
C63   C76   S    
Cr5   O18   S    
Cr1   O8    S    
Cr3   O23   S    
C77   H1    S    
C8    C23   S    
C79   H12   S    
C61   H28   S    
C86   O22   D    
C15   C35   A    
C5    C74   S    
C63   H56   S    
C69   C82   S    
C23   O12   A    
C48   C51   A    
C64   C84   S    
C20   C24   A    
C56   H53   S    
C61   C77   S    
C64   H35   S    
C46   C55   A    
C70   H40   S    
C15   C30   S    
C85   H55   S    
Cr4   O9    S    
Cr2   O6    S    
C45   C78   S    
C34   C81   S    
Cr1   O5    S    
C14   O13   A    
C58   O15   A    
C16   C28   S    
C29   O2    A    
Cr5   O11   S    
C30   O3    A    
C39   C52   A    
C44   H21   S    
C69   H42   S    
C55   C60   S    
C70   H43   S    
Cr4   O10   S    
C56   H4    S    
C80   C83   S    
C59   O18   A    
C1    O23   A    
Cr2   O8    S    
Cr1   O27   S    
C39   C42   A    
C54   C59   S    
C40   C43   A    
C16   C19   A    
C50   C53   A    
Cr3   O8    S    
C60   O19   A    
Cr1   O2    S    
C80   H23   S    
C62   C79   S    
C6    C75   S    
C19   C22   A    
C24   H17   S    
C34   H2    S    
C23   O29   A    
C11   C73   S    
C11   O25   A    
C19   H6    S    
Cr2   O3    S    
C43   H14   S    
C38   C51   A    
C13   C71   S    
C13   O26   A    
C33   C37   A    
Cr2   O28   S    
C34   C67   S    
C68   H38   S    
C25   C51   S    
C31   H25   S    
C26   C52   S    
C42   C55   A    
C47   C57   A    
Cr5   O15   S    
C65   H36   S    
C12   O28   A    
C20   H7    S    
C77   C81   S    
C22   H16   S    
Cr6   O16   S    
C3    C82   S    
C11   O10   A    
C85   O21   D    
C1    C9    S    
C61   H34   S    
C67   C74   S    
C17   C37   A    
C62   H45   S    
C70   C83   S    
C42   H13   S    
C76   C87   S    
Cr2   O12   S    
C4    C73   T    
C10   C12   S    
C38   C41   A    
C49   H19   S    
Cr5   O25   S    
Cr6   O13   S    
C31   C35   A    
C62   C75   S    
C5    C8    T    
C32   H26   S    
C2    C71   T    
C67   H48   S    
C32   C36   A    
C62   H29   S    
C13   O11   A    
C37   H33   S    
C84   H54   S    
Cr5   O9    S    
C21   C25   A    
Cr4   O17   S    
C14   C72   S    
C17   C20   A    
C49   C52   A    
C12   O1    A    
C56   C87   S    
C60   O14   A    
C66   C86   S    
C79   C82   S    
C63   H30   S    
C27   C53   S    
C65   C85   S    
C7    C76   S    
C61   C74   S    
C63   C80   S    
C47   C50   A    
C65   C75   S    
C41   H11   S    
C50   H20   S    
Cr3   O4    S    
C78   H49   S    
C3    C72   T    
C39   H9    S    
C16   C36   A    
C40   H10   S    
C57   C58   S    
C66   C70   S    
C4    C83   S    
Cr6   O9    S    
C69   H39   S    
C65   C69   S    
Cr4   O24   S    
C68   H41   S    
C28   O4    A    
Cr3   O7    S    
C67   H44   S    
C75   C78   S    
C41   C54   A    
C21   H15   S    
C43   C57   A    
C44   C54   A    
C47   H24   S    
C48   H18   S    
C33   H27   S    
C40   C53   A    
C22   C26   A    
C64   C74   S    
C14   O24   A    
C2    C81   S    
C18   H5    S    
C87   H50   S    
C59   O16   A    
C45   H3    S    
C66   C76   S    
C84   O20   D    
Cr1   O1    S    
C79   H59   S    
C66   H37   S    
