data_mof_unit_60281.cif
_audit_creation_date              2012-12-10T17:54:40-0500
_audit_creation_method            fapswitch 2.2
_symmetry_space_group_name_H-M    P1
_symmetry_Int_Tables_number       1
_space_group_crystal_system       triclinic
_cell_length_a                    19.639098
_cell_length_b                    19.639073
_cell_length_c                    59.988997
_cell_angle_alpha                 90.009573
_cell_angle_beta                  90.009585
_cell_angle_gamma                 90.04816
_cell_volume                      23137.3681482

loop_
_atom_site_label
_atom_site_type_symbol
_atom_type_description
_atom_site_fract_x
_atom_site_fract_y
_atom_site_fract_z
_atom_type_partial_charge
C1    C     C_R   0.499991 0.999987 0.189599 0.978644
C2    C     C_R   0.500006 0.999999 0.810414 0.971534
C3    C     C_R   0.000001 0.499994 0.189586 0.971354
C4    C     C_R   0.000013 0.500008 0.810401 0.978373
C5    C     C_R   0.999991 0.499987 0.689599 0.978321
C6    C     C_R   0.000006 0.499999 0.310414 0.971313
C7    C     C_R   0.500001 0.999994 0.689586 0.971380
C8    C     C_R   0.500013 0.000008 0.310401 0.978421
C9    C     C_R   0.449668 0.963121 0.440676 -0.139151
C10   C     C_R   0.541027 0.047785 0.559346 -0.140532
C11   C     C_R   0.952304 0.458858 0.440654 -0.140529
C12   C     C_R   0.036769 0.550406 0.559323 -0.139140
C13   C     C_R   0.550578 0.037920 0.440706 -0.143472
C14   C     C_R   0.458802 0.952610 0.559298 -0.144011
C15   C     C_R   0.047307 0.541284 0.440702 -0.143998
C16   C     C_R   0.962190 0.449336 0.559294 -0.143471
C17   C     C_R   0.949619 0.463172 0.940676 -0.139145
C18   C     C_R   0.041076 0.547735 0.059346 -0.140537
C19   C     C_R   0.452046 0.959200 0.940653 -0.140545
C20   C     C_R   0.537117 0.050180 0.059325 -0.139170
C21   C     C_R   0.050615 0.537853 0.940706 -0.143477
C22   C     C_R   0.958741 0.452653 0.059298 -0.143997
C23   C     C_R   0.547570 0.041019 0.940701 -0.144031
C24   C     C_R   0.461880 0.949594 0.059293 -0.143478
C25   C     C_R   0.396750 0.930266 0.452835 0.471609
C26   C     C_R   0.578182 0.097801 0.547146 0.470537
C27   C     C_R   0.902372 0.421590 0.452854 0.470512
C28   C     C_R   0.069506 0.603397 0.547164 0.471655
C29   C     C_R   0.603323 0.070979 0.452919 0.468772
C30   C     C_R   0.421551 0.902750 0.547038 0.466497
C31   C     C_R   0.097087 0.578642 0.452963 0.466450
C32   C     C_R   0.929250 0.396516 0.547082 0.468833
C33   C     C_R   0.896661 0.430381 0.952835 0.471689
C34   C     C_R   0.078293 0.597705 0.047146 0.470491
C35   C     C_R   0.401867 0.922268 0.952853 0.470553
C36   C     C_R   0.570212 0.102951 0.047165 0.471573
C37   C     C_R   0.103400 0.570846 0.952918 0.468863
C38   C     C_R   0.921430 0.402837 0.047038 0.466407
C39   C     C_R   0.597591 0.078054 0.952961 0.466530
C40   C     C_R   0.428588 0.896997 0.047080 0.468713
C41   C     C_R   0.500064 0.000049 0.334976 -0.056421
C42   C     C_R   0.499989 0.999982 0.664988 -0.058338
C43   C     C_R   0.000018 0.500008 0.335012 -0.058359
C44   C     C_R   0.999951 0.499936 0.665024 -0.056448
C45   C     C_R   0.000062 0.500048 0.834976 -0.056437
C46   C     C_R   0.999987 0.499982 0.164988 -0.058349
C47   C     C_R   0.500019 0.000016 0.835012 -0.058301
C48   C     C_R   0.499952 0.999938 0.165025 -0.056374
C49   C     C_R   0.956516 0.455915 0.011805 0.017241
C50   C     C_R   0.047844 0.540148 0.988189 0.017131
C51   C     C_R   0.459595 0.952388 0.011810 0.017149
C52   C     C_R   0.544331 0.043251 0.988194 0.017223
C53   C     C_R   0.043438 0.544799 0.011856 0.016486
C54   C     C_R   0.952180 0.460713 0.988142 0.016640
C55   C     C_R   0.539561 0.047608 0.011858 0.016629
C56   C     C_R   0.454967 0.956822 0.988143 0.016497
C57   C     C_R   0.456575 0.955870 0.511805 0.017229
C58   C     C_R   0.547803 0.040211 0.488189 0.017141
C59   C     C_R   0.959895 0.452099 0.511811 0.017133
C60   C     C_R   0.044038 0.543508 0.488195 0.017236
C61   C     C_R   0.543392 0.044856 0.511857 0.016495
C62   C     C_R   0.452234 0.960663 0.488142 0.016634
C63   C     C_R   0.039233 0.547843 0.511858 0.016638
C64   C     C_R   0.955241 0.456499 0.488144 0.016491
C65   C     C_R   0.999957 0.500317 0.023700 0.095587
C66   C     C_R   0.000041 0.500458 0.976306 0.095177
C67   C     C_R   0.499552 0.999968 0.023694 0.095175
C68   C     C_R   0.499688 0.000058 0.976299 0.095589
C69   C     C_R   0.499963 0.000322 0.523700 0.095589
C70   C     C_R   0.500047 0.000465 0.476306 0.095175
C71   C     C_R   0.999536 0.499944 0.523694 0.095175
C72   C     C_R   0.999681 0.500023 0.476300 0.095588
C73   C     C_R   0.920199 0.406289 0.023795 -0.264166
C74   C     C_R   0.100234 0.572342 0.976168 -0.263456
C75   C     C_R   0.427109 0.900177 0.023831 -0.263506
C76   C     C_R   0.594154 0.079297 0.976203 -0.264121
C77   C     C_R   0.079680 0.594382 0.023904 -0.266369
C78   C     C_R   0.899754 0.428683 0.976079 -0.265924
C79   C     C_R   0.571889 0.099850 0.023922 -0.265901
C80   C     C_R   0.405182 0.920859 0.976094 -0.266387
C81   C     C_R   0.420317 0.906200 0.523795 -0.264142
C82   C     C_R   0.600154 0.072469 0.476168 -0.263485
C83   C     C_R   0.927752 0.399679 0.523833 -0.263464
C84   C     C_R   0.093631 0.579872 0.476205 -0.264160
C85   C     C_R   0.579575 0.094481 0.523905 -0.266390
C86   C     C_R   0.399846 0.928571 0.476079 -0.265904
C87   C     C_R   0.071209 0.600303 0.523920 -0.265912
C88   C     C_R   0.905696 0.420206 0.476096 -0.266383
C89   C     C_R   0.629284 0.870716 0.250000 0.868772
C90   C     C_R   0.370716 0.129284 0.750000 0.869334
C91   C     C_R   0.129278 0.629273 0.250001 0.842071
C92   C     C_R   0.870722 0.370727 0.749999 0.844219
C93   C     C_R   0.370713 0.129287 0.250000 0.868610
C94   C     C_R   0.629287 0.870713 0.750000 0.869359
C95   C     C_R   0.870727 0.370722 0.249999 0.842071
C96   C     C_R   0.129273 0.629278 0.750001 0.844218
C97   C     C_R   0.629278 0.129273 0.750001 0.842105
C98   C     C_R   0.370722 0.870727 0.249999 0.844280
C99   C     C_R   0.129284 0.370716 0.750000 0.868803
C100  C     C_R   0.870716 0.629284 0.250000 0.869339
C101  C     C_R   0.370727 0.870722 0.749999 0.842104
C102  C     C_R   0.629273 0.129278 0.250001 0.844278
C103  C     C_R   0.870713 0.629287 0.750000 0.868640
C104  C     C_R   0.129287 0.370713 0.250000 0.869375
C105  C     C_1   0.318942 0.818953 0.249998 -0.119839
C106  C     C_1   0.681058 0.181047 0.750002 -0.119882
C107  C     C_1   0.181063 0.318936 0.250000 -0.118449
C108  C     C_1   0.818936 0.681064 0.750000 -0.119632
C109  C     C_1   0.681047 0.181058 0.250002 -0.119843
C110  C     C_1   0.318953 0.818941 0.749998 -0.119878
C111  C     C_1   0.818938 0.681062 0.250000 -0.118743
C112  C     C_1   0.181062 0.318937 0.750000 -0.119286
C113  C     C_1   0.318938 0.181062 0.750000 -0.118755
C114  C     C_1   0.681062 0.818938 0.250000 -0.119305
C115  C     C_1   0.181047 0.681058 0.750002 -0.119840
C116  C     C_1   0.818953 0.318941 0.249998 -0.119887
C117  C     C_1   0.681064 0.818936 0.750000 -0.118460
C118  C     C_1   0.318936 0.181064 0.250000 -0.119654
C119  C     C_1   0.818942 0.318953 0.749998 -0.119844
C120  C     C_1   0.181058 0.681047 0.250002 -0.119883
C121  C     C_1   0.275468 0.775473 0.249999 0.027670
C122  C     C_1   0.724533 0.224527 0.750001 0.027529
C123  C     C_1   0.224530 0.275470 0.250000 0.027244
C124  C     C_1   0.775470 0.724530 0.750000 0.027013
C125  C     C_1   0.724527 0.224533 0.250001 0.027665
C126  C     C_1   0.275473 0.775467 0.749999 0.027533
C127  C     C_1   0.775471 0.724529 0.250000 0.027132
C128  C     C_1   0.224529 0.275470 0.750000 0.027142
C129  C     C_1   0.275471 0.224529 0.750000 0.027132
C130  C     C_1   0.724530 0.775470 0.250000 0.027139
C131  C     C_1   0.224527 0.724532 0.750001 0.027667
C132  C     C_1   0.775473 0.275467 0.249999 0.027525
C133  C     C_1   0.724530 0.775470 0.750000 0.027244
C134  C     C_1   0.275470 0.224530 0.250000 0.027010
C135  C     C_1   0.775467 0.275473 0.749999 0.027662
C136  C     C_1   0.224533 0.724527 0.250001 0.027529
C137  C     C_R   0.454762 0.960242 0.417157 0.581748
C138  C     C_R   0.542874 0.043009 0.582899 0.581300
C139  C     C_R   0.957078 0.457028 0.417102 0.581275
C140  C     C_R   0.039664 0.545317 0.582842 0.581763
C141  C     C_R   0.545705 0.040546 0.417167 0.574298
C142  C     C_R   0.457096 0.957121 0.582863 0.574678
C143  C     C_R   0.042794 0.542978 0.417137 0.574660
C144  C     C_R   0.959549 0.454209 0.582833 0.574315
C145  C     C_R   0.954711 0.460284 0.917158 0.581765
C146  C     C_R   0.042913 0.542961 0.082898 0.581278
C147  C     C_R   0.456821 0.957324 0.917101 0.581333
C148  C     C_R   0.539963 0.045079 0.082844 0.581720
C149  C     C_R   0.045742 0.540488 0.917168 0.574327
C150  C     C_R   0.957043 0.457165 0.082864 0.574649
C151  C     C_R   0.543058 0.042749 0.917135 0.574698
C152  C     C_R   0.459280 0.954471 0.082833 0.574282
C153  C     C_R   0.556138 0.974829 0.370309 -0.169306
C154  C     C_R   0.446355 0.030000 0.629639 -0.168796
C155  C     C_R   0.969953 0.553612 0.370362 -0.168789
C156  C     C_R   0.025252 0.443896 0.629691 -0.169300
C157  C     C_R   0.444228 0.025674 0.370313 -0.169234
C158  C     C_R   0.553601 0.969969 0.629637 -0.170158
C159  C     C_R   0.030077 0.446419 0.370362 -0.170139
C160  C     C_R   0.974248 0.555734 0.629687 -0.169221
C161  C     C_R   0.056114 0.474781 0.870309 -0.169301
C162  C     C_R   0.946362 0.530019 0.129639 -0.168802
C163  C     C_R   0.470102 0.053713 0.870360 -0.168820
C164  C     C_R   0.525014 0.943792 0.129691 -0.169316
C165  C     C_R   0.944242 0.525709 0.870313 -0.169216
C166  C     C_R   0.053584 0.469946 0.129637 -0.170140
C167  C     C_R   0.529936 0.946357 0.870364 -0.170189
C168  C     C_R   0.474498 0.055851 0.129687 -0.169246
C169  C     C_R   0.557430 0.974904 0.346937 -0.077785
C170  C     C_R   0.444838 0.029634 0.653008 -0.076139
C171  C     C_R   0.970321 0.555134 0.346993 -0.076145
C172  C     C_R   0.025173 0.442603 0.653063 -0.077788
C173  C     C_R   0.442778 0.025326 0.346943 -0.077936
C174  C     C_R   0.555130 0.970325 0.653006 -0.074880
C175  C     C_R   0.029719 0.444890 0.346993 -0.074891
C176  C     C_R   0.974598 0.557187 0.653056 -0.077941
C177  C     C_R   0.057409 0.474862 0.846937 -0.077779
C178  C     C_R   0.944846 0.529653 0.153008 -0.076130
C179  C     C_R   0.470462 0.055221 0.846991 -0.076116
C180  C     C_R   0.524940 0.942502 0.153063 -0.077769
C181  C     C_R   0.942793 0.525363 0.846943 -0.077937
C182  C     C_R   0.055116 0.470304 0.153006 -0.074885
C183  C     C_R   0.529582 0.944827 0.846995 -0.074852
C184  C     C_R   0.474835 0.057295 0.153057 -0.077927
C185  C     C_R   0.500225 0.000327 0.382013 0.296589
C186  C     C_R   0.499977 0.999992 0.617963 0.302684
C187  C     C_R   0.000007 0.500015 0.382037 0.302647
C188  C     C_R   0.999674 0.499773 0.617987 0.296547
C189  C     C_R   0.000219 0.500319 0.882013 0.296565
C190  C     C_R   0.999971 0.499990 0.117963 0.302671
C191  C     C_R   0.500012 0.000038 0.882036 0.302766
C192  C     C_R   0.499683 0.999781 0.117988 0.296667
C193  C     C_R   0.500102 0.000506 0.452546 -0.149800
C194  C     C_R   0.499928 0.000238 0.547470 -0.149921
C195  C     C_R   0.999764 0.500058 0.452531 -0.149916
C196  C     C_R   0.999494 0.499891 0.547454 -0.149813
C197  C     C_R   0.000096 0.500498 0.952546 -0.149815
C198  C     C_R   0.999921 0.500234 0.047469 -0.149911
C199  C     C_R   0.499769 0.000096 0.952530 -0.149920
C200  C     C_R   0.499512 0.999910 0.047454 -0.149782
H1    H     H_    0.401110 0.045045 0.379639 0.154082
H2    H     H_    0.595024 0.947269 0.620295 0.146605
H3    H     H_    0.052814 0.405013 0.379703 0.146638
H4    H     H_    0.954816 0.598826 0.620361 0.154121
H5    H     H_    0.599298 0.955523 0.379631 0.152427
H6    H     H_    0.404931 0.052713 0.620299 0.147711
H7    H     H_    0.947204 0.595016 0.379702 0.147735
H8    H     H_    0.044618 0.400763 0.620369 0.152463
H9    H     H_    0.901137 0.545111 0.879639 0.154105
H10   H     H_    0.094998 0.447229 0.120295 0.146620
H11   H     H_    0.552560 0.904894 0.879707 0.146538
H12   H     H_    0.455253 0.099025 0.120361 0.154006
H13   H     H_    0.099259 0.455443 0.879632 0.152446
H14   H     H_    0.904946 0.552749 0.120300 0.147712
H15   H     H_    0.447466 0.095180 0.879700 0.147647
H16   H     H_    0.544196 0.900578 0.120369 0.152359
H17   H     H_    0.892855 0.366892 0.015092 0.205139
H18   H     H_    0.141827 0.596377 0.984828 0.204897
H19   H     H_    0.402841 0.858722 0.015169 0.204895
H20   H     H_    0.633704 0.106423 0.984906 0.205141
H21   H     H_    0.107064 0.633866 0.015260 0.206203
H22   H     H_    0.858054 0.404672 0.984692 0.205808
H23   H     H_    0.596135 0.141413 0.015309 0.205835
H24   H     H_    0.365544 0.893695 0.984738 0.206173
H25   H     H_    0.393019 0.866770 0.515092 0.205140
H26   H     H_    0.641717 0.096554 0.484829 0.204897
H27   H     H_    0.903759 0.358061 0.515173 0.204898
H28   H     H_    0.133001 0.607255 0.484909 0.205140
H29   H     H_    0.606912 0.133998 0.515261 0.206183
H30   H     H_    0.358175 0.904510 0.484692 0.205825
H31   H     H_    0.095177 0.642027 0.515307 0.205815
H32   H     H_    0.866240 0.392782 0.484740 0.206195
N1    N     N_R   0.500243 0.000374 0.406059 -0.365676
N2    N     N_R   0.499983 0.000040 0.593942 -0.367019
N3    N     N_R   0.999960 0.500007 0.406059 -0.367006
N4    N     N_R   0.999626 0.499754 0.593941 -0.365670
N5    N     N_R   0.000236 0.500366 0.906059 -0.365674
N6    N     N_R   0.999976 0.500038 0.093942 -0.367009
N7    N     N_R   0.499964 0.000037 0.906058 -0.367043
N8    N     N_R   0.499639 0.999765 0.093942 -0.365689
O1    O     O_3   0.500000 0.000000 0.250000 -0.507229
O2    O     O_3   0.500000 0.000000 0.750000 -0.507179
O3    O     O_3   1.000000 0.500000 0.250000 -0.507172
O4    O     O_3   0.000000 0.500000 0.750000 -0.507223
O5    O     O_R   0.444160 0.000000 0.200320 -0.616814
O6    O     O_R   0.555840 0.000000 0.799680 -0.616002
O7    O     O_R   0.000000 0.444160 0.200320 -0.616012
O8    O     O_R   0.000000 0.555840 0.799680 -0.616810
O9    O     O_R   0.555840 0.000000 0.200320 -0.616680
O10   O     O_R   0.444160 0.000000 0.799680 -0.616637
O11   O     O_R   0.000000 0.555840 0.200320 -0.616642
O12   O     O_R   0.000000 0.444160 0.799680 -0.616683
O13   O     O_R   0.944160 0.500000 0.700320 -0.616821
O14   O     O_R   0.055840 0.500000 0.299680 -0.616013
O15   O     O_R   0.500000 0.944160 0.700320 -0.616013
O16   O     O_R   0.500000 0.055840 0.299680 -0.616829
O17   O     O_R   0.055840 0.500000 0.700320 -0.616681
O18   O     O_R   0.944160 0.500000 0.299680 -0.616649
O19   O     O_R   0.500000 0.055840 0.700320 -0.616650
O20   O     O_R   0.500000 0.944160 0.299680 -0.616683
O21   O     O_R   0.634020 0.921800 0.237170 -0.622865
O22   O     O_R   0.365980 0.078200 0.762830 -0.622171
O23   O     O_R   0.078200 0.634020 0.237170 -0.631596
O24   O     O_R   0.921800 0.365980 0.762830 -0.630798
O25   O     O_R   0.365980 0.078200 0.237170 -0.623010
O26   O     O_R   0.634020 0.921800 0.762830 -0.622025
O27   O     O_R   0.921800 0.365980 0.237170 -0.631117
O28   O     O_R   0.078200 0.634020 0.762830 -0.631072
O29   O     O_R   0.634020 0.078200 0.762830 -0.631104
O30   O     O_R   0.365980 0.921800 0.237170 -0.631051
O31   O     O_R   0.078200 0.365980 0.762830 -0.622826
O32   O     O_R   0.921800 0.634020 0.237170 -0.622151
O33   O     O_R   0.365980 0.921800 0.762830 -0.631582
O34   O     O_R   0.634020 0.078200 0.237170 -0.630773
O35   O     O_R   0.921800 0.634020 0.762830 -0.622970
O36   O     O_R   0.078200 0.365980 0.237170 -0.622003
O37   O     O_R   0.134020 0.421800 0.737170 -0.622819
O38   O     O_R   0.865980 0.578200 0.262830 -0.622150
O39   O     O_R   0.578200 0.134020 0.737170 -0.631601
O40   O     O_R   0.421800 0.865980 0.262830 -0.630801
O41   O     O_R   0.865980 0.578200 0.737170 -0.622968
O42   O     O_R   0.134020 0.421800 0.262830 -0.622001
O43   O     O_R   0.421800 0.865980 0.737170 -0.631123
O44   O     O_R   0.578200 0.134020 0.262830 -0.631080
O45   O     O_R   0.134020 0.578200 0.262830 -0.631126
O46   O     O_R   0.865980 0.421800 0.737170 -0.631084
O47   O     O_R   0.578200 0.865980 0.262830 -0.622823
O48   O     O_R   0.421800 0.134020 0.737170 -0.622152
O49   O     O_R   0.865980 0.421800 0.262830 -0.631605
O50   O     O_R   0.134020 0.578200 0.737170 -0.630808
O51   O     O_R   0.421800 0.134020 0.262830 -0.622973
O52   O     O_R   0.578200 0.865980 0.737170 -0.622004
O53   O     O_2   0.416474 0.916433 0.405281 -0.456567
O54   O     O_2   0.587538 0.079842 0.594913 -0.456864
O55   O     O_2   0.920326 0.412299 0.405086 -0.456890
O56   O     O_2   0.083400 0.583693 0.594716 -0.456574
O57   O     O_2   0.584269 0.084038 0.405276 -0.451960
O58   O     O_2   0.412664 0.919994 0.594862 -0.452656
O59   O     O_2   0.079837 0.587481 0.405138 -0.452686
O60   O     O_2   0.916131 0.415559 0.594724 -0.451972
O61   O     O_2   0.916377 0.416514 0.905282 -0.456572
O62   O     O_2   0.087610 0.579753 0.094913 -0.456873
O63   O     O_2   0.419815 0.912798 0.905088 -0.456808
O64   O     O_2   0.583918 0.083191 0.094723 -0.456552
O65   O     O_2   0.084352 0.583941 0.905276 -0.451954
O66   O     O_2   0.912575 0.420081 0.094862 -0.452683
O67   O     O_2   0.580357 0.087037 0.905136 -0.452607
O68   O     O_2   0.415635 0.916080 0.094725 -0.451927
Zn1   Zn    Zn3+2 0.500000 0.920580 0.268960 1.059054
Zn2   Zn    Zn3+2 0.500000 0.079420 0.731040 1.056566
Zn3   Zn    Zn3+2 0.079420 0.500000 0.268960 1.057448
Zn4   Zn    Zn3+2 0.920580 0.500000 0.731040 1.058631
Zn5   Zn    Zn3+2 0.500000 0.079420 0.268960 1.058671
Zn6   Zn    Zn3+2 0.500000 0.920580 0.731040 1.057478
Zn7   Zn    Zn3+2 0.920580 0.500000 0.268960 1.056533
Zn8   Zn    Zn3+2 0.079420 0.500000 0.731040 1.059008
Zn9   Zn    Zn3+2 0.000000 0.420580 0.768960 1.059020
Zn10  Zn    Zn3+2 0.000000 0.579420 0.231040 1.056550
Zn11  Zn    Zn3+2 0.579420 0.000000 0.768960 1.057516
Zn12  Zn    Zn3+2 0.420580 0.000000 0.231040 1.058722
Zn13  Zn    Zn3+2 0.000000 0.579420 0.768960 1.058654
Zn14  Zn    Zn3+2 0.000000 0.420580 0.231040 1.057463
Zn15  Zn    Zn3+2 0.420580 0.000000 0.768960 1.056604
Zn16  Zn    Zn3+2 0.579420 0.000000 0.231040 1.059095
C201  C     C_2   0.379394 0.050566 0.336130 0.420857
H33   H     H_    0.341840 0.077525 0.346049 0.086973
O69   O     O_2   0.366965 0.040357 0.316477 -0.585266
C202  C     C_2   0.616546 0.940652 0.663805 0.427078
H34   H     H_    0.650776 0.909046 0.654069 0.084657
O70   O     O_2   0.631302 0.952530 0.683183 -0.582387
C203  C     C_2   0.059435 0.383496 0.336194 0.427142
H35   H     H_    0.091089 0.349302 0.345927 0.084633
O71   O     O_2   0.047539 0.368714 0.316819 -0.582355
C204  C     C_2   0.949283 0.620541 0.663870 0.420943
H36   H     H_    0.922240 0.658042 0.653953 0.086943
O72   O     O_2   0.959525 0.633009 0.683517 -0.585220
C205  C     C_2   0.620739 0.949530 0.336114 0.424252
H37   H     H_    0.658366 0.922703 0.346043 0.088393
O73   O     O_2   0.633026 0.959475 0.316440 -0.585046
C206  C     C_2   0.383426 0.059302 0.663807 0.425835
H38   H     H_    0.349193 0.090917 0.654075 0.084521
O74   O     O_2   0.368676 0.047408 0.683182 -0.582218
C207  C     C_2   0.940610 0.616525 0.336194 0.425891
H39   H     H_    0.908949 0.650720 0.345924 0.084492
O75   O     O_2   0.952521 0.631305 0.316823 -0.582186
C208  C     C_2   0.050622 0.379325 0.663886 0.424337
H40   H     H_    0.077534 0.341751 0.653960 0.088362
O76   O     O_2   0.040640 0.366999 0.683555 -0.584999
C209  C     C_2   0.879425 0.550643 0.836129 0.420902
H41   H     H_    0.841898 0.577644 0.846047 0.086960
O77   O     O_2   0.866978 0.540421 0.816479 -0.585248
C210  C     C_2   0.116524 0.440612 0.163804 0.427116
H42   H     H_    0.150736 0.408984 0.154069 0.084644
O78   O     O_2   0.131294 0.452499 0.183180 -0.582375
C211  C     C_2   0.559163 0.883364 0.836197 0.426950
H43   H     H_    0.590670 0.849056 0.845938 0.084706
O79   O     O_2   0.547322 0.868660 0.816812 -0.582454
C212  C     C_2   0.449750 0.120741 0.163871 0.420682
H44   H     H_    0.422970 0.158406 0.153945 0.087038
O80   O     O_2   0.459881 0.133089 0.183533 -0.585361
C213  C     C_2   0.120703 0.449449 0.836114 0.424295
H45   H     H_    0.158301 0.422577 0.846042 0.088371
O81   O     O_2   0.133013 0.459417 0.816443 -0.585024
C214  C     C_2   0.883445 0.559341 0.163808 0.425837
H46   H     H_    0.849228 0.590976 0.154077 0.084495
O82   O     O_2   0.868683 0.547439 0.183182 -0.582215
C215  C     C_2   0.440885 0.116675 0.836190 0.425700
H47   H     H_    0.409370 0.150988 0.845926 0.084567
O83   O     O_2   0.452740 0.131365 0.816808 -0.582293
C216  C     C_2   0.550156 0.879129 0.163887 0.424078
H48   H     H_    0.576809 0.841394 0.153951 0.088450
O84   O     O_2   0.540280 0.866919 0.183570 -0.585143
S1    S     S_3+6 0.322097 0.895277 0.440381 0.098414
O85   O     O_2   0.339388 0.828228 0.429698 -0.212096
O86   O     O_2   0.267566 0.883712 0.457568 -0.256089
O87   O     O_3   0.291802 0.949229 0.420986 -0.514091
H49   H     H_    0.254428 0.924044 0.413558 0.396344
S2    S     S_3+6 0.619998 0.169089 0.559498 0.099302
O88   O     O_2   0.684174 0.145509 0.570765 -0.218003
O89   O     O_2   0.638328 0.221302 0.542169 -0.256744
O90   O     O_3   0.568236 0.205825 0.578330 -0.500417
H50   H     H_    0.596548 0.241092 0.585657 0.397571
S3    S     S_3+6 0.831182 0.379603 0.440503 0.099298
O91   O     O_2   0.854919 0.315492 0.429232 -0.217930
O92   O     O_2   0.779024 0.361130 0.457834 -0.256682
O93   O     O_3   0.794308 0.431283 0.421677 -0.500388
H51   H     H_    0.759117 0.402884 0.414348 0.397532
S4    S     S_3+6 0.104318 0.678132 0.559618 0.098398
O94   O     O_2   0.171412 0.661001 0.570298 -0.212199
O95   O     O_2   0.115743 0.732693 0.542432 -0.256151
O96   O     O_3   0.050299 0.708291 0.579016 -0.514120
H52   H     H_    0.075394 0.745728 0.586443 0.396372
S5    S     S_3+6 0.677678 0.106884 0.440536 0.107067
O97   O     O_2   0.731203 0.121021 0.457866 -0.251183
O98   O     O_2   0.706502 0.058247 0.423638 -0.244933
O99   O     O_3   0.657069 0.180647 0.427995 -0.466043
H53   H     H_    0.699979 0.196933 0.421138 0.407251
S6    S     S_3+6 0.379149 0.831659 0.559305 0.109749
O100  O     O_2   0.358664 0.780636 0.541845 -0.250663
O101  O     O_2   0.425733 0.797297 0.575704 -0.232376
O102  O     O_3   0.308575 0.858789 0.572468 -0.471125
H54   H     H_    0.288897 0.817445 0.579403 0.407458
S7    S     S_3+6 0.168089 0.621195 0.440696 0.109812
O103  O     O_2   0.219062 0.641796 0.458157 -0.250517
O104  O     O_2   0.202555 0.574681 0.424299 -0.232290
O105  O     O_3   0.140808 0.691706 0.427530 -0.471239
H55   H     H_    0.182113 0.711476 0.420598 0.407406
S8    S     S_3+6 0.893517 0.322082 0.559466 0.106994
O106  O     O_2   0.879512 0.268517 0.542138 -0.251329
O107  O     O_2   0.942216 0.293379 0.576367 -0.245035
O108  O     O_3   0.819701 0.342521 0.572004 -0.465921
H56   H     H_    0.803525 0.299581 0.578868 0.407298
S9    S     S_3+6 0.821965 0.395486 0.940381 0.098364
O109  O     O_2   0.839172 0.328412 0.929700 -0.212336
O110  O     O_2   0.767417 0.383995 0.957567 -0.256203
O111  O     O_3   0.791744 0.449473 0.920984 -0.514099
H57   H     H_    0.754339 0.424334 0.913555 0.396387
S10   S     S_3+6 0.120205 0.668939 0.059497 0.099307
O112  O     O_2   0.184344 0.645271 0.070766 -0.217817
O113  O     O_2   0.138617 0.721119 0.042166 -0.256655
O114  O     O_3   0.068489 0.705755 0.078324 -0.500402
H58   H     H_    0.096847 0.740987 0.085650 0.397500
S11   S     S_3+6 0.330386 0.880786 0.940500 0.099314
O115  O     O_2   0.353664 0.816486 0.929242 -0.218010
O116  O     O_2   0.278077 0.862724 0.957829 -0.256801
O117  O     O_3   0.293910 0.932706 0.921662 -0.500467
H59   H     H_    0.258496 0.904564 0.914341 0.397601
S12   S     S_3+6 0.605562 0.177437 0.059619 0.098407
O118  O     O_2   0.672514 0.159818 0.070309 -0.212068
O119  O     O_2   0.617413 0.231903 0.042431 -0.256039
O120  O     O_3   0.551745 0.208010 0.079007 -0.514024
H60   H     H_    0.577115 0.245253 0.086439 0.396313
S13   S     S_3+6 0.177800 0.606655 0.940535 0.106949
O121  O     O_2   0.231347 0.620718 0.957864 -0.251446
O122  O     O_2   0.206556 0.557983 0.923635 -0.245074
O123  O     O_3   0.157286 0.680448 0.927996 -0.465837
H61   H     H_    0.200207 0.696659 0.921128 0.407344
S14   S     S_3+6 0.878940 0.331798 0.059305 0.109866
O124  O     O_2   0.858385 0.280804 0.041844 -0.250391
O125  O     O_2   0.925484 0.297374 0.075702 -0.232234
O126  O     O_3   0.808404 0.359016 0.072470 -0.471317
H62   H     H_    0.788660 0.317691 0.079397 0.407364
S15   S     S_3+6 0.668861 0.120150 0.940691 0.109702
O127  O     O_2   0.719983 0.140399 0.958150 -0.250775
O128  O     O_2   0.703008 0.073425 0.924287 -0.232457
O129  O     O_3   0.642035 0.190851 0.927535 -0.471021
H63   H     H_    0.683464 0.210355 0.920601 0.407499
S16   S     S_3+6 0.392349 0.822799 0.059460 0.107127
O130  O     O_2   0.377958 0.769347 0.042129 -0.251079
O131  O     O_2   0.440862 0.793743 0.076354 -0.244828
O132  O     O_3   0.318687 0.843736 0.072007 -0.466141
H64   H     H_    0.302202 0.800892 0.078857 0.407225

loop_
_geom_bond_atom_site_label_1
_geom_bond_atom_site_label_2
_ccdc_geom_bond_type
C185  N1    S    
C22   C150  A    
C7    O19   A    
C32   S8    S    
C138  O54   S    
C189  N5    S    
C205  H37   S    
C124  C133  S    
C16   C144  A    
C92   C119  S    
C96   O50   A    
C155  H7    S    
C58   C82   A    
C94   C117  S    
C9    C193  A    
C33   C78   A    
C60   C72   A    
C22   C38   A    
C35   C80   A    
C62   C70   A    
C7    C42   S    
C42   C170  A    
C117  C133  T    
C43   C175  A    
C158  C174  A    
C149  N5    A    
C17   C197  A    
C37   S13   S    
O8    Zn13  S    
C38   S14   S    
O27   Zn14  S    
C7    O15   A    
C58   C61   A    
C149  O65   S    
C14   C194  A    
C171  C207  S    
S9    O110  D    
C114  C130  T    
C108  C124  T    
S11   O117  S    
C147  O63   S    
C50   C53   A    
C123  C134  S    
C184  C212  S    
C85   H29   S    
C206  H38   S    
C4    O12   A    
C47   C183  A    
C67   C200  A    
S1    O87   S    
C21   C197  A    
C48   C184  A    
C93   O51   A    
C58   C70   A    
C26   S2    S    
O40   Zn1   S    
C41   C169  A    
C8    O16   A    
C44   C172  A    
C144  O60   S    
C211  H43   S    
C75   H19   S    
S13   O123  S    
C210  H42   S    
C208  H40   S    
C102  O34   A    
C92   O24   A    
C61   C85   A    
C202  O70   D    
C88   H32   S    
C63   C71   A    
C89   O47   A    
C139  N3    A    
O90   H50   S    
C49   C73   A    
C91   O45   A    
C89   O21   A    
C161  C177  A    
S3    O91   D    
C162  C190  A    
C91   O23   A    
O123  H61   S    
O39   Zn2   S    
C32   C83   A    
S7    O104  D    
C188  N4    S    
C148  N8    A    
C26   C85   A    
C11   C195  A    
O43   Zn6   S    
C9    C25   A    
C35   S11   S    
C1    C48   S    
C2    C47   S    
C167  C191  A    
S5    O97   D    
C3    C46   S    
C168  C192  A    
O51   Zn5   S    
S16   O130  D    
S1    O86   D    
C169  C205  S    
C29   C82   A    
C1    O5    A    
O111  H57   S    
C30   C81   A    
C70   C193  A    
O35   Zn13  S    
C156  H8    S    
S15   O128  D    
C24   C200  A    
C100  C111  S    
C141  N1    A    
C213  H45   S    
C102  C109  S    
C155  C187  A    
C10   C138  A    
S2    O88   D    
C104  C107  S    
C166  H10   S    
C96   O28   A    
C14   C142  A    
O114  H58   S    
C180  C216  S    
O3    Zn7   S    
C166  C182  A    
O41   Zn4   S    
C128  C129  S    
O102  H54   S    
O12   Zn9   S    
O44   Zn5   S    
O11   Zn10  S    
C82   H26   S    
C154  C170  A    
O36   Zn14  S    
O3    Zn14  S    
C157  C185  A    
O52   Zn6   S    
C50   C74   A    
C1    O9    A    
C192  N8    S    
C214  H46   S    
C5    O13   A    
C201  O69   D    
C20   C200  A    
C95   O27   A    
O1    Zn1   S    
C146  N6    A    
S4    O94   D    
C25   S1    S    
C20   C148  A    
C21   C149  A    
C53   C65   A    
C104  O36   A    
O9    Zn16  S    
C30   S6    S    
O24   Zn9   S    
C141  O57   S    
O30   Zn12  S    
C74   H18   S    
O32   Zn10  S    
O4    Zn4   S    
C145  O61   S    
S10   O113  D    
C4    C45   S    
C18   C34   A    
S5    O99   S    
C36   S12   S    
C105  C121  T    
S16   O132  S    
C8    C41   S    
C42   C174  A    
C43   C171  A    
C204  H36   S    
O45   Zn3   S    
C56   C68   A    
O46   Zn4   S    
C156  C172  A    
C31   C84   A    
C8    O20   A    
O4    Zn9   S    
O23   Zn10  S    
C152  O68   S    
O5    Zn12  S    
S10   O114  S    
C50   C66   A    
O6    Zn11  S    
C208  O76   D    
O120  H60   S    
C116  C132  T    
C95   C116  S    
O1    Zn5   S    
C106  C122  T    
C28   C87   A    
C5    O17   A    
O31   Zn9   S    
C172  C208  S    
C51   C67   A    
C212  O80   D    
C81   H25   S    
C110  C126  T    
C153  H5    S    
C211  O79   D    
C78   H22   S    
C19   C35   A    
C207  O75   D    
C163  C179  A    
O1    Zn16  S    
S6    O101  D    
C157  H1    S    
C48   C180  A    
O15   Zn6   S    
S12   O118  D    
C162  H14   S    
C109  C125  T    
O1    Zn12  S    
C41   C173  A    
O2    Zn11  S    
C44   C176  A    
C202  H34   S    
C52   C76   A    
C52   C55   A    
C15   C31   A    
C54   C66   A    
C147  N7    A    
C16   C32   A    
C19   C199  A    
C56   C80   A    
C39   S15   S    
C46   C182  A    
C97   O39   A    
S3    O93   S    
C103  O35   A    
C98   O40   A    
C99   O37   A    
C97   O29   A    
C148  O64   S    
S4    O96   S    
C99   O31   A    
C95   O49   A    
C90   O22   A    
C162  C178  A    
O132  H64   S    
C163  C191  A    
C54   C78   A    
C164  C192  A    
C137  N1    A    
C186  N2    S    
C37   C74   A    
S9    O109  D    
O25   Zn12  S    
C12   C196  A    
O26   Zn11  S    
C190  N6    S    
C107  C123  T    
O10   Zn15  S    
C143  O59   S    
S11   O116  D    
C164  H16   S    
C213  O81   D    
C209  H41   S    
C17   C33   A    
C46   C178  A    
C12   C28   A    
C68   C199  A    
C13   C29   A    
C59   C83   A    
C10   C194  A    
C34   C77   A    
O19   Zn2   S    
C93   O25   A    
O117  H59   S    
C11   C139  A    
S14   O124  D    
C161  H13   S    
C24   C152  A    
C104  O42   A    
C163  H15   S    
S7    O103  D    
S13   O122  D    
C210  O78   D    
C18   C198  A    
O3    Zn3   S    
C12   C140  A    
C13   C141  A    
C164  C180  A    
S12   O120  S    
O7    Zn14  S    
C15   C195  A    
O49   Zn7   S    
C13   C193  A    
O42   Zn3   S    
O13   Zn4   S    
O50   Zn8   S    
O14   Zn3   S    
C3    O7    A    
C158  C186  A    
C205  O73   D    
C216  H48   S    
C156  C188  A    
O33   Zn15  S    
O2    Zn15  S    
C144  N4    A    
C86   H30   S    
C102  O44   A    
C57   C62   A    
S7    O105  S    
O99   H53   S    
C92   O46   A    
O17   Zn8   S    
C101  O43   A    
O18   Zn7   S    
C115  C131  T    
O2    Zn2   S    
C119  C135  T    
C159  H3    S    
C120  C136  T    
S14   O126  S    
S16   O131  D    
C17   C145  A    
C203  H35   S    
C16   C196  A    
C80   H24   S    
C154  C186  A    
C182  C210  S    
C150  O66   S    
C215  O83   D    
C79   H23   S    
O4    Zn8   S    
C113  C129  T    
C97   C106  S    
C146  O62   S    
O22   Zn15  S    
C5    C44   S    
S9    O111  S    
C165  C189  A    
C138  N2    A    
S2    O89   D    
C170  C206  S    
C34   S10   S    
C100  O32   A    
C89   C114  S    
C177  C213  S    
C100  O38   A    
O3    Zn10  S    
C183  C211  S    
C22   C198  A    
C3    O11   A    
C36   C79   A    
C160  H4    S    
C216  O84   D    
C151  N7    A    
O29   Zn11  S    
O2    Zn6   S    
C40   C75   A    
C6    O18   A    
C31   S7    S    
S2    O90   S    
O93   H51   S    
C2    O6    A    
C139  O55   S    
C165  H9    S    
C76   H20   S    
C69   C194  A    
C214  O82   D    
C121  C136  S    
C201  H33   S    
C19   C147  A    
C122  C135  S    
C112  C128  T    
C167  H11   S    
O16   Zn5   S    
C20   C36   A    
C21   C37   A    
S8    O106  D    
S4    O95   D    
C153  C169  A    
O108  H56   S    
C140  N4    A    
O105  H55   S    
O34   Zn16  S    
C64   C88   A    
C157  C173  A    
C28   S4    S    
C207  H39   S    
O129  H63   S    
O20   Zn1   S    
C168  H12   S    
C53   C77   A    
C215  H47   S    
C40   S16   S    
C72   C195  A    
C71   C196  A    
O96   H52   S    
C83   H27   S    
C98   O30   A    
S5    O98   D    
C59   C64   A    
C98   C105  S    
C49   C65   A    
C60   C63   A    
O4    Zn13  S    
C51   C75   A    
C2    O10   A    
C204  O72   D    
C159  C187  A    
C49   C54   A    
C23   C199  A    
C55   C79   A    
C6    O14   A    
C51   C56   A    
C90   C113  S    
C143  N3    A    
C4    O8    A    
S15   O129  S    
C47   C179  A    
S11   O115  D    
C167  C183  A    
C150  N6    A    
C145  N5    A    
C96   C115  S    
C103  C108  S    
C11   C27   A    
C52   C68   A    
C45   C177  A    
C10   C26   A    
C209  O77   D    
C159  C175  A    
C160  C176  A    
S6    O102  S    
C101  O33   A    
C27   C88   A    
C14   C30   A    
O21   Zn16  S    
O48   Zn2   S    
S12   O119  D    
C191  N7    S    
C94   O26   A    
C15   C143  A    
C94   O52   A    
O37   Zn8   S    
C161  C189  A    
C176  C204  S    
O38   Zn7   S    
C168  C184  A    
O47   Zn1   S    
C65   C198  A    
C166  C190  A    
C178  C214  S    
S3    O92   D    
C174  C202  S    
C152  N8    A    
S8    O108  S    
C206  O74   D    
C142  O58   S    
C73   H17   S    
C39   C76   A    
C203  O71   D    
C154  H6    S    
C77   H21   S    
C111  C127  T    
C158  H2    S    
C57   C81   A    
C93   C118  S    
C160  C188  A    
C173  C201  S    
C84   H28   S    
C29   S5    S    
O87   H49   S    
C62   C86   A    
S10   O112  D    
C61   C69   A    
C23   C151  A    
C63   C87   A    
S6    O100  D    
C27   S3    S    
C87   H31   S    
C101  C110  S    
S8    O107  D    
C18   C146  A    
C118  C134  T    
C140  O56   S    
C55   C67   A    
O28   Zn13  S    
C151  O67   S    
C6    C43   S    
C165  C181  A    
C137  O53   S    
C127  C130  S    
C9    C137  A    
S15   O127  D    
S1    O85   D    
C90   O48   A    
C60   C84   A    
C125  C132  S    
O126  H62   S    
C153  C185  A    
C126  C131  S    
C23   C39   A    
C99   C112  S    
C25   C86   A    
C24   C40   A    
C33   S9    S    
C175  C203  S    
C64   C72   A    
C212  H44   S    
S14   O125  D    
C66   C197  A    
C155  C171  A    
C142  N2    A    
S13   O121  D    
C45   C181  A    
C91   C120  S    
C179  C215  S    
C57   C69   A    
C181  C209  S    
C103  O41   A    
C187  N3    S    
C59   C71   A    
C38   C73   A    
