data_mof_unit_20982.cif
_audit_creation_date              2012-12-11T15:35:32-0500
_audit_creation_method            fapswitch 2.2
_symmetry_space_group_name_H-M    P1
_symmetry_Int_Tables_number       1
_space_group_crystal_system       triclinic
_cell_length_a                    17.426358
_cell_length_b                    24.325468
_cell_length_c                    15.072826
_cell_angle_alpha                 89.954942
_cell_angle_beta                  124.939445
_cell_angle_gamma                 90.397254
_cell_volume                      5237.62449426

loop_
_atom_site_label
_atom_site_type_symbol
_atom_type_description
_atom_site_fract_x
_atom_site_fract_y
_atom_site_fract_z
_atom_type_partial_charge
C1    C     C_R   0.356005 0.152879 0.908552 -0.162919
C2    C     C_R   0.598982 0.126158 0.910838 -0.102823
C3    C     C_R   0.249065 0.545367 0.307610 0.424049
C4    C     C_R   0.097326 0.372387 0.910425 -0.074071
C5    C     C_R   0.101474 0.623626 0.911329 -0.101310
C6    C     C_R   0.448860 0.999708 0.642583 0.121772
C7    C     C_R   0.947324 0.499569 0.641658 0.126101
C8    C     C_R   0.794907 0.000646 0.371072 0.213274
C9    C     C_R   0.294957 0.500029 0.372034 0.201110
C10   C     C_R   0.686431 0.138469 0.002288 0.092045
C11   C     C_R   0.683886 0.858982 0.001966 0.212692
C12   C     C_R   0.191734 0.634252 0.002352 0.121418
C13   C     C_R   0.353064 0.847324 0.907827 -0.132610
C14   C     C_R   0.183760 0.358933 0.001795 0.217830
C15   C     C_3   0.016868 0.948154 0.636540 0.198068
C16   C     C_3   0.018878 0.052506 0.637369 0.223498
C17   C     C_3   0.516954 0.446085 0.638706 0.196175
C18   C     C_3   0.517751 0.550461 0.642659 0.219842
C19   C     C_3   0.916574 0.946362 0.532688 0.324978
C20   C     C_3   0.912995 0.049388 0.546752 0.341717
C21   C     C_3   0.417056 0.444238 0.533080 0.321873
C22   C     C_3   0.411330 0.546496 0.553039 0.343372
C23   C     C_3   0.064844 0.000681 0.526428 0.681379
C24   C     C_R   0.856032 0.652893 0.908547 -0.158287
C25   C     C_3   0.565338 0.499950 0.531401 0.685746
C26   C     C_3   0.070601 0.000104 0.635501 -0.250921
C27   C     C_3   0.570676 0.498774 0.640108 -0.236888
C28   C     C_3   0.893807 0.001070 0.467909 -0.311830
C29   C     C_3   0.393550 0.500047 0.471182 -0.294013
C30   C     C_R   0.451015 0.844120 0.085872 0.493852
C31   C     C_R   0.452346 0.155542 0.087058 0.499969
C32   C     C_R   0.952374 0.344273 0.086351 0.509302
C33   C     C_R   0.952544 0.655559 0.087040 0.493980
C34   C     C_3   0.959927 0.007508 0.427395 0.412604
C35   C     C_R   0.857064 0.346620 0.908050 -0.151784
C36   C     C_3   0.461074 0.509232 0.433312 0.400821
C37   C     C_R   0.307962 0.721025 0.905077 0.455149
C38   C     C_R   0.334979 0.281753 0.943074 0.353848
C39   C     C_R   0.841005 0.216464 0.947749 0.488036
C40   C     C_R   0.833781 0.781530 0.941528 0.352256
C41   C     C_R   0.791392 0.172292 0.951320 0.399994
C42   C     C_R   0.781189 0.824727 0.943440 0.394842
C43   C     C_R   0.262299 0.673907 0.908170 0.438681
C44   C     C_R   0.282301 0.324941 0.944829 0.390715
C45   C     C_R   0.747285 0.179528 0.005543 -0.252124
C46   C     C_R   0.689343 0.122893 0.091988 0.068157
C47   C     C_R   0.744376 0.818119 0.005067 -0.152088
C48   C     C_R   0.269543 0.661352 0.004512 -0.342774
C49   C     C_R   0.243871 0.317911 0.004651 -0.156321
C50   C     C_R   0.753064 0.229508 0.055818 0.588199
C51   C     C_R   0.758538 0.770242 0.064475 0.505633
C52   C     C_R   0.341731 0.686943 0.100688 0.512786
C53   C     C_R   0.256184 0.269569 0.062092 0.512696
C54   C     C_R   0.375974 0.736852 0.095001 -0.117007
C55   C     C_R   0.308492 0.228087 0.060423 -0.300585
C56   C     C_R   0.803836 0.272043 0.052821 -0.308324
C57   C     C_R   0.687996 0.875813 0.091815 0.024271
C58   C     C_R   0.810833 0.728800 0.062715 -0.298351
C59   C     C_R   0.357387 0.756113 0.996961 -0.183648
C60   C     C_R   0.346602 0.233772 0.001074 -0.061458
C61   C     C_R   0.846735 0.265744 0.999041 -0.141552
C62   C     C_R   0.847083 0.733973 0.001319 -0.055821
C63   C     C_R   0.533395 0.003286 0.561637 0.284235
C64   C     C_R   0.361713 0.994448 0.446878 0.487852
C65   C     C_R   0.032191 0.501276 0.560875 0.289225
C66   C     C_R   0.860171 0.496414 0.445601 0.486881
C67   C     C_R   0.534055 0.002390 0.470093 0.532186
C68   C     C_R   0.190057 0.622079 0.091694 -0.039251
C69   C     C_R   0.361207 0.994423 0.354872 0.420002
C70   C     C_R   0.032909 0.501552 0.469333 0.539078
C71   C     C_R   0.859812 0.496676 0.353649 0.414630
C72   C     C_R   0.447855 0.998770 0.368133 -0.190678
C73   C     C_R   0.946686 0.499520 0.367161 -0.188408
C74   C     C_R   0.480564 0.044905 0.249648 0.477063
C75   C     C_R   0.481989 0.953870 0.250604 0.473292
C76   C     C_R   0.980526 0.545243 0.249368 0.471091
C77   C     C_R   0.980827 0.454307 0.249750 0.467794
C78   C     C_R   0.447100 0.999502 0.548051 -0.276738
C79   C     C_R   0.187884 0.375628 0.091732 0.008583
C80   C     C_R   0.945701 0.499283 0.547091 -0.272735
C81   C     C_R   0.231473 0.954307 0.754820 0.486706
C82   C     C_R   0.232350 0.046020 0.755320 0.511984
C83   C     C_R   0.732305 0.453984 0.758119 0.494267
C84   C     C_R   0.732526 0.545508 0.758683 0.513929
C85   C     C_R   0.391894 0.185793 0.997237 0.073543
C86   C     C_R   0.385442 0.813556 0.995587 0.029465
C87   C     C_R   0.891989 0.685822 0.997255 0.061800
C88   C     C_R   0.893064 0.313652 0.996078 0.059146
C89   C     C_R   0.452719 0.998999 0.277293 -0.177405
C90   C     C_R   0.597388 0.872354 0.910521 -0.084335
C91   C     C_R   0.951794 0.499613 0.276365 -0.177425
C92   C     C_R   0.173121 0.000086 0.726561 -0.001869
C93   C     C_R   0.673627 0.499315 0.731473 -0.013674
C94   C     C_R   0.457500 0.045200 0.700452 0.456124
C95   C     C_R   0.457647 0.954438 0.700755 0.467264
C96   C     C_R   0.956566 0.545084 0.699851 0.444129
C97   C     C_R   0.956854 0.454384 0.700367 0.472247
C98   C     C_R   0.749068 0.954943 0.306719 0.438212
C99   C     C_R   0.748804 0.045767 0.306839 0.422419
C100  C     C_R   0.249024 0.454590 0.306671 0.440860
Cl1   Cl    Cl    0.022792 0.940964 0.759277 -0.406042
Cl2   Cl    Cl    0.387638 0.286977 0.871976 -0.532857
Cl3   Cl    Cl    0.897051 0.209345 0.881222 -0.458696
Cl4   Cl    Cl    0.884197 0.786250 0.867919 -0.533277
Cl5   Cl    Cl    0.639264 0.008857 0.693366 -0.528924
Cl6   Cl    Cl    0.255010 0.987960 0.434586 -0.405562
Cl7   Cl    Cl    0.138295 0.502147 0.692858 -0.551632
Cl8   Cl    Cl    0.753117 0.491833 0.432840 -0.418519
Cl9   Cl    Cl    0.555931 0.813195 0.190522 -0.547712
Cl10  Cl    Cl    0.552437 0.188083 0.197228 -0.499265
Cl11  Cl    Cl    0.052092 0.312350 0.196436 -0.499750
Cl12  Cl    Cl    0.042231 0.068721 0.767591 -0.460702
Cl13  Cl    Cl    0.052957 0.688037 0.196896 -0.502706
Cl14  Cl    Cl    0.485540 0.110592 0.300627 -0.535406
Cl15  Cl    Cl    0.492097 0.888155 0.304264 -0.516191
Cl16  Cl    Cl    0.987302 0.610825 0.301761 -0.525762
Cl17  Cl    Cl    0.988489 0.388887 0.303070 -0.520493
Cl18  Cl    Cl    0.520345 0.437947 0.759685 -0.415310
Cl19  Cl    Cl    0.542040 0.565969 0.773539 -0.486612
Cl20  Cl    Cl    0.930815 0.959676 0.320158 -0.545466
Cl21  Cl    Cl    0.942620 0.073909 0.363619 -0.531303
Cl22  Cl    Cl    0.431609 0.466448 0.319484 -0.560934
Cl23  Cl    Cl    0.447555 0.578238 0.382107 -0.535271
Cl24  Cl    Cl    0.307076 0.731111 0.788605 -0.481201
H1    H     H_    0.319585 0.167850 0.826638 0.225765
H2    H     H_    0.316393 0.189984 0.102284 0.184796
H3    H     H_    0.807426 0.311149 0.089699 0.180907
H4    H     H_    0.819937 0.691028 0.105987 0.184222
H5    H     H_    0.746875 0.129075 0.175486 0.172045
H6    H     H_    0.745549 0.869979 0.175224 0.169936
H7    H     H_    0.245821 0.625965 0.175745 0.185010
H8    H     H_    0.245374 0.369560 0.175078 0.166661
H9    H     H_    0.571384 0.862766 0.827928 0.170151
H10   H     H_    0.573650 0.135395 0.828384 0.167300
H11   H     H_    0.071299 0.362866 0.827795 0.168325
H12   H     H_    0.317137 0.833937 0.825441 0.242261
H13   H     H_    0.076372 0.629873 0.828237 0.176955
H14   H     H_    0.046791 0.909570 0.632562 0.097663
H15   H     H_    0.043672 0.088830 0.616068 0.149488
H16   H     H_    0.548103 0.407914 0.634977 0.101346
H17   H     H_    0.541396 0.587207 0.620950 0.154504
H18   H     H_    0.852943 0.895398 0.570308 0.380167
H19   H     H_    0.844578 0.079860 0.601992 0.382062
H20   H     H_    0.354619 0.390710 0.567836 0.378765
H21   H     H_    0.343337 0.572345 0.612266 0.380120
H22   H     H_    0.065511 0.920109 0.505073 0.340136
H23   H     H_    0.819192 0.667740 0.826492 0.228674
H24   H     H_    0.125995 0.040295 0.469532 0.427709
H25   H     H_    0.558984 0.419822 0.500736 0.332461
H26   H     H_    0.626620 0.538967 0.474178 0.427313
H27   H     H_    0.759007 0.094270 0.919310 0.355681
H28   H     H_    0.791820 0.872271 0.845947 0.402539
H29   H     H_    0.209735 0.603229 0.841065 0.357994
H30   H     H_    0.295362 0.373115 0.849952 0.403077
H31   H     H_    0.716379 0.274197 0.133556 0.362619
H32   H     H_    0.733636 0.727599 0.155734 0.364565
H33   H     H_    0.379677 0.624199 0.190666 0.368971
H34   H     H_    0.821270 0.331607 0.825954 0.223042
H35   H     H_    0.228415 0.226305 0.150150 0.366523
H36   H     H_    0.671608 0.005438 0.550811 0.409699
H37   H     H_    0.285096 0.990647 0.196234 0.342029
H38   H     H_    0.170261 0.507140 0.550092 0.407747
H39   H     H_    0.783738 0.494786 0.194910 0.339079
H40   H     H_    0.180780 0.890682 0.774080 0.330754
H41   H     H_    0.180748 0.112280 0.763601 0.333192
H42   H     H_    0.681751 0.391480 0.781383 0.330203
H43   H     H_    0.679146 0.610671 0.768363 0.334064
H44   H     H_    0.417513 0.117312 0.707099 0.331202
H45   H     H_    0.914208 0.912356 0.481539 0.103782
H46   H     H_    0.416686 0.882233 0.707462 0.331434
H47   H     H_    0.918112 0.617503 0.707557 0.332421
H48   H     H_    0.916467 0.382155 0.707921 0.326733
H49   H     H_    0.699428 0.882064 0.285948 0.370706
H50   H     H_    0.697864 0.117943 0.285736 0.368032
H51   H     H_    0.198358 0.381828 0.284804 0.365926
H52   H     H_    0.198970 0.617725 0.287465 0.369170
H53   H     H_    0.895456 0.089395 0.504190 0.152532
H54   H     H_    0.416096 0.411594 0.480514 0.093732
H55   H     H_    0.391177 0.587214 0.513050 0.162198
H56   H     H_    0.416353 0.760386 0.169050 0.239498
N1    N     N_R   0.392140 0.102630 0.941800 -0.093809
N2    N     N_R   0.525160 0.972040 0.206160 -0.124520
N3    N     N_R   0.025160 0.527960 0.206160 -0.123693
N4    N     N_R   0.025160 0.472040 0.206160 -0.123498
N5    N     N_R   0.317870 0.971120 0.792790 -0.111724
N6    N     N_R   0.317870 0.028880 0.792790 -0.115864
N7    N     N_R   0.817870 0.471120 0.792790 -0.110753
N8    N     N_R   0.817870 0.528880 0.792790 -0.113314
N9    N     N_R   0.473480 0.027920 0.793480 -0.147731
N10   N     N_R   0.473480 0.972080 0.793480 -0.147282
N11   N     N_R   0.973480 0.527920 0.793480 -0.148406
N12   N     N_R   0.392140 0.897370 0.941800 -0.094173
N13   N     N_R   0.973480 0.472080 0.793480 -0.146815
N14   N     N_R   0.681610 0.971120 0.207570 -0.143902
N15   N     N_R   0.681610 0.028880 0.207570 -0.147197
N16   N     N_R   0.181610 0.471120 0.207570 -0.143931
N17   N     N_R   0.181610 0.528880 0.207570 -0.144652
N18   N     N_R   0.605410 0.102620 0.056870 -0.069086
N19   N     N_R   0.605410 0.897380 0.056870 -0.068221
N20   N     N_R   0.105410 0.602620 0.056870 -0.060714
N21   N     N_R   0.105410 0.397380 0.056870 -0.070916
N22   N     N_R   0.549680 0.896430 0.944180 -0.074731
N23   N     N_R   0.892140 0.602630 0.941800 -0.094431
N24   N     N_R   0.549680 0.103570 0.944180 -0.060705
N25   N     N_R   0.049680 0.396430 0.944180 -0.075099
N26   N     N_R   0.049680 0.603570 0.944180 -0.059307
N27   N     N_R   0.892140 0.397370 0.941800 -0.092170
N28   N     N_R   0.450890 0.896450 0.057150 -0.113455
N29   N     N_R   0.450890 0.103550 0.057150 -0.123151
N30   N     N_R   0.950890 0.396450 0.057150 -0.126149
N31   N     N_R   0.950890 0.603550 0.057150 -0.122766
N32   N     N_R   0.525160 0.027960 0.206160 -0.124272
Ni1   Ni    Ni4+2 0.433410 0.064680 0.868830 0.245515
Ni2   Ni    Ni4+2 0.433410 0.935320 0.868830 0.248276
Ni3   Ni    Ni4+2 0.933410 0.564680 0.868830 0.246403
Ni4   Ni    Ni4+2 0.933410 0.435320 0.868830 0.243701
Ni5   Ni    Ni4+2 0.565650 0.934380 0.131170 0.284851
Ni6   Ni    Ni4+2 0.565650 0.065620 0.131170 0.281196
Ni7   Ni    Ni4+2 0.065650 0.434380 0.131170 0.280972
Ni8   Ni    Ni4+2 0.065650 0.565620 0.131170 0.278056
O1    O     O_3   0.850346 0.935439 0.555994 -0.531703
O2    O     O_3   0.763781 0.873313 0.887240 -0.665429
O3    O     O_3   0.213883 0.640581 0.817689 -0.632836
O4    O     O_3   0.266397 0.373926 0.890248 -0.664880
O5    O     O_3   0.704763 0.236613 0.102659 -0.682563
O6    O     O_3   0.716350 0.763685 0.118646 -0.692766
O7    O     O_3   0.380467 0.664491 0.201011 -0.641126
O8    O     O_3   0.212407 0.262732 0.114403 -0.688540
O9    O     O_3   0.616076 0.005033 0.475107 -0.658032
O10   O     O_3   0.275969 0.990043 0.255206 -0.616703
O11   O     O_3   0.115077 0.503363 0.474594 -0.657757
O12   O     O_3   0.858931 0.042629 0.588457 -0.545823
O13   O     O_3   0.774473 0.494042 0.253771 -0.625754
O14   O     O_3   0.204291 0.900698 0.729837 -0.728615
O15   O     O_3   0.205961 0.099099 0.723124 -0.704025
O16   O     O_3   0.706257 0.400020 0.737579 -0.737671
O17   O     O_3   0.704891 0.598587 0.727831 -0.701604
O18   O     O_3   0.426077 0.096564 0.656815 -0.680671
O19   O     O_3   0.426061 0.902757 0.657486 -0.669807
O20   O     O_3   0.925190 0.596485 0.656357 -0.671392
O21   O     O_3   0.925199 0.402659 0.657413 -0.675425
O22   O     O_3   0.752725 0.903196 0.345330 -0.694781
O23   O     O_3   0.350054 0.430883 0.554026 -0.526956
O24   O     O_3   0.750429 0.097059 0.345896 -0.696101
O25   O     O_3   0.252587 0.402535 0.344119 -0.694542
O26   O     O_3   0.251858 0.596752 0.347058 -0.685998
O27   O     O_3   0.359044 0.536238 0.596048 -0.551543
O28   O     O_3   0.105512 0.952397 0.518107 -0.629804
O29   O     O_3   0.118199 0.045387 0.529288 -0.634169
O30   O     O_3   0.602999 0.450871 0.520801 -0.640840
O31   O     O_3   0.621478 0.543446 0.536040 -0.628347
O32   O     O_3   0.787319 0.123666 0.901210 -0.607331

loop_
_geom_bond_atom_site_label_1
_geom_bond_atom_site_label_2
_ccdc_geom_bond_type
C44   C49   A    
C58   C62   A    
C2    C10   A    
H46   O19   S    
N6    Ni1   S    
C24   N23   A    
C58   H4    S    
N3    Ni8   S    
C31   C85   A    
C22   C29   S    
H28   O2    S    
C68   H7    S    
C96   O20   S    
C11   C47   S    
C84   O17   S    
C19   O1    S    
C12   C48   S    
C83   N7    A    
C46   H5    S    
C82   C92   A    
H26   O31   S    
C39   C41   A    
N26   Ni3   S    
C15   C19   S    
C7    C96   A    
C12   C68   A    
C29   C36   S    
C16   Cl12  S    
H24   O29   S    
C2    H10   S    
C13   N12   A    
C82   N6    A    
C3    C9    A    
N29   Ni6   S    
C74   C89   A    
N23   Ni3   S    
C75   C89   A    
C32   Cl11  S    
C8    C99   A    
C1    H1    S    
H29   O3    S    
C77   Cl17  S    
C53   O8    S    
C22   O27   S    
C49   C53   A    
C46   N18   A    
C14   C49   S    
H47   O20   S    
C26   C92   S    
C65   C70   A    
C83   C93   A    
H20   O23   S    
C99   N15   A    
C99   O24   S    
C77   N4    A    
C40   C62   A    
N5    Ni2   S    
C98   N14   A    
C6    C78   S    
N1    N29   A    
C67   C72   A    
C25   O30   S    
C23   C26   S    
N12   Ni2   S    
C23   O28   S    
C8    C98   A    
C70   O11   S    
C100  O25   S    
C95   N10   A    
N11   Ni3   S    
C5    N26   A    
C81   C92   A    
H49   O22   S    
C94   O18   S    
N4    Ni7   S    
C77   C91   A    
N25   Ni4   S    
C79   N21   A    
N19   Ni5   S    
C13   C86   A    
C10   C46   A    
N19   N22   A    
C59   C86   S    
C44   O4    S    
C3    O26   S    
H19   O12   S    
C30   C86   A    
C76   N3    A    
C43   C48   A    
H18   O1    S    
H38   O11   S    
H50   O24   S    
C21   O23   S    
C15   H14   S    
C55   C60   A    
C100  N16   A    
C40   C42   A    
N14   N15   A    
C28   C34   S    
H51   O25   S    
C65   C80   A    
C18   C22   S    
C82   O15   S    
C57   N19   A    
C34   Cl20  S    
N12   N28   A    
N23   N31   A    
N18   Ni6   S    
C70   C73   A    
C81   N5    A    
C42   C47   A    
N8    Ni3   S    
C52   C54   A    
N14   Ni5   S    
C54   C59   A    
C53   C55   A    
C16   C26   S    
C39   C61   A    
C63   C67   A    
C98   O22   S    
H21   O27   S    
C30   Cl9   S    
H40   O14   S    
H22   O28   S    
C17   C27   S    
C57   H6    S    
C4    N25   A    
C36   Cl23  S    
C2    N24   A    
N21   Ni7   S    
C5    C12   A    
H27   O32   S    
C71   C73   A    
C90   H9    S    
C1    N1    A    
N16   N17   A    
C15   C26   S    
C47   C51   A    
C20   C28   S    
C6    C94   A    
H35   O8    S    
C21   C29   S    
N24   Ni1   S    
C56   H3    S    
C17   C21   S    
N30   Ni7   S    
C74   N32   A    
C76   C91   A    
C37   C43   A    
C69   C72   A    
C36   Cl22  S    
N3    N4    A    
N11   N13   A    
C38   C44   A    
H39   O13   S    
C61   C88   S    
C40   Cl4   S    
C37   Cl24  S    
C32   N30   A    
C35   C88   A    
C52   O7    S    
C66   C71   A    
C31   N29   A    
C55   H2    S    
H43   O17   S    
N31   Ni8   S    
C16   C20   S    
C23   C34   S    
C30   N28   A    
C51   O6    S    
N2    N32   A    
C51   C58   A    
C95   O19   S    
C14   C79   A    
C15   Cl1   S    
C39   Cl3   S    
C19   C28   S    
N10   Ni2   S    
C73   C91   S    
C37   C59   A    
N1    Ni1   S    
N9    Ni1   S    
C17   Cl18  S    
N27   N30   A    
C4    H11   S    
C38   C60   A    
C35   N27   A    
C21   H54   S    
H48   O21   S    
H41   O15   S    
C9    C100  A    
C20   O12   S    
N18   N24   A    
C25   C27   S    
N20   Ni8   S    
C13   H12   S    
C84   N8    A    
C16   H15   S    
C75   Cl15  S    
N17   Ni8   S    
N16   Ni7   S    
C66   C80   A    
C96   N11   A    
N13   Ni4   S    
H32   O6    S    
N28   Ni5   S    
C81   O14   S    
H44   O18   S    
N7    Ni4   S    
H31   O5    S    
N20   N26   A    
C7    C97   A    
C56   C61   A    
C64   C78   A    
C18   H17   S    
C18   C27   S    
C19   H45   S    
C66   Cl8   S    
C22   H55   S    
C24   H23   S    
C3    N17   A    
H52   O26   S    
C60   C85   S    
C64   Cl6   S    
C20   H53   S    
C9    C29   S    
C34   Cl21  S    
C64   C69   A    
C62   C87   S    
C33   Cl13  S    
N21   N25   A    
C1    C85   A    
C68   N20   A    
H25   O30   S    
C33   C87   A    
C94   N9    A    
C5    H13   S    
C23   O29   S    
C4    C14   A    
C42   O2    S    
C69   O10   S    
C32   C88   A    
C72   C89   S    
C25   O31   S    
C11   C90   A    
N5    N6    A    
N32   Ni6   S    
C45   C50   A    
C8    C28   S    
C79   H8    S    
C41   O32   S    
N27   Ni4   S    
C76   Cl16  S    
C31   Cl10  S    
C54   H56   S    
C17   H16   S    
C84   C93   A    
C71   O13   S    
H30   O4    S    
N9    N10   A    
C33   N31   A    
C24   C87   A    
C50   C56   A    
C35   H34   S    
C27   C93   S    
C63   Cl5   S    
H33   O7    S    
C25   C36   S    
C97   O21   S    
H37   O10   S    
N2    Ni5   S    
C48   C52   A    
C83   O16   S    
C67   O9    S    
N22   Ni2   S    
C38   Cl2   S    
C6    C95   A    
C10   C45   S    
C97   N13   A    
C41   C45   A    
H36   O9    S    
C50   O5    S    
N7    N8    A    
H42   O16   S    
C11   C57   A    
C75   N2    A    
C18   Cl19  S    
C65   Cl7   S    
N15   Ni6   S    
C43   O3    S    
C7    C80   S    
C90   N22   A    
C63   C78   A    
C74   Cl14  S    
