data_mof_unit_63789.cif
_audit_creation_date              2013-03-05T17:03:33-0500
_audit_creation_method            fapswitch 2.2
_symmetry_space_group_name_H-M    P1
_symmetry_Int_Tables_number       1
_space_group_crystal_system       triclinic
_cell_length_a                    23.746774
_cell_length_b                    23.752296
_cell_length_c                    16.120484
_cell_angle_alpha                 90.005714
_cell_angle_beta                  95.896364
_cell_angle_gamma                 89.9922
_cell_volume                      9044.49831521

loop_
_atom_site_label
_atom_site_type_symbol
_atom_site_description
_atom_site_fract_x
_atom_site_fract_y
_atom_site_fract_z
_atom_type_partial_charge
O1    O     O_R   0.554580 0.058040 0.577230 -0.586369
O2    O     O_R   0.445420 0.941960 0.422770 -0.586368
O3    O     O_R   0.445420 0.058040 0.422770 -0.595669
O4    O     O_R   0.554580 0.941960 0.577230 -0.595668
O5    O     O_R   0.054580 0.558040 0.577230 -0.586332
O6    O     O_R   0.945420 0.441960 0.422770 -0.586592
O7    O     O_R   0.945420 0.558040 0.422770 -0.595616
O8    O     O_R   0.054580 0.441960 0.577230 -0.595690
O9    O     O_R   0.560810 0.058060 0.438340 -0.568099
O10   O     O_R   0.439190 0.941940 0.561660 -0.568089
O11   O     O_R   0.439190 0.058060 0.561660 -0.569203
O12   O     O_R   0.560810 0.941940 0.438340 -0.569188
O13   O     O_R   0.060810 0.558060 0.438340 -0.568367
O14   O     O_R   0.939190 0.441940 0.561660 -0.568177
O15   O     O_R   0.939190 0.558060 0.561660 -0.569107
O16   O     O_R   0.060810 0.441940 0.438340 -0.568836
C1    C     C_R   0.576047 0.076827 0.512458 1.031966
C2    C     C_R   0.423954 0.923173 0.487543 1.031977
C3    C     C_R   0.424112 0.076930 0.487589 1.029964
C4    C     C_R   0.575887 0.923069 0.512411 1.029948
C5    C     C_R   0.076042 0.576830 0.512456 1.031875
C6    C     C_R   0.923960 0.423168 0.487544 1.031898
C7    C     C_R   0.924102 0.576923 0.487586 1.029862
C8    C     C_R   0.075890 0.423071 0.512412 1.030020
Zn1   Zn    Zn3+2 0.495820 0.000000 0.592740 1.121685
Zn2   Zn    Zn3+2 0.504180 0.000000 0.407260 1.121685
Zn3   Zn    Zn3+2 0.995820 0.500000 0.592740 1.121657
Zn4   Zn    Zn3+2 0.004180 0.500000 0.407260 1.121636
C9    C     C_R   0.619408 0.880304 0.523508 -0.326961
C10   C     C_R   0.380581 0.119684 0.476487 -0.326960
C11   C     C_R   0.379956 0.880805 0.476337 -0.326458
C12   C     C_R   0.620049 0.119189 0.523666 -0.326460
C13   C     C_R   0.119429 0.380324 0.523515 -0.326996
C14   C     C_R   0.880533 0.619642 0.476475 -0.326982
C15   C     C_R   0.879985 0.380779 0.476343 -0.326372
C16   C     C_R   0.120025 0.619210 0.523659 -0.326510
C17   C     C_R   0.666889 0.886379 0.479725 0.622643
C18   C     C_R   0.333093 0.113588 0.520246 0.622605
C19   C     C_R   0.333792 0.885817 0.523175 0.624867
C20   C     C_R   0.666215 0.114171 0.476833 0.624843
C21   C     C_R   0.166903 0.386416 0.479723 0.622711
C22   C     C_R   0.833098 0.613569 0.520356 0.622695
C23   C     C_R   0.833795 0.385796 0.523126 0.624723
C24   C     C_R   0.166214 0.614190 0.476873 0.624783
C25   C     C_R   0.708816 0.846103 0.487301 -0.206611
C26   C     C_R   0.291150 0.153848 0.512656 -0.206606
C27   C     C_R   0.291606 0.845828 0.515617 -0.208967
C28   C     C_R   0.708408 0.154152 0.484401 -0.208951
C29   C     C_R   0.208853 0.346163 0.487310 -0.206701
C30   C     C_R   0.791126 0.653797 0.512754 -0.206638
C31   C     C_R   0.791627 0.345788 0.515571 -0.208904
C32   C     C_R   0.208388 0.654191 0.484438 -0.208891
C33   C     C_R   0.703365 0.798375 0.537219 0.097687
C34   C     C_R   0.296595 0.201583 0.462750 0.097686
C35   C     C_R   0.295417 0.799442 0.462530 0.098594
C36   C     C_R   0.704603 0.200536 0.537493 0.098597
C37   C     C_R   0.203430 0.298438 0.537245 0.097706
C38   C     C_R   0.796485 0.701481 0.462709 0.097693
C39   C     C_R   0.795484 0.299379 0.462542 0.098594
C40   C     C_R   0.204541 0.700594 0.537481 0.098582
C41   C     C_R   0.657815 0.793406 0.585902 0.213370
C42   C     C_R   0.342154 0.206573 0.414088 0.213364
C43   C     C_R   0.339376 0.795747 0.410724 0.211523
C44   C     C_R   0.660643 0.204237 0.589296 0.211520
C45   C     C_R   0.157887 0.293455 0.585942 0.213332
C46   C     C_R   0.841979 0.706434 0.413914 0.213247
C47   C     C_R   0.839474 0.295671 0.410795 0.211568
C48   C     C_R   0.160553 0.704302 0.589234 0.211573
C49   C     C_R   0.615072 0.834632 0.578797 0.156117
C50   C     C_R   0.384911 0.165361 0.421204 0.156114
C51   C     C_R   0.382405 0.836654 0.417895 0.153682
C52   C     C_R   0.617606 0.163337 0.582115 0.153692
C53   C     C_R   0.115124 0.334662 0.578831 0.156113
C54   C     C_R   0.884767 0.665253 0.421047 0.156030
C55   C     C_R   0.882485 0.336597 0.417962 0.153900
C56   C     C_R   0.117534 0.663385 0.582051 0.153620
N1    N     N_2   0.741177 0.752959 0.534812 -0.076606
N2    N     N_2   0.258774 0.246993 0.465158 -0.076573
N3    N     N_2   0.257639 0.753997 0.464669 -0.076558
N4    N     N_2   0.742386 0.245978 0.535355 -0.076540
N5    N     N_2   0.241253 0.253030 0.534835 -0.076558
N6    N     N_2   0.758656 0.746886 0.465114 -0.076520
N7    N     N_2   0.757711 0.253930 0.464681 -0.076581
N8    N     N_2   0.242316 0.746042 0.535345 -0.076572
H1    H     H_    0.255028 0.148744 0.547920 0.240952
H2    H     H_    0.744932 0.851190 0.452020 0.240918
H3    H     H_    0.743406 0.149952 0.446693 0.240720
H4    H     H_    0.256609 0.850023 0.553327 0.240713
H5    H     H_    0.755051 0.648712 0.548119 0.241007
H6    H     H_    0.244962 0.351265 0.452020 0.240965
H7    H     H_    0.243406 0.649991 0.446767 0.240694
H8    H     H_    0.756608 0.349988 0.553237 0.240680
N9    N     N_R   0.509690 0.000000 0.283730 -0.187555
N10   N     N_R   0.490310 1.000000 0.716270 -0.187553
N11   N     N_R   0.009690 0.500000 0.283730 -0.187642
N12   N     N_R   0.990310 0.500000 0.716270 -0.187574
C57   C     C_R   0.460848 0.005866 0.231628 0.327890
C58   C     C_R   0.539152 0.994135 0.768372 0.327897
C59   C     C_R   0.960788 0.505481 0.231662 0.328145
C60   C     C_R   0.039141 0.494184 0.768404 0.327828
C61   C     C_R   0.462421 0.011742 0.144612 0.101152
C62   C     C_R   0.537580 0.988259 0.855387 0.101152
C63   C     C_R   0.962279 0.511344 0.144640 0.101224
C64   C     C_R   0.037542 0.488328 0.855419 0.101323
C65   C     C_R   0.515177 0.008979 0.110768 0.100163
C66   C     C_R   0.484823 0.991020 0.889233 0.100163
C67   C     C_R   0.015040 0.509045 0.110747 0.100186
C68   C     C_R   0.984764 0.491043 0.889210 0.100031
C69   C     C_R   0.565079 0.004348 0.166730 0.171148
C70   C     C_R   0.434921 0.995650 0.833271 0.171150
C71   C     C_R   0.064997 0.504817 0.166682 0.171231
C72   C     C_R   0.934879 0.495616 0.833210 0.171028
C73   C     C_R   0.560836 0.999215 0.253017 -0.069273
C74   C     C_R   0.439164 0.000783 0.746983 -0.069287
C75   C     C_R   0.060827 0.499620 0.252979 -0.069385
C76   C     C_R   0.939150 0.500748 0.746936 -0.069171
N13   N     N_2   0.519714 0.011673 0.022524 -0.031444
N14   N     N_2   0.480287 0.988326 0.977476 -0.031443
N15   N     N_2   0.019536 0.511802 0.022494 -0.031527
N16   N     N_2   0.980199 0.488323 0.977438 -0.031465
H9    H     H_    0.598697 0.996365 0.296287 0.257277
H10   H     H_    0.401302 0.003632 0.703713 0.257272
H11   H     H_    0.098723 0.497057 0.296231 0.257321
H12   H     H_    0.901298 0.503556 0.703640 0.257325
F1    F     F_    0.327111 0.068333 0.570155 -0.571167
F2    F     F_    0.672877 0.931627 0.429807 -0.571171
F3    F     F_    0.670721 0.070241 0.423910 -0.571898
F4    F     F_    0.329280 0.929748 0.576093 -0.571876
F5    F     F_    0.827194 0.568366 0.570396 -0.571187
F6    F     F_    0.172865 0.431659 0.429783 -0.571007
F7    F     F_    0.170759 0.570240 0.423999 -0.571972
F8    F     F_    0.829241 0.429752 0.575988 -0.571934
N17   N     N_R   0.652902 0.744318 0.636945 0.259479
O17   O     O_R   0.605132 0.717241 0.634667 -0.237733
O18   O     O_R   0.697035 0.724475 0.682093 -0.268329
N18   N     N_R   0.347062 0.255667 0.363057 0.259471
O19   O     O_R   0.394824 0.282759 0.365356 -0.237754
O20   O     O_R   0.302929 0.275501 0.317897 -0.268344
N19   N     N_R   0.342440 0.748208 0.356023 0.258716
O21   O     O_R   0.389982 0.721448 0.352739 -0.236777
O22   O     O_R   0.297027 0.729510 0.312691 -0.272004
N20   N     N_R   0.657586 0.251774 0.644002 0.258711
O23   O     O_R   0.610048 0.278539 0.647289 -0.236786
O24   O     O_R   0.703001 0.270463 0.687336 -0.272002
N21   N     N_R   0.153002 0.244373 0.637005 0.259467
O25   O     O_R   0.105244 0.217277 0.634755 -0.237736
O26   O     O_R   0.197149 0.224554 0.682148 -0.268278
N22   N     N_R   0.846790 0.755462 0.362712 0.259435
O27   O     O_R   0.894541 0.782551 0.364744 -0.237720
O28   O     O_R   0.802591 0.775233 0.317636 -0.268284
N23   N     N_R   0.842588 0.248100 0.356169 0.258736
O29   O     O_R   0.890142 0.221338 0.353010 -0.236831
O30   O     O_R   0.797206 0.229373 0.312792 -0.272010
N24   N     N_R   0.157452 0.751861 0.643886 0.258716
O31   O     O_R   0.109899 0.778615 0.647094 -0.236828
O32   O     O_R   0.202842 0.770582 0.687247 -0.272061
N25   N     N_R   0.567286 0.829468 0.626207 0.268176
O33   O     O_R   0.574964 0.822118 0.706558 -0.234477
O34   O     O_R   0.516076 0.829170 0.588755 -0.332799
N26   N     N_R   0.432703 0.170542 0.373809 0.268176
O35   O     O_R   0.425033 0.177899 0.293459 -0.234475
O36   O     O_R   0.483910 0.170842 0.411274 -0.332788
N27   N     N_R   0.428520 0.832749 0.367084 0.269944
O37   O     O_R   0.418505 0.829573 0.286340 -0.240397
O38   O     O_R   0.480441 0.829661 0.401498 -0.321614
N28   N     N_R   0.571491 0.167247 0.632925 0.269945
O39   O     O_R   0.581506 0.170417 0.713670 -0.240393
O40   O     O_R   0.519571 0.170342 0.598509 -0.321586
N29   N     N_R   0.067353 0.329489 0.626270 0.268191
O41   O     O_R   0.075053 0.322157 0.706623 -0.234492
O42   O     O_R   0.016135 0.329168 0.588844 -0.332666
N30   N     N_R   0.932489 0.670397 0.373510 0.268180
O43   O     O_R   0.924719 0.677533 0.293121 -0.234803
O44   O     O_R   0.983727 0.670852 0.410862 -0.332428
N31   N     N_R   0.928635 0.332677 0.367215 0.269991
O45   O     O_R   0.918663 0.329384 0.286475 -0.239990
O46   O     O_R   0.980545 0.329670 0.401692 -0.321809
N32   N     N_R   0.071382 0.667306 0.632791 0.269914
O47   O     O_R   0.081347 0.670520 0.713538 -0.240378
O48   O     O_R   0.019477 0.670359 0.598304 -0.321843
N33   N     N_R   0.592175 0.990957 0.734005 0.247065
O49   O     O_R   0.619513 0.037172 0.721929 -0.297555
O50   O     O_R   0.619310 0.943318 0.736021 -0.293201
N34   N     N_R   0.407825 0.009046 0.265995 0.247065
O51   O     O_R   0.380486 0.962833 0.278073 -0.297554
O52   O     O_R   0.380692 0.056686 0.263977 -0.293213
N35   N     N_R   0.092178 0.491029 0.734071 0.247065
O53   O     O_R   0.119498 0.537255 0.721996 -0.297495
O54   O     O_R   0.119328 0.443399 0.736085 -0.293187
N36   N     N_R   0.907762 0.508324 0.266065 0.246930
O55   O     O_R   0.880450 0.555858 0.264313 -0.293610
O56   O     O_R   0.880569 0.461952 0.277714 -0.297161
N37   N     N_R   0.588768 0.975436 0.907428 0.268001
O57   O     O_R   0.590921 0.931605 0.956085 -0.260100
O58   O     O_R   0.634613 0.004472 0.901302 -0.200199
N38   N     N_R   0.411233 0.024566 0.092571 0.268001
O59   O     O_R   0.409081 0.068396 0.043914 -0.260113
O60   O     O_R   0.365387 0.995531 0.098698 -0.200204
N39   N     N_R   0.088726 0.475570 0.907517 0.267987
O61   O     O_R   0.090887 0.431793 0.956281 -0.260358
O62   O     O_R   0.134559 0.504620 0.901368 -0.200184
N40   N     N_R   0.910968 0.523726 0.092652 0.267834
O63   O     O_R   0.908319 0.567716 0.044278 -0.259705
O64   O     O_R   0.865454 0.494129 0.098632 -0.200184
N41   N     N_R   0.620204 0.005651 0.137290 0.269497
O65   O     O_R   0.662765 0.980588 0.179305 -0.240287
O66   O     O_R   0.629813 0.037764 0.074932 -0.233947
N42   N     N_R   0.379797 0.994345 0.862711 0.269497
O67   O     O_R   0.337235 0.019407 0.820695 -0.240302
O68   O     O_R   0.370189 0.962232 0.925070 -0.233950
N43   N     N_R   0.120100 0.506578 0.137200 0.269452
O69   O     O_R   0.162901 0.481940 0.179289 -0.240206
O70   O     O_R   0.129394 0.538686 0.074683 -0.234240
N44   N     N_R   0.879745 0.494231 0.862599 0.269442
O71   O     O_R   0.837195 0.519356 0.820654 -0.240220
O72   O     O_R   0.870113 0.461941 0.924751 -0.233621

loop_
_geom_bond_atom_site_label_1
_geom_bond_atom_site_label_2
_geom_bond_distance
_ccdc_geom_bond_type
O16   Zn4   1.955113 S    
C59   C63   1.413815 A    
N25   O33   1.301162 A    
C17   C25   1.377012 A    
O2    C2    1.287936 A    
C40   N8    1.406329 S    
N29   O41   1.301163 A    
C68   N16   1.438935 S    
N27   O37   1.301112 A    
C14   C22   1.397808 A    
C72   C76   1.410113 A    
C29   H6    1.083454 S    
C44   C52   1.406238 A    
O4    Zn1   1.995277 S    
N10   C74   1.357987 A    
C41   N17   1.438765 S    
N31   O46   1.301069 A    
C5    C16   1.448555 S    
N17   O18   1.301305 A    
N41   O65   1.301493 A    
C24   F7    1.358898 S    
C6    C15   1.448562 S    
O11   C3    1.291165 A    
N36   O55   1.300846 A    
N40   O64   1.301238 A    
C32   C40   1.403621 A    
Zn4   N11   2.009024 S    
C27   C35   1.403618 A    
C23   F8    1.358900 S    
N27   O38   1.301066 A    
C39   N7    1.406322 S    
C48   N24   1.439030 S    
C38   N6    1.406568 S    
N3    N8    1.245545 D    
N11   C59   1.367368 A    
C12   C52   1.414827 A    
N10   C58   1.367439 A    
C46   C54   1.406452 A    
C60   C64   1.413993 A    
C29   C37   1.403963 A    
N34   O51   1.300187 A    
C10   C18   1.397783 A    
C20   C28   1.376852 A    
C42   N18   1.438765 S    
C14   C54   1.414514 A    
C16   C56   1.414807 A    
C39   C47   1.404964 A    
O5    Zn3   1.995573 S    
C33   C41   1.405108 A    
N39   O61   1.301391 A    
C38   C46   1.405131 A    
O6    Zn4   1.995574 S    
N43   O69   1.301564 A    
N11   C75   1.357992 A    
N42   O67   1.301493 A    
N37   O58   1.301128 A    
C35   C43   1.404973 A    
C49   N25   1.437036 S    
N23   O29   1.301319 A    
C36   C44   1.404971 A    
O13   Zn4   1.955299 S    
O3    C3    1.287500 A    
C72   N44   1.437749 S    
O14   Zn3   1.955301 S    
C15   C23   1.398573 A    
C70   C74   1.410227 A    
C46   N22   1.438783 S    
C26   C34   1.403960 A    
C61   N38   1.436863 S    
C69   C73   1.410226 A    
C26   H1    1.083454 S    
C24   C32   1.376857 A    
Zn2   N9    2.009024 S    
O15   C7    1.291179 A    
C25   C33   1.403946 A    
Zn1   N10   2.009025 S    
O16   C8    1.291174 A    
C66   N14   1.439023 S    
N28   O40   1.301067 A    
N29   O42   1.300982 A    
C42   C50   1.406459 A    
C65   N13   1.439024 S    
Zn3   N12   2.009025 S    
C67   C71   1.417993 A    
N4    N7    1.245543 D    
C21   C29   1.377006 A    
N21   O26   1.301305 A    
N30   O44   1.300995 A    
O9    Zn2   1.955299 S    
N21   O25   1.301321 A    
C9    C49   1.414535 A    
C4    C9    1.446939 S    
N41   O66   1.300657 A    
C61   C65   1.418413 A    
N33   O50   1.300823 A    
C75   H11   1.082012 S    
N40   O63   1.301482 A    
C47   N23   1.439022 S    
C30   C38   1.403971 A    
N32   O47   1.301113 A    
C60   N35   1.428746 S    
N22   O27   1.301324 A    
N38   O60   1.301128 A    
N44   O72   1.300652 A    
C45   C53   1.406461 A    
N44   O71   1.301484 A    
N18   O19   1.301321 A    
C34   C42   1.405116 A    
N33   O49   1.300186 A    
C20   F3    1.358899 S    
C55   N31   1.436344 S    
O7    Zn4   1.995276 S    
C68   C72   1.417858 A    
O12   Zn2   1.955113 S    
O5    C5    1.287933 A    
N26   O36   1.300980 A    
C33   N1    1.406521 S    
C52   N28   1.436318 S    
C31   H8    1.083475 S    
C35   N3    1.406347 S    
C30   H5    1.083452 S    
O15   Zn3   1.955111 S    
N31   O45   1.301123 A    
C11   C19   1.398587 A    
N15   N16   1.253719 D    
C7    C14   1.446989 S    
C15   C55   1.414843 A    
O12   C4    1.291164 A    
N18   O20   1.301307 A    
C28   H3    1.083474 S    
O13   C5    1.291608 A    
O2    Zn2   1.995574 S    
N9    C73   1.357989 A    
O9    C1    1.291629 A    
C69   N41   1.437850 S    
N24   O31   1.301317 A    
C51   N27   1.436316 S    
C22   C30   1.377003 A    
N22   O28   1.301308 A    
O10   Zn1   1.955301 S    
C13   C53   1.414536 A    
N43   O70   1.300718 A    
C43   C51   1.406238 A    
C12   C20   1.398585 A    
N17   O17   1.301322 A    
C1    C12   1.448589 S    
C64   N39   1.436910 S    
N20   O24   1.301318 A    
C16   C24   1.398571 A    
C47   C55   1.406240 A    
C45   N21   1.438768 S    
C62   N37   1.436863 S    
N9    C57   1.367438 A    
C64   C68   1.418418 A    
C18   F1    1.358899 S    
N30   O43   1.301170 A    
C57   N34   1.428753 S    
C19   C27   1.376851 A    
C17   F2    1.358898 S    
C66   C70   1.417932 A    
C41   C49   1.406454 A    
C28   C36   1.403623 A    
C65   C69   1.417931 A    
N36   O56   1.300226 A    
C19   F4    1.358901 S    
C76   H12   1.081963 S    
N24   O32   1.301318 A    
O3    Zn2   1.995276 S    
C37   C45   1.405116 A    
N38   O59   1.301383 A    
C36   N4    1.406348 S    
C59   N36   1.428688 S    
N32   O48   1.301070 A    
N19   O21   1.301315 A    
O1    Zn1   1.995573 S    
O4    C4    1.287505 A    
C43   N19   1.439034 S    
C48   C56   1.406233 A    
C73   H9    1.081967 S    
C56   N32   1.436313 S    
C8    C13   1.446947 S    
C67   N15   1.439077 S    
C63   C67   1.418405 A    
C13   C21   1.397791 A    
N26   O35   1.301163 A    
O14   C6    1.291618 A    
C58   N33   1.428753 S    
C25   H2    1.083456 S    
C63   N40   1.436551 S    
N35   O53   1.300190 A    
N42   O68   1.300657 A    
C58   C62   1.413981 A    
N13   N14   1.253743 D    
C27   H4    1.083475 S    
C18   C26   1.377010 A    
C71   C75   1.410204 A    
N19   O22   1.301317 A    
N2    N5    1.245499 D    
C23   C31   1.376853 A    
C21   F6    1.358901 S    
N28   O39   1.301114 A    
C44   N20   1.439036 S    
N1    N6    1.245502 D    
O10   C2    1.291626 A    
O7    C7    1.287520 A    
N12   C60   1.367409 A    
C11   C51   1.414823 A    
O8    C8    1.287501 A    
N34   O52   1.300825 A    
C62   C66   1.418414 A    
C22   F5    1.358896 S    
C50   N26   1.437039 S    
N23   O30   1.301320 A    
C37   N5    1.406552 S    
C71   N43   1.437939 S    
N35   O54   1.300822 A    
C74   H10   1.081965 S    
C10   C50   1.414528 A    
C31   C39   1.403612 A    
O1    C1    1.287932 A    
C40   C48   1.404973 A    
N25   O34   1.300980 A    
N37   O57   1.301384 A    
C9    C17   1.397788 A    
N39   O62   1.301126 A    
O8    Zn3   1.995277 S    
O11   Zn1   1.955111 S    
N20   O23   1.301316 A    
N12   C76   1.357963 A    
C32   H7    1.083474 S    
C70   N42   1.437851 S    
C2    C11   1.448592 S    
C3    C10   1.446928 S    
C53   N29   1.437040 S    
C54   N30   1.436994 S    
C57   C61   1.413983 A    
C34   N2    1.406543 S    
O6    C6    1.287924 A    
