data_mof_unit_11023.cif
_audit_creation_date              2012-12-10T18:58:10-0500
_audit_creation_method            fapswitch 2.2
_symmetry_space_group_name_H-M    P1
_symmetry_Int_Tables_number       1
_space_group_crystal_system       triclinic
_cell_length_a                    10.662864
_cell_length_b                    9.960349
_cell_length_c                    15.745312
_cell_angle_alpha                 91.063483
_cell_angle_beta                  91.483275
_cell_angle_gamma                 89.327869
_cell_volume                      1671.29002483

loop_
_atom_site_label
_atom_site_type_symbol
_atom_type_description
_atom_site_fract_x
_atom_site_fract_y
_atom_site_fract_z
_atom_type_partial_charge
C1    C     C_R   0.871895 0.498285 0.499901 -0.077491
C2    C     C_R   0.128189 0.501730 0.499967 -0.081585
C3    C     C_R   0.260874 0.500640 0.499924 1.010270
C4    C     C_R   0.739140 0.499358 0.499959 0.998465
C5    C     C_R   0.500129 0.498837 0.339361 1.003829
C6    C     C_R   0.501852 0.501171 0.660761 1.011476
C7    C     C_R   0.551585 0.627239 0.960272 0.364413
C8    C     C_R   0.574801 0.381291 0.043542 0.338981
C9    C     C_R   0.549056 0.624747 0.048662 0.362505
C10   C     C_R   0.561841 0.381363 0.955263 0.374956
C11   C     C_R   0.549736 0.505060 0.913985 -0.274348
C12   C     C_R   0.552811 0.500711 0.089072 -0.293924
C13   C     C_1   0.532045 0.505881 0.824643 0.122501
C14   C     C_1   0.531610 0.496301 0.177118 0.161810
C15   C     C_1   0.514242 0.496124 0.251179 -0.028863
C16   C     C_1   0.516232 0.504092 0.749677 -0.032576
C17   C     C_R   0.566845 0.072453 0.560921 -0.009849
C18   C     C_R   0.433137 0.927552 0.438864 -0.017764
C19   C     C_R   0.433741 0.071709 0.439007 -0.027443
C20   C     C_R   0.567328 0.928446 0.560275 -0.006632
C21   C     C_R   0.068593 0.472033 0.576058 -0.090136
C22   C     C_R   0.931466 0.527329 0.423798 -0.075731
C23   C     C_R   0.938232 0.470893 0.576141 -0.110559
C24   C     C_R   0.061797 0.529505 0.423694 -0.117333
N1    N     N_R   0.500000 0.857200 0.500000 -0.169162
N2    N     N_R   0.500000 0.142800 0.500000 -0.170878
O1    O     O_R   0.316770 0.614620 0.499990 -0.640110
O2    O     O_R   0.683230 0.385380 0.500010 -0.643301
O3    O     O_R   0.683230 0.614620 0.500010 -0.652896
O4    O     O_R   0.316770 0.385380 0.499990 -0.650933
O5    O     O_R   0.499980 0.614630 0.378020 -0.656223
O6    O     O_R   0.500020 0.385370 0.621980 -0.640474
O7    O     O_R   0.500020 0.614630 0.621980 -0.568255
O8    O     O_R   0.499980 0.385370 0.378020 -0.576169
Zn1   Zn    Zn3+2 0.500000 0.653120 0.500000 0.978833
Zn2   Zn    Zn3+2 0.500000 0.346880 0.500000 0.980957
C25   C     C_2   0.641896 0.146837 0.626084 0.424976
H1    H     H_    0.703078 0.226214 0.608229 0.095247
O9    O     O_2   0.634944 0.121058 0.701249 -0.569320
C26   C     C_2   0.356008 0.853156 0.374534 0.406052
H2    H     H_    0.299959 0.769886 0.392481 0.110333
O10   O     O_2   0.354613 0.883586 0.299817 -0.538874
C27   C     C_2   0.357287 0.146706 0.376270 0.568834
H3    H     H_    0.271967 0.197652 0.395369 0.061658
O11   O     O_2   0.389870 0.152819 0.302695 -0.505395
C28   C     C_2   0.645702 0.853973 0.621916 0.544421
H4    H     H_    0.732548 0.806601 0.602390 0.061217
O12   O     O_2   0.612975 0.844565 0.695152 -0.543892
O13   O     O_3   0.537639 0.743441 0.095044 -0.534289
C29   C     C_3   0.655366 0.776197 0.133107 0.080823
H5    H     H_    0.707822 0.838722 0.088952 0.141968
H6    H     H_    0.715462 0.687231 0.149274 0.108351
C30   C     C_3   0.634576 0.855215 0.215187 -0.701872
H7    H     H_    0.587266 0.791307 0.261252 0.272714
H8    H     H_    0.726186 0.886814 0.243594 0.175605
H9    H     H_    0.575480 0.945546 0.202496 0.308941
O14   O     O_3   0.569312 0.261267 0.909794 -0.575674
C31   C     C_3   0.446843 0.215645 0.888516 0.100998
H10   H     H_    0.452545 0.152590 0.829845 0.208921
H11   H     H_    0.378706 0.298279 0.873596 0.121765
C32   C     C_3   0.395888 0.129186 0.958600 -0.718565
H12   H     H_    0.376090 0.191902 0.015787 0.262008
H13   H     H_    0.307084 0.081743 0.936060 0.208623
H14   H     H_    0.464444 0.048992 0.975907 0.298547
O15   O     O_3   0.552039 0.749570 0.920192 -0.558347
C33   C     C_3   0.676713 0.778200 0.898245 0.103754
H15   H     H_    0.697936 0.728875 0.836309 0.210540
H16   H     H_    0.748100 0.743682 0.946480 0.081011
C34   C     C_3   0.690974 0.929186 0.890272 -0.635739
H17   H     H_    0.682471 0.979142 0.953516 0.234381
H18   H     H_    0.784541 0.951729 0.865032 0.205816
H19   H     H_    0.617308 0.969673 0.846516 0.314849
O16   O     O_3   0.607933 0.264590 0.085064 -0.555747
C35   C     C_3   0.738293 0.269986 0.103973 0.138227
H20   H     H_    0.763667 0.362636 0.141089 0.154644
H21   H     H_    0.792395 0.266264 0.044334 0.141536
C36   C     C_3   0.777766 0.150832 0.157289 -0.772954
H22   H     H_    0.762895 0.057073 0.119795 0.234607
H23   H     H_    0.878871 0.158006 0.175322 0.215960
H24   H     H_    0.722237 0.149303 0.215974 0.280214
C37   C     C_2   0.141513 0.449503 0.656585 0.370554
H25   H     H_    0.118449 0.367376 0.697424 0.046278
O17   O     O_2   0.224796 0.526004 0.679403 -0.586712
C38   C     C_2   0.858260 0.546651 0.343186 0.341045
H26   H     H_    0.875352 0.632256 0.303688 0.041737
O18   O     O_2   0.781698 0.463462 0.318933 -0.607179
C39   C     C_2   0.872402 0.448777 0.656939 0.338822
H27   H     H_    0.903314 0.369775 0.699325 0.068564
O19   O     O_2   0.785970 0.522178 0.678234 -0.605245
C40   C     C_2   0.127123 0.553765 0.342840 0.348883
H28   H     H_    0.091437 0.628696 0.299088 0.069410
O20   O     O_2   0.218600 0.486790 0.322904 -0.589393

loop_
_geom_bond_atom_site_label_1
_geom_bond_atom_site_label_2
_ccdc_geom_bond_type
C33   H16   S    
C39   H27   S    
C3    O4    A    
O16   C35   S    
C30   H8    S    
C6    O6    A    
C37   H25   S    
O14   C31   S    
C30   H7    S    
C7    C11   A    
C35   H21   S    
C17   N2    A    
O6    Zn2   S    
C38   O18   D    
C36   H24   S    
C33   C34   S    
C20   N1    A    
C31   H11   S    
C17   C20   A    
C34   H18   S    
C18   C19   A    
C32   H13   S    
C19   N2    A    
C18   C26   S    
C37   O17   D    
C35   C36   S    
C29   H6    S    
O8    Zn2   S    
C4    O3    A    
C31   C32   S    
C26   O10   D    
C33   H15   S    
C1    C22   A    
C23   C39   S    
C34   H17   S    
C18   N1    A    
C4    O2    A    
C19   C27   S    
C36   H23   S    
C28   O12   D    
C29   C30   S    
C35   H20   S    
C10   O14   S    
C9    O13   S    
C38   H26   S    
O1    Zn1   S    
C31   H10   S    
C36   H22   S    
C22   C38   S    
C34   H19   S    
C27   H3    S    
C25   H1    S    
C7    O15   S    
C40   O20   D    
C8    C12   A    
C5    O8    A    
C2    C21   A    
C29   H5    S    
C17   C25   S    
C27   O11   D    
N1    Zn1   S    
N2    Zn2   S    
C26   H2    S    
C21   C37   S    
C1    C23   A    
C21   C23   A    
C2    C24   A    
O5    Zn1   S    
C30   H9    S    
C7    C9    A    
C28   H4    S    
C12   C14   S    
C24   C40   S    
O3    Zn1   S    
C6    O7    A    
O4    Zn2   S    
C1    C4    S    
C3    O1    A    
C2    C3    S    
C25   O9    D    
C32   H14   S    
C11   C13   S    
C40   H28   S    
C8    O16   S    
O7    Zn1   S    
C22   C24   A    
O15   C33   S    
C32   H12   S    
C9    C12   A    
C5    C15   S    
C10   C11   A    
C6    C16   S    
O2    Zn2   S    
C8    C10   A    
O13   C29   S    
C13   C16   T    
C39   O19   D    
C14   C15   T    
C20   C28   S    
C5    O5    A    
