data_mof_unit_20022.cif
_audit_creation_date              2012-12-11T15:48:32-0500
_audit_creation_method            fapswitch 2.2
_symmetry_space_group_name_H-M    P1
_symmetry_Int_Tables_number       1
_space_group_crystal_system       triclinic
_cell_length_a                    10.942749
_cell_length_b                    11.088
_cell_length_c                    18.780291
_cell_angle_alpha                 90.00181
_cell_angle_beta                  89.946138
_cell_angle_gamma                 60.392541
_cell_volume                      1981.14672294

loop_
_atom_site_label
_atom_site_type_symbol
_atom_type_description
_atom_site_fract_x
_atom_site_fract_y
_atom_site_fract_z
_atom_type_partial_charge
C1    C     C_R   0.234689 0.646928 0.608597 0.602655
C2    C     C_3   0.599079 0.619002 0.800856 -0.301726
C3    C     C_3   0.699598 0.676375 0.811468 -0.037816
C4    C     C_3   0.673597 0.649016 0.675064 -0.003517
C5    C     C_3   0.833257 0.578451 0.695855 0.611577
C6    C     C_3   0.591183 0.593951 0.721026 -0.262021
C7    C     C_R   0.693335 0.137274 0.818902 0.049730
C8    C     C_R   0.809760 0.120410 0.779636 0.056273
C9    C     C_R   0.803509 0.127205 0.704905 0.002200
C10   C     C_R   0.584355 0.128188 0.707210 -0.042054
C11   C     C_R   0.580983 0.140351 0.780542 0.039218
C12   C     C_R   0.655582 0.622583 0.599967 0.584833
C13   C     C_3   0.876238 0.210119 0.781790 0.241663
C14   C     C_3   0.876601 0.209566 0.701276 -0.134407
C15   C     C_R   0.682925 0.145607 0.668245 0.024442
C16   C     C_R   0.146577 0.691945 0.828723 -0.001410
C17   C     C_R   0.169858 0.571659 0.794251 -0.036310
C18   C     C_R   0.185716 0.560331 0.720854 0.015918
C19   C     C_R   0.129240 0.798583 0.713466 0.383680
C20   C     C_R   0.119455 0.807629 0.787178 -0.073655
C21   C     C_3   0.286311 0.428707 0.806776 0.273288
C22   C     C_3   0.308066 0.418275 0.726916 0.265719
C23   C     C_R   0.631674 0.223041 0.601138 0.577837
C24   C     C_R   0.171861 0.671062 0.679364 0.095340
C25   C     C_R   0.653146 0.654819 0.164132 -0.052329
C26   C     C_R   0.753716 0.538875 0.202068 0.137584
C27   C     C_R   0.746256 0.531693 0.274479 -0.113427
C28   C     C_R   0.523113 0.740017 0.274471 0.314258
C29   C     C_R   0.529614 0.747321 0.199757 -0.149587
C30   C     C_3   0.910819 0.473358 0.205827 0.318918
C31   C     C_3   0.900590 0.464273 0.285521 -0.187789
C32   C     C_R   0.639088 0.637652 0.312999 0.006062
C33   C     C_R   0.647877 0.154233 0.175903 0.031451
C34   C     C_R   0.218823 0.649822 0.402635 0.565869
C35   C     C_R   0.595468 0.089597 0.220402 -0.052482
C36   C     C_R   0.600784 0.097384 0.293314 -0.029986
C37   C     C_R   0.721944 0.228067 0.279641 -0.090897
C38   C     C_R   0.715023 0.220669 0.205869 0.431630
C39   C     C_3   0.451262 0.107247 0.222388 -0.221223
C40   C     C_3   0.461398 0.105910 0.302661 -0.222242
C41   C     C_R   0.655918 0.174435 0.323967 -0.041389
C42   C     C_R   0.121592 0.690317 0.188703 -0.073110
C43   C     C_R   0.070790 0.808717 0.231554 0.035202
C44   C     C_R   0.072471 0.802607 0.304464 -0.112096
C45   C     C_R   0.636888 0.616818 0.389526 0.566878
C46   C     C_R   0.166462 0.555350 0.295612 0.325254
C47   C     C_R   0.161874 0.563448 0.221477 -0.154176
C48   C     C_3   0.101198 0.925789 0.230480 0.310056
C49   C     C_3   0.085844 0.930578 0.310699 -0.196560
C50   C     C_R   0.140595 0.672555 0.337048 0.028937
C51   C     C_R   0.703383 0.098552 0.894544 0.591177
C52   C     C_R   0.723082 0.688700 0.888209 0.579494
C53   C     C_R   0.109916 0.712115 0.903613 0.583120
C54   C     C_R   0.673586 0.108202 0.103260 0.587216
C55   C     C_R   0.694993 0.688003 0.096365 0.536087
C56   C     C_R   0.617829 0.229716 0.395044 0.545989
C57   C     C_R   0.089702 0.712226 0.113728 0.538178
C58   C     C_3   0.637629 0.819254 0.772337 0.687168
C59   C     C_3   0.608873 0.805367 0.692601 0.289966
C60   C     C_3   0.844334 0.577118 0.776581 -0.174778
Cr1   Cr    Cr6+3 0.392960 0.397920 0.502240 1.118339
Cr2   Cr    Cr6+3 0.398340 0.708480 0.501250 1.133995
Cr3   Cr    Cr6+3 0.708670 0.393570 0.496460 1.066579
Cr4   Cr    Cr6+3 0.937650 0.938540 0.007610 1.165621
Cr5   Cr    Cr6+3 0.625330 0.937370 0.994520 1.108351
Cr6   Cr    Cr6+3 0.937940 0.625230 0.001190 1.092735
H1    H     H_    0.629157 0.483153 0.712062 0.162695
H2    H     H_    0.495881 0.128027 0.681545 0.169585
H3    H     H_    0.807307 0.312179 0.806296 0.108054
H4    H     H_    0.810424 0.310380 0.676637 0.166271
H5    H     H_    0.092411 0.905143 0.811872 0.240677
H6    H     H_    0.443795 0.829564 0.170667 0.137887
H7    H     H_    0.946409 0.356306 0.305675 0.205468
H8    H     H_    0.930301 0.532061 0.315628 0.134726
H9    H     H_    0.447524 0.017448 0.200239 0.173180
H10   H     H_    0.380113 0.202415 0.327272 0.253007
H11   H     H_    0.473292 0.010572 0.327931 0.208343
H12   H     H_    0.656335 0.853108 0.658265 0.164447
H13   H     H_    0.178570 0.919533 0.339012 0.223558
H14   H     H_    0.921423 0.609573 0.791612 0.179300
H15   H     H_    0.634136 0.521933 0.831505 0.153217
H16   H     H_    0.478475 0.646961 0.705176 0.231424
O1    O     O_R   0.507380 0.255700 0.581440 -0.489809
O2    O     O_R   0.524480 0.695810 0.424040 -0.443533
O3    O     O_R   0.736390 0.504290 0.414790 -0.532587
O4    O     O_R   0.691300 0.277290 0.422170 -0.526048
O5    O     O_3   0.499990 0.499990 0.499980 -0.303006
O6    O     O_R   0.089400 0.825690 0.930570 -0.507612
O7    O     O_R   0.818460 0.054440 0.929850 -0.484403
O8    O     O_R   0.606060 0.077150 0.915510 -0.476120
O9    O     O_R   0.646550 0.806680 0.917570 -0.419350
O10   O     O_R   0.837170 0.593410 0.915250 -0.528915
O11   O     O_R   0.065200 0.635530 0.931570 -0.494257
O12   O     O_R   0.280320 0.527350 0.578930 -0.478790
O13   O     O_R   0.068260 0.828890 0.091840 -0.463838
O14   O     O_R   0.798870 0.057410 0.079340 -0.411538
O15   O     O_R   0.584930 0.080350 0.076780 -0.537779
O16   O     O_R   0.626960 0.809650 0.067060 -0.515177
O17   O     O_R   0.816040 0.596610 0.076510 -0.473698
O18   O     O_R   0.045610 0.638500 0.081060 -0.511998
O19   O     O_3   0.833640 0.833710 0.001100 -0.309307
O20   O     O_R   0.260510 0.739590 0.584590 -0.432931
O21   O     O_R   0.532300 0.695080 0.573820 -0.464169
O22   O     O_R   0.744840 0.503500 0.576370 -0.446628
O23   O     O_R   0.699120 0.276560 0.571960 -0.509343
O24   O     O_R   0.498940 0.256500 0.419860 -0.491839
O25   O     O_R   0.272500 0.528080 0.429150 -0.437350
O26   O     O_R   0.252060 0.740380 0.423010 -0.517017
F1    F     F_    0.736092 0.862748 0.777095 -0.671750
H17   H     H_    0.885627 0.469851 0.796932 0.157089
F2    F     F_    0.914902 0.443882 0.672131 -0.613090
H18   H     H_    0.490877 0.145594 0.807172 0.207351
F3    F     F_    0.010221 0.144060 0.810048 -0.594948
H19   H     H_    0.982891 0.152952 0.677444 0.272613
F4    F     F_    0.112072 0.910633 0.676593 -0.597489
F5    F     F_    0.513061 0.916450 0.804205 -0.567813
H20   H     H_    0.249867 0.358901 0.828873 0.113139
F6    F     F_    0.396342 0.427315 0.844036 -0.618916
F7    F     F_    0.430257 0.417920 0.707615 -0.653487
H21   H     H_    0.289983 0.338865 0.700540 0.125089
F8    F     F_    0.408037 0.836611 0.308762 -0.687733
H22   H     H_    0.947774 0.544843 0.188461 0.108992
F9    F     F_    0.978921 0.344313 0.173581 -0.520476
F10   F     F_    0.465214 0.876335 0.679461 -0.578574
H23   H     H_    0.769377 0.284898 0.301761 0.161078
F11   F     F_    0.772058 0.278854 0.163520 -0.535148
H24   H     H_    0.370576 0.209071 0.200599 0.176886
F12   F     F_    0.205895 0.431052 0.326073 -0.656310
H25   H     H_    0.190070 0.471368 0.190092 0.161950
F13   F     F_    0.998215 0.041686 0.197043 -0.547978
H26   H     H_    0.208842 0.894589 0.211448 0.159530
H27   H     H_    0.986326 0.020324 0.329839 0.151333
F14   F     F_    0.891867 0.653605 0.667036 -0.629801
H28   H     H_    0.492587 0.694532 0.821156 0.218167

loop_
_geom_bond_atom_site_label_1
_geom_bond_atom_site_label_2
_ccdc_geom_bond_type
C44   C49   S    
C8    C13   S    
C6    H16   S    
C58   F1    S    
C32   C45   S    
C45   O3    A    
C35   C36   A    
Cr5   O19   S    
C9    C14   S    
Cr5   O8    S    
C7    C8    A    
C22   H21   S    
C26   C27   A    
C21   F6    S    
C23   O1    A    
C47   H25   S    
C37   C41   A    
C18   C24   A    
C34   O25   A    
C46   F12   S    
C28   C29   A    
Cr5   O16   S    
C12   O22   A    
C10   C15   A    
C51   O8    A    
C30   C31   S    
C31   H7    S    
Cr2   O26   S    
C23   O23   A    
C33   C54   S    
C42   C57   S    
Cr6   O18   S    
C16   C53   S    
C21   H20   S    
Cr1   O5    S    
C19   F4    S    
C30   H22   S    
C16   C17   A    
Cr1   O12   S    
C48   H26   S    
C39   H9    S    
Cr3   O23   S    
C43   C48   S    
C54   O14   A    
C29   H6    S    
C3    C60   S    
C15   C23   S    
C27   C32   A    
C21   C22   S    
Cr3   O3    S    
C58   F5    S    
C14   H4    S    
Cr6   O19   S    
C48   F13   S    
C36   C41   A    
C2    C6    S    
Cr4   O7    S    
C59   H12   S    
C38   F11   S    
C7    C11   A    
C37   H23   S    
C25   C29   A    
C22   F7    S    
C49   H27   S    
C34   C50   S    
C39   H24   S    
C27   C31   S    
C36   C40   S    
Cr4   O14   S    
C12   O21   A    
C4    C6    S    
Cr1   O1    S    
C39   C40   S    
C28   F8    S    
C8    C9    A    
C31   H8    S    
Cr6   O10   S    
Cr4   O19   S    
C5    F2    S    
C58   C59   S    
C14   H19   S    
C57   O18   A    
C53   O11   A    
C17   C21   S    
C40   H10   S    
Cr6   O17   S    
C35   C39   S    
C43   C44   A    
C41   C56   S    
C37   C38   A    
C4    C59   S    
C56   O4    A    
C28   C32   A    
C16   C20   A    
C17   C18   A    
C5    F14   S    
C20   H5    S    
C2    H28   S    
Cr1   O24   S    
C56   O24   A    
Cr6   O11   S    
C48   C49   S    
C26   C30   S    
Cr3   O4    S    
C52   O10   A    
C45   O2    A    
C4    C12   S    
C42   C43   A    
C54   O15   A    
Cr2   O21   S    
C44   C50   A    
C59   F10   S    
Cr5   O9    S    
Cr2   O2    S    
C46   C47   A    
C60   H14   S    
C5    C60   S    
Cr3   O5    S    
C11   H18   S    
C18   C22   S    
C25   C55   S    
Cr4   O13   S    
Cr3   O22   S    
C52   O9    A    
C1    O12   A    
C3    C52   S    
C10   H2    S    
Cr2   O5    S    
C46   C50   A    
C33   C38   A    
C34   O26   A    
C19   C20   A    
C2    C3    S    
C25   C26   A    
C7    C51   S    
C6    H1    S    
C51   O7    A    
C13   H3    S    
C55   O16   A    
C33   C35   A    
C19   C24   A    
C53   O6    A    
C42   C47   A    
C9    C15   A    
Cr1   O25   S    
C60   H17   S    
C10   C11   A    
Cr5   O15   S    
C3    C58   S    
C49   H13   S    
C4    C5    S    
C30   F9    S    
C1    C24   S    
C57   O13   A    
C55   O17   A    
C40   H11   S    
C2    H15   S    
C13   C14   S    
C1    O20   A    
Cr4   O6    S    
C13   F3    S    
Cr2   O20   S    
