data_mof_unit_42148.cif
_audit_creation_date              2012-12-11T15:57:13-0500
_audit_creation_method            fapswitch 2.2
_symmetry_space_group_name_H-M    P1
_symmetry_Int_Tables_number       1
_space_group_crystal_system       triclinic
_cell_length_a                    17.695478
_cell_length_b                    24.467884
_cell_length_c                    15.206986
_cell_angle_alpha                 89.449826
_cell_angle_beta                  127.419868
_cell_angle_gamma                 90.476084
_cell_volume                      5228.91731364

loop_
_atom_site_label
_atom_site_type_symbol
_atom_type_description
_atom_site_fract_x
_atom_site_fract_y
_atom_site_fract_z
_atom_type_partial_charge
C1    C     C_R   0.348240 0.151964 0.906715 0.250966
C2    C     C_R   0.601679 0.121346 0.912902 -0.214963
C3    C     C_R   0.884258 0.315079 0.998933 0.074835
C4    C     C_R   0.571648 0.998846 0.371059 0.124697
C5    C     C_R   0.071652 0.498846 0.371061 0.124598
C6    C     C_R   0.179965 0.999279 0.746455 0.080172
C7    C     C_R   0.679965 0.499281 0.746456 0.080166
C8    C     C_R   0.454764 0.044532 0.695953 0.364691
C9    C     C_R   0.453008 0.954596 0.697202 0.333755
C10   C     C_R   0.954761 0.544531 0.695951 0.364657
C11   C     C_R   0.953010 0.454595 0.697204 0.333746
C12   C     C_R   0.763686 0.954049 0.300325 -0.112018
C13   C     C_R   0.101127 0.379304 0.912739 -0.215337
C14   C     C_R   0.763730 0.045444 0.301036 -0.104692
C15   C     C_R   0.263685 0.454049 0.300326 -0.112028
C16   C     C_R   0.263729 0.545443 0.301039 -0.104706
C17   C     C_3   0.313063 0.179422 0.797473 -0.549386
C18   C     C_3   0.338616 0.153725 0.729695 -0.776726
C19   C     C_3   0.326319 0.827330 0.794170 -0.408660
C20   C     C_3   0.398622 0.789680 0.800813 -0.930986
C21   C     C_3   0.813058 0.679421 0.797472 -0.549345
C22   C     C_3   0.838628 0.653729 0.729705 -0.776848
C23   C     C_3   0.826300 0.327336 0.794156 -0.408720
C24   C     C_R   0.101684 0.621343 0.912905 -0.214969
C25   C     C_3   0.898584 0.289685 0.800765 -0.930993
C26   C     C_3   0.012885 0.907002 0.692580 -0.315583
C27   C     C_3   0.920491 0.874703 0.638138 -0.859453
C28   C     C_3   0.014133 0.093422 0.686446 -0.341022
C29   C     C_3   0.921402 0.125138 0.630475 -0.832386
C30   C     C_3   0.512883 0.407011 0.692601 -0.315586
C31   C     C_3   0.420492 0.374709 0.638162 -0.859466
C32   C     C_3   0.514137 0.593429 0.686436 -0.341035
C33   C     C_3   0.421405 0.625146 0.630462 -0.832381
C34   C     C_3   0.975485 0.903276 0.440441 -0.335146
C35   C     C_R   0.447015 0.999051 0.637416 0.045069
C36   C     C_3   0.067584 0.870417 0.500682 -0.835165
C37   C     C_3   0.977589 0.093047 0.434623 -0.318915
C38   C     C_3   0.070202 0.125581 0.492628 -0.863367
C39   C     C_3   0.475481 0.403269 0.440460 -0.335166
C40   C     C_3   0.567576 0.370406 0.500713 -0.835157
C41   C     C_3   0.477591 0.593039 0.434612 -0.318889
C42   C     C_3   0.570205 0.625572 0.492614 -0.863365
C43   C     C_3   0.978019 0.202246 0.043308 -0.294089
C44   C     C_3   0.948637 0.156489 0.959425 -1.064176
C45   C     C_3   0.950241 0.791724 0.007813 -0.368371
C46   C     C_R   0.947017 0.499050 0.637417 0.045046
C47   C     C_3   0.031205 0.833608 0.071696 -0.764504
C48   C     C_3   0.478037 0.702252 0.043346 -0.294058
C49   C     C_3   0.448669 0.656496 0.959467 -1.064144
C50   C     C_3   0.450255 0.291721 0.007841 -0.368408
C51   C     C_3   0.531221 0.333604 0.071735 -0.764380
C52   C     C_3   0.520745 0.112031 0.440416 -0.365314
C53   C     C_3   0.584547 0.161892 0.502245 -0.826422
C54   C     C_3   0.556399 0.886187 0.480188 -0.318182
C55   C     C_3   0.633998 0.845186 0.561362 -0.848272
C56   C     C_3   0.020736 0.612029 0.440400 -0.365206
C57   C     C_R   0.816764 0.999591 0.356620 0.120726
C58   C     C_3   0.084538 0.661892 0.502212 -0.826455
C59   C     C_3   0.056412 0.386189 0.480196 -0.318099
C60   C     C_3   0.134025 0.345191 0.561361 -0.848269
C61   C     C_3   0.308530 0.043179 0.394982 -0.370237
C62   C     C_3   0.237675 0.040111 0.422189 -0.765560
C63   C     C_3   0.321981 0.939388 0.414564 -0.138321
C64   C     C_3   0.233445 0.927389 0.295067 -0.836377
C65   C     C_3   0.808511 0.543165 0.394964 -0.370037
C66   C     C_3   0.737690 0.540102 0.422220 -0.765073
C67   C     C_3   0.821991 0.439390 0.414542 -0.138292
C68   C     C_R   0.316762 0.499590 0.356624 0.120730
C69   C     C_3   0.733474 0.427434 0.295003 -0.835894
C70   C     C_R   0.688611 0.138213 0.007075 0.126118
C71   C     C_R   0.687628 0.861658 0.007477 0.085325
C72   C     C_R   0.188616 0.638210 0.007078 0.126121
C73   C     C_R   0.356842 0.846346 0.906597 0.227846
C74   C     C_R   0.187628 0.361657 0.007476 0.085354
C75   C     C_3   0.002512 0.954479 0.619478 0.146315
C76   C     C_3   0.003568 0.044717 0.616951 0.155104
C77   C     C_3   0.502510 0.454483 0.619489 0.146327
C78   C     C_3   0.503570 0.544720 0.616949 0.155120
C79   C     C_3   0.926185 0.999888 0.577437 -0.167684
C80   C     C_3   0.426185 0.499893 0.577443 -0.167698
C81   C     C_3   0.908808 0.999136 0.464704 -0.120368
C82   C     C_3   0.408807 0.499134 0.464708 -0.120366
C83   C     C_3   0.983152 0.953402 0.505881 0.069069
C84   C     C_R   0.848240 0.651965 0.906715 0.250958
C85   C     C_3   0.984348 0.044199 0.503455 0.063257
C86   C     C_3   0.483148 0.453399 0.505891 0.069076
C87   C     C_3   0.484349 0.544195 0.503452 0.063247
C88   C     C_3   0.056651 0.998517 0.543647 0.489036
C89   C     C_3   0.556649 0.498511 0.543649 0.489032
C90   C     C_R   0.444095 0.847314 0.091087 -0.207551
C91   C     C_R   0.436012 0.149183 0.091968 -0.161314
C92   C     C_R   0.944099 0.347312 0.091085 -0.207494
C93   C     C_R   0.936015 0.649184 0.091969 -0.161288
C94   C     C_3   0.078191 0.999307 0.658353 -0.146918
C95   C     C_R   0.856844 0.346346 0.906595 0.227876
C96   C     C_3   0.578190 0.499309 0.658357 -0.146922
C97   C     C_3   0.286052 0.782791 0.051996 0.379513
C98   C     C_3   0.285512 0.216147 0.067920 0.426662
C99   C     C_3   0.786065 0.282791 0.052006 0.379535
C100  C     C_3   0.785524 0.716150 0.067933 0.426664
C101  C     C_3   0.739231 0.233028 0.062549 -0.514253
C102  C     C_3   0.744547 0.767994 0.080064 -0.524861
C103  C     C_3   0.239222 0.733027 0.062541 -0.514223
C104  C     C_3   0.244536 0.267991 0.080053 -0.524864
C105  C     C_3   0.911476 0.216577 0.076167 0.472560
C106  C     C_R   0.690621 0.125144 0.096917 -0.097304
C107  C     C_3   0.900384 0.779701 0.062507 0.547558
C108  C     C_3   0.411479 0.716581 0.076185 0.472550
C109  C     C_3   0.400386 0.279698 0.062519 0.547567
C110  C     C_3   0.259069 0.744181 0.884023 -0.421498
C111  C     C_3   0.239853 0.248246 0.885020 -0.463149
C112  C     C_3   0.759060 0.244186 0.884017 -0.421472
C113  C     C_3   0.739847 0.748243 0.885021 -0.463165
C114  C     C_3   0.338137 0.764822 0.002396 0.111293
C115  C     C_3   0.326358 0.230416 0.003372 0.049008
C116  C     C_3   0.838138 0.264822 0.002391 0.111260
C117  C     C_R   0.690473 0.875286 0.097205 -0.122587
C118  C     C_3   0.826360 0.730417 0.003373 0.049020
C119  C     C_3   0.746581 0.182147 0.007693 0.226710
C120  C     C_3   0.741450 0.815474 0.008947 0.186169
C121  C     C_3   0.246584 0.682145 0.007697 0.226702
C122  C     C_3   0.241449 0.315474 0.008946 0.186157
C123  C     C_3   0.852395 0.165367 0.069515 0.237864
C124  C     C_3   0.844289 0.832081 0.053679 0.252576
C125  C     C_3   0.352401 0.665368 0.069529 0.237860
C126  C     C_3   0.344291 0.332078 0.053690 0.252585
C127  C     C_3   0.704720 0.197274 0.886685 -0.547876
C128  C     C_R   0.190623 0.625142 0.096919 -0.097302
C129  C     C_3   0.687317 0.794389 0.889154 -0.490746
C130  C     C_3   0.204730 0.697268 0.886689 -0.547879
C131  C     C_3   0.187322 0.294392 0.889151 -0.490730
C132  C     C_3   0.533359 0.050348 0.581760 -0.672847
C133  C     C_3   0.544819 0.951554 0.596222 -0.531336
C134  C     C_3   0.033351 0.550352 0.581753 -0.672879
C135  C     C_3   0.044825 0.451556 0.596228 -0.531376
C136  C     C_R   0.562042 0.043814 0.309651 0.417860
C137  C     C_R   0.562406 0.954680 0.309453 0.319925
C138  C     C_R   0.062045 0.543813 0.309653 0.417969
C139  C     C_R   0.190473 0.375286 0.097205 -0.122570
C140  C     C_R   0.062407 0.454680 0.309453 0.319945
C141  C     C_3   0.563370 0.055064 0.505475 0.730036
C142  C     C_3   0.579544 0.947628 0.524666 0.704017
C143  C     C_3   0.063366 0.555065 0.505472 0.729988
C144  C     C_3   0.079551 0.447630 0.524672 0.703902
C145  C     C_3   0.379624 0.993294 0.430762 0.205520
C146  C     C_3   0.879631 0.493295 0.430768 0.205128
C147  C     C_3   0.471834 0.998553 0.558737 0.055296
C148  C     C_3   0.971837 0.498554 0.558740 0.055573
C149  C     C_3   0.532488 0.998353 0.436675 -0.260012
C150  C     C_R   0.601127 0.879304 0.912739 -0.215265
C151  C     C_3   0.032492 0.498352 0.436678 -0.259621
C152  C     C_3   0.419049 0.990459 0.358222 0.691846
C153  C     C_3   0.919055 0.490458 0.358226 0.691295
C154  C     C_R   0.233767 0.954064 0.764454 -0.049550
C155  C     C_R   0.233824 0.044965 0.765097 -0.053468
C156  C     C_R   0.733766 0.454065 0.764457 -0.049555
C157  C     C_R   0.733824 0.544966 0.765095 -0.053485
C158  C     C_R   0.369906 0.179648 0.999448 0.027175
C159  C     C_R   0.384254 0.815081 0.998937 0.074851
C160  C     C_R   0.869908 0.679649 0.999449 0.027169
H1    H     H_    0.337624 0.800508 0.136129 0.046544
H2    H     H_    0.789790 0.779508 0.168981 0.148942
H3    H     H_    0.432756 0.659988 0.683619 0.246525
H4    H     H_    0.536147 0.577948 0.767801 0.204152
H5    H     H_    0.570233 0.621627 0.701975 0.180645
H6    H     H_    0.127209 0.895616 0.517106 0.284659
H7    H     H_    0.086875 0.853772 0.579868 0.231556
H8    H     H_    0.057158 0.835471 0.448215 0.259862
H9    H     H_    0.918974 0.875470 0.424851 0.184670
H10   H     H_    0.955883 0.917303 0.359332 0.202042
H11   H     H_    0.088991 0.143960 0.569836 0.242596
H12   H     H_    0.129644 0.099595 0.512178 0.287039
H13   H     H_    0.274912 0.725052 0.151903 0.151845
H14   H     H_    0.060842 0.159229 0.437285 0.264393
H15   H     H_    0.958092 0.077458 0.354932 0.203949
H16   H     H_    0.921344 0.121396 0.416600 0.192601
H17   H     H_    0.627210 0.395602 0.517159 0.284665
H18   H     H_    0.586849 0.353758 0.579889 0.231550
H19   H     H_    0.557156 0.335461 0.448245 0.259882
H20   H     H_    0.418964 0.375466 0.424867 0.184674
H21   H     H_    0.455888 0.417291 0.359353 0.202039
H22   H     H_    0.588983 0.643964 0.569809 0.242596
H23   H     H_    0.629653 0.599583 0.512189 0.287034
H24   H     H_    0.289776 0.279502 0.168973 0.148941
H25   H     H_    0.560850 0.659211 0.437257 0.264401
H26   H     H_    0.458097 0.577444 0.354925 0.203931
H27   H     H_    0.421346 0.621389 0.416581 0.192607
H28   H     H_    0.090210 0.996543 0.445162 0.308065
H29   H     H_    0.590205 0.496526 0.445162 0.308030
H30   H     H_    0.202980 0.841888 0.030300 0.313818
H31   H     H_    0.203675 0.160981 0.064243 0.314772
H32   H     H_    0.703003 0.341890 0.030332 0.313851
H33   H     H_    0.703700 0.660982 0.064275 0.314766
H34   H     H_    0.943214 0.235756 0.222398 0.334674
H35   H     H_    0.287513 0.730435 0.841207 0.186865
H36   H     H_    0.949185 0.766915 0.217948 0.328963
H37   H     H_    0.443196 0.735762 0.222405 0.334678
H38   H     H_    0.449174 0.266908 0.217957 0.328966
H39   H     H_    0.951586 0.126160 0.202141 0.332605
H40   H     H_    0.877134 0.897818 0.142199 0.308188
H41   H     H_    0.451591 0.626164 0.202159 0.332603
H42   H     H_    0.377137 0.397813 0.142215 0.308172
H43   H     H_    0.964627 0.115883 0.000384 0.270683
H44   H     H_    0.872612 0.157810 0.887536 0.264411
H45   H     H_    0.991228 0.160044 0.928189 0.290933
H46   H     H_    0.261071 0.264552 0.835414 0.154688
H47   H     H_    0.993462 0.239590 0.014978 0.188207
H48   H     H_    0.048687 0.189689 0.119512 0.222583
H49   H     H_    0.005285 0.872918 0.079967 0.250728
H50   H     H_    0.089335 0.817785 0.155337 0.280822
H51   H     H_    0.060935 0.841577 0.026200 0.218563
H52   H     H_    0.981548 0.753601 0.003601 0.190566
H53   H     H_    0.898761 0.807378 0.922031 0.141721
H54   H     H_    0.464661 0.615889 0.000426 0.270674
H55   H     H_    0.372646 0.657812 0.887571 0.264407
H56   H     H_    0.491267 0.660054 0.928241 0.290935
H57   H     H_    0.787492 0.230441 0.841187 0.186859
H58   H     H_    0.493485 0.739596 0.015023 0.188205
H59   H     H_    0.548701 0.689696 0.119558 0.222571
H60   H     H_    0.505298 0.372915 0.079995 0.250705
H61   H     H_    0.589342 0.317782 0.155382 0.280824
H62   H     H_    0.560965 0.341571 0.026252 0.218529
H63   H     H_    0.481564 0.253599 0.003631 0.190563
H64   H     H_    0.398782 0.307377 0.922057 0.141717
H65   H     H_    0.690077 0.082772 0.634099 0.319927
H66   H     H_    0.703846 0.949293 0.553390 0.356304
H67   H     H_    0.190068 0.582780 0.634094 0.319928
H68   H     H_    0.761056 0.764548 0.835407 0.154692
H69   H     H_    0.203853 0.449301 0.553396 0.356295
H70   H     H_    0.601363 0.165305 0.585258 0.225503
H71   H     H_    0.651482 0.159272 0.511090 0.300934
H72   H     H_    0.546994 0.199729 0.454692 0.236794
H73   H     H_    0.499663 0.113986 0.356291 0.205593
H74   H     H_    0.452894 0.122239 0.424763 0.125815
H75   H     H_    0.699075 0.851774 0.567242 0.282310
H76   H     H_    0.651904 0.849076 0.644819 0.253547
H77   H     H_    0.608391 0.802862 0.531632 0.239705
H78   H     H_    0.490131 0.870671 0.463843 0.177244
H79   H     H_    0.483539 0.835490 0.176989 0.158338
H80   H     H_    0.538760 0.879505 0.398939 0.242509
H81   H     H_    0.101357 0.665313 0.585225 0.225512
H82   H     H_    0.151472 0.659269 0.511054 0.300950
H83   H     H_    0.046984 0.699727 0.454648 0.236787
H84   H     H_    0.999641 0.613977 0.356269 0.205595
H85   H     H_    0.952889 0.622240 0.424755 0.125812
H86   H     H_    0.199092 0.351785 0.567223 0.282315
H87   H     H_    0.151944 0.349080 0.644825 0.253554
H88   H     H_    0.108423 0.302866 0.531634 0.239695
H89   H     H_    0.990157 0.370665 0.463869 0.177213
H90   H     H_    0.475510 0.160780 0.177758 0.142441
H91   H     H_    0.038758 0.379509 0.398938 0.242503
H92   H     H_    0.177651 0.012285 0.364196 0.231205
H93   H     H_    0.270295 0.026320 0.507563 0.297831
H94   H     H_    0.206805 0.081232 0.411277 0.246287
H95   H     H_    0.347697 0.081835 0.429674 0.198641
H96   H     H_    0.261594 0.048671 0.303855 0.204617
H97   H     H_    0.211233 0.962965 0.238861 0.271562
H98   H     H_    0.247518 0.892818 0.260068 0.263873
H99   H     H_    0.172690 0.915106 0.294760 0.232233
H100  H     H_    0.367671 0.902933 0.444897 0.187166
H101  H     H_    0.983544 0.335486 0.176986 0.158323
H102  H     H_    0.297710 0.940771 0.466559 0.212120
H103  H     H_    0.677632 0.512303 0.364200 0.231051
H104  H     H_    0.770315 0.526281 0.507579 0.297716
H105  H     H_    0.706866 0.581230 0.411380 0.246251
H106  H     H_    0.847656 0.581832 0.429593 0.198536
H107  H     H_    0.761539 0.548618 0.303825 0.204613
H108  H     H_    0.712159 0.462782 0.238506 0.272260
H109  H     H_    0.747151 0.392390 0.260581 0.262991
H110  H     H_    0.672284 0.415917 0.294372 0.232051
H111  H     H_    0.867694 0.402941 0.444849 0.187122
H112  H     H_    0.342626 0.200310 0.152438 0.022293
H113  H     H_    0.975514 0.660782 0.177759 0.142433
H114  H     H_    0.797716 0.440734 0.466536 0.212084
H115  H     H_    0.617296 0.109363 0.299367 0.303135
H116  H     H_    0.619175 0.891102 0.297844 0.318317
H117  H     H_    0.117295 0.609363 0.299367 0.303130
H118  H     H_    0.119173 0.391101 0.297841 0.318316
H119  H     H_    0.373522 0.064845 0.291695 0.275938
H120  H     H_    0.384241 0.940343 0.236309 0.352378
H121  H     H_    0.873486 0.564843 0.291695 0.276007
H122  H     H_    0.884226 0.440343 0.236298 0.352416
H123  H     H_    0.450877 0.121436 0.670317 0.298595
H124  H     H_    0.206886 0.777234 0.833333 0.220814
H125  H     H_    0.417693 0.882542 0.708970 0.331375
H126  H     H_    0.950870 0.621435 0.670353 0.298641
H127  H     H_    0.917691 0.382540 0.708968 0.331394
H128  H     H_    0.189079 0.213753 0.840078 0.232941
H129  H     H_    0.706878 0.277241 0.833333 0.220804
H130  H     H_    0.689076 0.713747 0.840089 0.232946
H131  H     H_    0.129077 0.710237 0.839640 0.210789
H132  H     H_    0.114733 0.279827 0.856575 0.219738
H133  H     H_    0.629069 0.210245 0.839643 0.210786
H134  H     H_    0.614732 0.779824 0.856587 0.219748
H135  H     H_    0.706945 0.161452 0.843579 0.160180
H136  H     H_    0.837644 0.300503 0.136141 0.046581
H137  H     H_    0.679629 0.827632 0.833519 0.158912
H138  H     H_    0.206962 0.661446 0.843590 0.160186
H139  H     H_    0.179639 0.327637 0.833520 0.158915
H140  H     H_    0.850552 0.131421 0.020532 0.089663
H141  H     H_    0.837226 0.861454 0.992318 0.042444
H142  H     H_    0.350567 0.631424 0.020550 0.089662
H143  H     H_    0.337236 0.361453 0.992334 0.042434
H144  H     H_    0.497831 0.087872 0.577609 0.198020
H145  H     H_    0.516770 0.912196 0.601047 0.195625
H146  H     H_    0.997807 0.587872 0.577585 0.198088
H147  H     H_    0.842643 0.700316 0.152450 0.022288
H148  H     H_    0.016779 0.412197 0.601055 0.195625
H149  H     H_    0.597476 0.049818 0.670273 0.186699
H150  H     H_    0.607339 0.957637 0.684587 0.207278
H151  H     H_    0.097466 0.549828 0.670267 0.186687
H152  H     H_    0.107345 0.457642 0.684591 0.207279
H153  H     H_    0.210229 0.912204 0.750949 0.081336
H154  H     H_    0.210101 0.086571 0.751626 0.101841
H155  H     H_    0.710228 0.412206 0.750955 0.081341
H156  H     H_    0.710100 0.586572 0.751621 0.101848
H157  H     H_    0.776640 0.912788 0.331668 0.108159
H158  H     H_    0.163185 0.741929 0.023680 0.200410
H159  H     H_    0.777019 0.086385 0.333096 0.105318
H160  H     H_    0.276637 0.412787 0.331668 0.108164
H161  H     H_    0.277018 0.586385 0.333099 0.105322
H162  H     H_    0.745654 0.134724 0.182743 0.132109
H163  H     H_    0.745599 0.865792 0.183200 0.114908
H164  H     H_    0.245654 0.634722 0.182744 0.132115
H165  H     H_    0.245599 0.365791 0.183200 0.114910
H166  H     H_    0.575147 0.876006 0.828269 0.142214
H167  H     H_    0.578239 0.123560 0.829650 0.092096
H168  H     H_    0.075144 0.376004 0.828268 0.142228
H169  H     H_    0.171809 0.259678 0.054884 0.193949
H170  H     H_    0.078251 0.623552 0.829655 0.092089
H171  H     H_    0.868874 0.000318 0.587148 0.172227
H172  H     H_    0.368875 0.500328 0.587155 0.172226
H173  H     H_    0.416446 0.151614 0.780093 0.264002
H174  H     H_    0.303923 0.113787 0.696835 0.293356
H175  H     H_    0.313305 0.180376 0.657060 0.250926
H176  H     H_    0.234550 0.183321 0.742847 0.202684
H177  H     H_    0.348013 0.219933 0.816769 0.206426
H178  H     H_    0.472496 0.801883 0.868281 0.265225
H179  H     H_    0.388351 0.790995 0.721208 0.263113
H180  H     H_    0.663196 0.241934 0.023695 0.200406
H181  H     H_    0.389776 0.746594 0.814436 0.267309
H182  H     H_    0.254338 0.809149 0.741921 0.179014
H183  H     H_    0.319112 0.863920 0.746526 0.197733
H184  H     H_    0.916459 0.651632 0.780110 0.263972
H185  H     H_    0.803956 0.613786 0.696863 0.293381
H186  H     H_    0.813305 0.680376 0.657062 0.250943
H187  H     H_    0.734544 0.683313 0.742843 0.202679
H188  H     H_    0.847997 0.719935 0.816762 0.206428
H189  H     H_    0.972467 0.301918 0.868155 0.265219
H190  H     H_    0.888229 0.290967 0.721103 0.263145
H191  H     H_    0.671823 0.759679 0.054902 0.193943
H192  H     H_    0.889801 0.246604 0.814502 0.267328
H193  H     H_    0.754316 0.309158 0.741914 0.179031
H194  H     H_    0.819092 0.363927 0.746515 0.197754
H195  H     H_    0.862600 0.901519 0.621044 0.263855
H196  H     H_    0.898818 0.856194 0.559647 0.254153
H197  H     H_    0.931194 0.841342 0.694701 0.249428
H198  H     H_    0.069984 0.878997 0.711762 0.187974
H199  H     H_    0.033608 0.923869 0.772058 0.198985
H200  H     H_    0.897746 0.141543 0.549183 0.251800
H201  H     H_    0.864618 0.098556 0.618328 0.279387
H202  H     H_    0.774924 0.225051 0.151911 0.151844
H203  H     H_    0.932750 0.159975 0.683642 0.246529
H204  H     H_    0.036140 0.077935 0.767807 0.204159
H205  H     H_    0.070231 0.121620 0.701995 0.180653
H206  H     H_    0.362596 0.401526 0.621050 0.263857
H207  H     H_    0.398829 0.356193 0.559680 0.254158
H208  H     H_    0.431194 0.341353 0.694733 0.249428
H209  H     H_    0.569987 0.379006 0.711796 0.187977
H210  H     H_    0.533600 0.423883 0.772073 0.198973
H211  H     H_    0.397742 0.641542 0.549161 0.251801
H212  H     H_    0.364626 0.598566 0.618332 0.279377
N1    N     N_R   0.392450 0.103580 0.942190 -0.049566
N2    N     N_R   0.525490 0.971610 0.207550 -0.107080
N3    N     N_R   0.025490 0.528390 0.207550 -0.111162
N4    N     N_R   0.025490 0.471610 0.207550 -0.107081
N5    N     N_R   0.317450 0.971190 0.792000 -0.050337
N6    N     N_R   0.317450 0.028810 0.792000 -0.038961
N7    N     N_R   0.817450 0.471190 0.792000 -0.050336
N8    N     N_R   0.817450 0.528810 0.792000 -0.038968
N9    N     N_R   0.473900 0.028390 0.792280 -0.096024
N10   N     N_R   0.473900 0.971610 0.792280 -0.112880
N11   N     N_R   0.973900 0.528390 0.792280 -0.096032
N12   N     N_R   0.392450 0.896420 0.942190 -0.068856
N13   N     N_R   0.973900 0.471610 0.792280 -0.112873
N14   N     N_R   0.682310 0.971180 0.208170 -0.046271
N15   N     N_R   0.682310 0.028820 0.208170 -0.051124
N16   N     N_R   0.182310 0.471180 0.208170 -0.046273
N17   N     N_R   0.182310 0.528820 0.208170 -0.051127
N18   N     N_R   0.606470 0.103570 0.057210 -0.055849
N19   N     N_R   0.606470 0.896430 0.057210 -0.043963
N20   N     N_R   0.106470 0.603570 0.057210 -0.055848
N21   N     N_R   0.106470 0.396430 0.057210 -0.043957
N22   N     N_R   0.549740 0.896000 0.943240 -0.040225
N23   N     N_R   0.892450 0.603580 0.942190 -0.049565
N24   N     N_R   0.549740 0.104000 0.943240 -0.040175
N25   N     N_R   0.049740 0.396000 0.943240 -0.040233
N26   N     N_R   0.049740 0.604000 0.943240 -0.040172
N27   N     N_R   0.892450 0.396420 0.942190 -0.068862
N28   N     N_R   0.450490 0.896000 0.057360 -0.059673
N29   N     N_R   0.450490 0.104000 0.057360 -0.064161
N30   N     N_R   0.950490 0.396000 0.057360 -0.059679
N31   N     N_R   0.950490 0.604000 0.057360 -0.064163
N32   N     N_R   0.525490 0.028390 0.207550 -0.111160
Ni1   Ni    Ni4+2 0.433780 0.065390 0.868430 0.220844
Ni2   Ni    Ni4+2 0.433780 0.934610 0.868430 0.206558
Ni3   Ni    Ni4+2 0.933780 0.565390 0.868430 0.220828
Ni4   Ni    Ni4+2 0.933780 0.434610 0.868430 0.206554
Ni5   Ni    Ni4+2 0.565800 0.934190 0.131570 0.206371
Ni6   Ni    Ni4+2 0.565800 0.065810 0.131570 0.211303
Ni7   Ni    Ni4+2 0.065800 0.434190 0.131570 0.206374
Ni8   Ni    Ni4+2 0.065800 0.565810 0.131570 0.211302
O1    O     O_3   0.125998 0.997786 0.526565 -0.771648
O2    O     O_3   0.473680 0.265763 0.174288 -0.737268
O3    O     O_3   0.890768 0.144067 0.175150 -0.789362
O4    O     O_3   0.892558 0.858293 0.156924 -0.758036
O5    O     O_3   0.390769 0.644069 0.175162 -0.789364
O6    O     O_3   0.392558 0.358288 0.156938 -0.758024
O7    O     O_3   0.663897 0.058313 0.569820 -0.674637
O8    O     O_3   0.679451 0.954322 0.596631 -0.707528
O9    O     O_3   0.163893 0.558317 0.569820 -0.674664
O10   O     O_3   0.179458 0.454327 0.596638 -0.707531
O11   O     O_3   0.625854 0.086563 0.359014 -0.741360
O12   O     O_3   0.625994 0.497775 0.526565 -0.771660
O13   O     O_3   0.630255 0.914184 0.357872 -0.793670
O14   O     O_3   0.125854 0.586563 0.359014 -0.741382
O15   O     O_3   0.130254 0.414183 0.357870 -0.793673
O16   O     O_3   0.373747 0.027881 0.268134 -0.799468
O17   O     O_3   0.398418 0.938096 0.310244 -0.808190
O18   O     O_3   0.873764 0.527886 0.268145 -0.799750
O19   O     O_3   0.898411 0.438094 0.310237 -0.807951
O20   O     O_3   0.404926 0.090975 0.640648 -0.781058
O21   O     O_3   0.417684 0.903626 0.653555 -0.813076
O22   O     O_3   0.904928 0.590974 0.640642 -0.781078
O23   O     O_3   0.216971 0.822894 0.984282 -0.758791
O24   O     O_3   0.917688 0.403625 0.653558 -0.813056
O25   O     O_3   0.214390 0.175633 0.011476 -0.744629
O26   O     O_3   0.716989 0.322898 0.984305 -0.758781
O27   O     O_3   0.714405 0.675633 0.011500 -0.744642
O28   O     O_3   0.975301 0.234613 0.187179 -0.793223
O29   O     O_3   0.973686 0.765770 0.174274 -0.737293
O30   O     O_3   0.475292 0.734620 0.187196 -0.793228

loop_
_geom_bond_atom_site_label_1
_geom_bond_atom_site_label_2
_ccdc_geom_bond_type
N19   N22   A    
N3    Ni8   S    
C112  H129  S    
C26   H199  S    
N17   Ni8   S    
C105  C116  S    
C118  C160  S    
C19   C20   S    
C76   C79   S    
H32   O26   S    
C39   H20   S    
C52   H74   S    
C38   H11   S    
C50   H64   S    
C136  N32   A    
C152  O17   S    
C144  C151  S    
N18   N24   A    
N20   Ni8   S    
C82   C87   S    
C36   H8    S    
N5    Ni2   S    
C41   H27   S    
N1    N29   A    
N28   Ni5   S    
H42   O6    S    
C76   C94   S    
C134  C143  S    
C22   H185  S    
C125  O5    S    
C126  H143  S    
C78   C96   S    
H38   O2    S    
H36   O29   S    
C44   H43   S    
C45   H53   S    
C136  O11   S    
C6    C155  A    
C62   H92   S    
C83   C88   S    
C59   C60   S    
C106  H162  S    
C21   C22   S    
N32   Ni6   S    
C107  C124  S    
C18   H173  S    
C65   H106  S    
C17   H177  S    
C45   C47   S    
C41   C87   S    
C45   H52   S    
C157  N8    A    
C8    N9    A    
C19   C73   S    
C23   H194  S    
C54   H78   S    
C25   H192  S    
C99   H136  S    
C99   C116  S    
C31   H207  S    
C29   H203  S    
C138  N3    A    
C90   N28   A    
C128  H164  S    
C3    C92   A    
C8    C35   A    
C43   C44   S    
C37   C38   S    
C138  O14   S    
H39   O3    S    
C143  O9    S    
H40   O4    S    
N3    N4    A    
C19   H182  S    
C139  N21   A    
C55   H77   S    
N31   Ni8   S    
C111  H46   S    
C97   C103  S    
C99   C101  S    
C13   N25   A    
C87   C89   S    
C142  O8    S    
N9    N10   A    
C66   H103  S    
C103  C121  S    
C133  H150  S    
C127  H135  S    
C14   C57   A    
C1    C158  A    
C43   H48   S    
H37   O30   S    
C5    C151  S    
C30   H209  S    
C15   H160  S    
C7    C157  A    
C119  C123  S    
C49   H55   S    
N19   Ni5   S    
C157  H156  S    
C89   C96   S    
N2    N32   A    
C153  O18   S    
C51   H61   S    
C109  O2    S    
C129  H137  S    
C44   H45   S    
C23   C95   S    
C14   N15   A    
C151  C153  S    
C10   O22   S    
C110  H35   S    
C11   C46   A    
C3    C95   A    
C75   C79   S    
C76   C85   S    
C27   H197  S    
C144  O10   S    
C91   H90   S    
C78   C87   S    
C89   O12   S    
C47   H51   S    
C91   N29   A    
C121  C130  S    
C104  H169  S    
C22   H186  S    
C88   O1    S    
N22   Ni2   S    
C121  C125  S    
N23   N31   A    
C133  C142  S    
C130  H138  S    
C142  C149  S    
C33   H3    S    
C141  O7    S    
C3    C116  S    
C154  H153  S    
C78   C80   S    
C38   H14   S    
C71   C150  A    
C104  C122  S    
C16   N17   A    
C10   N11   A    
H119  O16   S    
C30   H210  S    
C90   C159  A    
C58   H82   S    
C91   C158  A    
C124  H141  S    
C69   H110  S    
C56   C143  S    
H121  O18   S    
C7    C156  A    
N16   N17   A    
C130  H131  S    
C111  H128  S    
C133  C147  S    
C28   H205  S    
C110  C114  S    
C107  C118  S    
C9    N10   A    
C53   H70   S    
C127  H133  S    
C2    N24   A    
C56   H84   S    
C61   H95   S    
C55   H76   S    
H125  O21   S    
C12   H157  S    
C30   C77   S    
C24   H170  S    
C14   H159  S    
C36   H6    S    
C81   C83   S    
C135  H148  S    
C93   N31   A    
C46   C148  S    
C71   C117  A    
C115  C158  S    
C120  C129  S    
N6    Ni1   S    
N13   Ni4   S    
C80   C82   S    
C39   C40   S    
C6    C94   S    
C126  O6    S    
C92   N30   A    
N26   Ni3   S    
C25   H189  S    
C154  N5    A    
C150  N22   A    
C17   C18   S    
C137  N2    A    
C66   H105  S    
C27   H195  S    
C34   H9    S    
C12   C57   A    
C42   H25   S    
C111  C131  S    
C155  N6    A    
C19   H183  S    
C47   H49   S    
C59   H91   S    
C97   O23   S    
C63   H102  S    
C122  C131  S    
C112  C116  S    
C52   C53   S    
C24   C72   A    
C85   C88   S    
C132  C141  S    
C54   C55   S    
N27   Ni4   S    
C132  C147  S    
C77   C86   S    
H41   O5    S    
C38   H12   S    
H31   O25   S    
C56   H85   S    
C73   C159  A    
C77   C96   S    
C1    C17   S    
C52   C141  S    
H127  O24   S    
C68   C82   S    
C67   H114  S    
C134  H146  S    
C98   C115  S    
H122  O19   S    
C11   N13   A    
C143  C151  S    
C56   C58   S    
C41   H26   S    
N14   Ni5   S    
C34   C36   S    
C61   C62   S    
C145  C152  S    
C53   H72   S    
C40   H17   S    
C109  C126  S    
C22   H184  S    
C75   C94   S    
C60   H87   S    
C44   H44   S    
C65   C146  S    
C48   H59   S    
C81   C85   S    
C45   C107  S    
C155  H154  S    
C119  C127  S    
C62   H93   S    
C139  H165  S    
C72   C121  S    
C41   C42   S    
C18   H174  S    
C84   C160  A    
N7    N8    A    
C48   H58   S    
C64   H97   S    
C7    C96   S    
C26   C27   S    
C80   H172  S    
C90   H79   S    
C28   C29   S    
C23   H193  S    
C132  H149  S    
C30   C31   S    
H120  O17   S    
C2    H167  S    
C117  N19   A    
N16   Ni7   S    
C9    O21   S    
N21   Ni7   S    
N2    Ni5   S    
C108  C114  S    
H30   O23   S    
C61   C145  S    
C33   H212  S    
N7    Ni4   S    
C100  H147  S    
C150  H166  S    
C59   H89   S    
C107  O29   S    
C92   H101  S    
C64   H99   S    
C134  H151  S    
C4    C136  A    
C67   H111  S    
C32   H5    S    
C26   H198  S    
C131  H139  S    
H115  O11   S    
C28   H204  S    
C66   H104  S    
C145  C147  S    
C52   H73   S    
C146  C148  S    
C50   H63   S    
C43   H47   S    
C104  H24   S    
H33   O27   S    
C20   H179  S    
H34   O28   S    
C16   H161  S    
C98   H112  S    
C113  H130  S    
C82   C86   S    
C49   H54   S    
C50   C109  S    
C93   C160  A    
H66   O8    S    
C40   H19   S    
C21   C84   S    
C106  N18   A    
C102  H2    S    
H29   O12   S    
C50   C51   S    
H126  O22   S    
N12   N28   A    
C6    C154  A    
C12   N14   A    
C135  H152  S    
N29   Ni6   S    
C131  H132  S    
N12   Ni2   S    
C48   C49   S    
C74   C122  S    
N8    Ni3   S    
C101  H180  S    
C70   C106  A    
H69   O10   S    
C51   H60   S    
C100  C118  S    
C28   C76   S    
C102  C120  S    
C77   C80   S    
C100  O27   S    
C99   O26   S    
C137  O13   S    
C15   N16   A    
C55   H75   S    
C86   C89   S    
H123  O20   S    
C31   H208  S    
C11   O24   S    
C32   C33   S    
N14   N15   A    
C140  N4    A    
C37   H16   S    
C75   C83   S    
C48   C108  S    
C146  C153  S    
C129  H134  S    
C42   H22   S    
C110  C130  S    
C79   H171  S    
N4    Ni7   S    
C58   H83   S    
C69   H109  S    
C110  H124  S    
C13   C74   A    
C26   C75   S    
C132  H144  S    
C156  H155  S    
C9    C35   A    
C88   C94   S    
N1    Ni1   S    
C39   C86   S    
C2    C70   A    
C17   H176  S    
H117  O14   S    
C97   H1    S    
H65   O7    S    
N27   N30   A    
C60   H86   S    
C123  H140  S    
C20   H181  S    
C69   H108  S    
C141  C149  S    
C5    C138  A    
C1    N1    A    
C4    C149  S    
C49   H56   S    
C113  C129  S    
C71   C120  S    
C72   C128  A    
C37   C85   S    
C102  H191  S    
C140  O15   S    
C21   H187  S    
C37   H15   S    
C51   H62   S    
C32   H4    S    
C103  H13   S    
H28   O1    S    
C43   C105  S    
C101  H202  S    
N20   N26   A    
N11   Ni3   S    
N30   Ni7   S    
C112  C127  S    
C10   C46   A    
C112  H57   S    
C8    O20   S    
C16   C68   A    
C13   H168  S    
C108  C125  S    
C73   N12   A    
C153  O19   S    
H118  O15   S    
C34   H10   S    
C98   O25   S    
H116  O13   S    
C4    C137  A    
C156  N7    A    
C123  O3    S    
C124  O4    S    
C31   H206  S    
C64   H98   S    
C105  O28   S    
C114  C159  S    
C101  C119  S    
C149  C152  S    
C79   C81   S    
C113  H68   S    
C93   H113  S    
C63   C64   S    
C67   C69   S    
C21   H188  S    
C122  C126  S    
C58   H81   S    
N11   N13   A    
C95   N27   A    
C20   H178  S    
C70   C119  S    
C67   C146  S    
C100  C102  S    
C35   C147  S    
C133  H145  S    
N5    N6    A    
C39   H21   S    
N9    Ni1   S    
C53   H71   S    
C40   H18   S    
C125  H142  S    
C135  C144  S    
C59   C144  S    
C60   H88   S    
C61   H96   S    
C128  N20   A    
C152  O16   S    
C57   C81   S    
C34   C83   S    
C5    C140  A    
C108  O30   S    
C62   H94   S    
N21   N25   A    
C54   C142  S    
N15   Ni6   S    
C84   N23   A    
C24   N26   A    
C18   H175  S    
H67   O9    S    
C36   H7    S    
C117  H163  S    
C42   H23   S    
C134  C148  S    
C74   C139  A    
C97   C114  S    
C54   H80   S    
C25   H190  S    
C65   C66   S    
C63   H100  S    
N10   Ni2   S    
C29   H201  S    
N18   Ni6   S    
C98   C104  S    
C15   C68   A    
N23   Ni3   S    
C63   C145  S    
C23   C25   S    
C27   H196  S    
C33   H211  S    
C109  C115  S    
C32   C78   S    
C113  C118  S    
N25   Ni4   S    
C135  C148  S    
C47   H50   S    
C103  H158  S    
C111  C115  S    
C105  C123  S    
N24   Ni1   S    
C120  C124  S    
C29   H200  S    
C65   H107  S    
