data_mof_unit_55594.cif
_audit_creation_date              2013-03-05T15:52:44-0500
_audit_creation_method            fapswitch 2.2
_symmetry_space_group_name_H-M    P1
_symmetry_Int_Tables_number       1
_space_group_crystal_system       triclinic
_cell_length_a                    9.937589
_cell_length_b                    10.723113
_cell_length_c                    13.135624
_cell_angle_alpha                 91.993606
_cell_angle_beta                  69.015794
_cell_angle_gamma                 87.928508
_cell_volume                      1304.35972216

loop_
_atom_site_label
_atom_site_type_symbol
_atom_site_description
_atom_site_fract_x
_atom_site_fract_y
_atom_site_fract_z
_atom_type_partial_charge
O1    O     O_R   0.385310 0.683220 0.500000 -0.656899
O2    O     O_R   0.614640 0.683250 0.500010 -0.626074
C1    C     C_R   0.499803 0.739960 0.493467 0.862462
O3    O     O_R   0.328400 0.499950 0.653610 -0.579307
O4    O     O_R   0.557730 0.499970 0.653620 -0.646416
C2    C     C_R   0.419138 0.491303 0.704396 0.845872
Zn1   Zn    Zn3+2 0.346880 0.499980 0.499990 0.964067
Zn2   Zn    Zn3+2 0.653120 0.500020 0.500010 0.999970
O5    O     O_R   0.385360 0.316750 0.499990 -0.611044
O6    O     O_R   0.614690 0.316780 0.500000 -0.580618
O7    O     O_R   0.442270 0.500030 0.346380 -0.619541
O8    O     O_R   0.671600 0.500050 0.346390 -0.557445
C3    C     C_R   0.497557 0.261127 0.509033 0.881526
C4    C     C_R   0.581001 0.500118 0.295305 0.894157
C5    C     C_R   0.789274 0.382559 0.007462 -0.098236
H1    H     H_    0.844835 0.404239 0.149714 0.201953
H2    H     H_    0.801266 0.296880 0.811152 0.165895
H3    H     H_    0.890049 0.331409 0.961459 0.174727
C6    C     C_R   0.632208 0.486835 0.176447 -0.077902
C7    C     C_R   0.221004 0.508367 0.891188 0.317520
C8    C     C_R   0.187454 0.528614 0.003250 -0.193108
C9    C     C_R   0.293828 0.517326 0.048131 -0.241492
C10   C     C_R   0.436425 0.475842 0.982935 0.085650
C11   C     C_R   0.466683 0.439878 0.872432 0.048174
C12   C     C_R   0.548807 0.464793 0.024990 0.088145
C13   C     C_R   0.681442 0.399960 0.962806 0.167026
C14   C     C_R   0.702519 0.350250 0.858567 -0.201939
C15   C     C_R   0.596428 0.369299 0.814092 -0.167745
C16   C     C_R   0.532060 0.515644 0.128118 -0.238326
C17   C     C_R   0.764208 0.424919 0.114560 -0.165265
C18   C     C_R   0.365727 0.474215 0.823331 -0.241857
H4    H     H_    0.438034 0.574047 0.175073 0.156142
H5    H     H_    0.258896 0.534322 0.135379 0.163899
H6    H     H_    0.077662 0.554114 0.056581 0.187346
H7    H     H_    0.615499 0.324998 0.734540 0.178948
H8    H     H_    0.727816 0.878892 0.440788 0.235257
C19   C     C_R   0.236631 0.902921 0.501562 -0.275509
H9    H     H_    0.238819 0.818309 0.454076 0.209317
C20   C     C_R   0.105464 0.974399 0.544519 0.388415
C21   C     C_R   0.100030 0.085917 0.604522 -0.199273
H10   H     H_    0.999285 0.140073 0.643638 0.183876
C22   C     C_R   0.226973 0.133585 0.607185 -0.210294
H11   H     H_    0.219763 0.222227 0.651238 0.208104
C23   C     C_R   0.361485 0.070152 0.549493 0.101122
C24   C     C_R   0.363864 0.946105 0.512963 0.053216
C25   C     C_R   0.495695 0.873826 0.485974 -0.140080
C26   C     C_R   0.625370 0.931911 0.467246 -0.142673
H12   H     H_    0.727137 0.103188 0.456812 0.249911
C27   C     C_R   0.624953 0.059219 0.480163 -0.104098
C28   C     C_R   0.494050 0.128734 0.520606 -0.163045
C29   C     C_R   0.788244 0.669169 0.642857 -0.061325
H13   H     H_    0.678529 0.676675 0.649065 0.193046
C30   C     C_R   0.822491 0.748119 0.715357 -0.108091
H14   H     H_    0.740163 0.811538 0.771848 0.156102
C31   C     C_R   0.962146 0.746871 0.714687 -0.101952
H15   H     H_    0.988615 0.809280 0.770539 0.162087
C32   C     C_R   0.068138 0.665336 0.642574 -0.073380
H16   H     H_    0.172934 0.666679 0.647608 0.197253
C33   C     C_R   0.036980 0.583373 0.569073 0.161161
C34   C     C_R   0.892632 0.584494 0.568738 0.121442
N1    N     N_R   0.856860 0.501200 0.500990 -0.169978
C35   C     C_R   0.961682 0.411590 0.441165 0.318616
H17   H     H_    0.186369 0.345675 0.390230 0.194618
C36   C     C_R   0.105046 0.414939 0.439412 -0.164224
N2    N     N_R   0.142450 0.501280 0.501020 -0.141351
N3    N     N_R   0.978856 0.934426 0.526806 0.212839
O9    O     O_R   0.988922 0.847073 0.452760 -0.434921
O10   O     O_R   0.852880 0.987750 0.582515 -0.445796
N4    N     N_R   0.927031 0.306441 0.386688 0.205134
O11   O     O_R   0.986202 0.196584 0.388402 -0.406512
O12   O     O_R   0.862416 0.322703 0.317889 -0.402531
N5    N     N_R   0.105850 0.518624 0.849696 0.191516
O13   O     O_R   0.000007 0.601368 0.894572 -0.433117
O14   O     O_R   0.086976 0.426729 0.789665 -0.445142

loop_
_geom_bond_atom_site_label_1
_geom_bond_atom_site_label_2
_geom_bond_distance
_ccdc_geom_bond_type
C5    H3    1.082917 S    
N3    O10   1.301041 A    
C31   H15   1.082626 S    
C26   C27   1.369445 A    
C30   H14   1.082732 S    
Zn1   O7    1.897405 S    
C13   C14   1.392328 A    
C16   H4    1.078787 S    
O4    C2    1.306145 A    
O7    C4    1.299414 A    
C32   C33   1.405443 A    
H1    C17   1.078727 S    
H8    C26   1.082339 S    
N4    O12   1.295351 A    
O5    C3    1.290241 A    
C35   C36   1.418383 A    
C15   H7    1.081971 S    
C10   C11   1.409307 A    
Zn2   N1    2.029821 S    
C21   C22   1.389560 A    
N3    O9    1.301373 A    
C33   C34   1.435665 A    
C8    C9    1.386270 A    
N4    O11   1.302010 A    
C22   C23   1.413031 A    
O3    Zn1   1.959657 S    
C30   C31   1.384276 A    
C12   C16   1.393076 A    
C29   H13   1.063668 S    
H2    C14   1.084090 S    
N5    O14   1.301242 A    
C20   C21   1.397634 A    
C5    C13   1.403766 A    
C8    H6    1.083334 S    
C12   C13   1.418086 A    
C24   C25   1.420401 A    
C3    C28   1.433387 S    
C35   N4    1.431909 S    
C34   N1    1.382143 A    
O1    C1    1.286803 A    
C19   H9    1.078066 S    
Zn1   N2    2.026276 S    
Zn2   O8    1.959659 S    
O3    C2    1.302230 A    
H12   C27   1.081265 S    
O8    C4    1.301371 A    
C31   C32   1.390082 A    
C20   N3    1.436180 S    
C22   H11   1.081936 S    
C19   C24   1.417273 A    
C6    C16   1.390272 A    
C23   C24   1.394757 A    
C5    C17   1.394221 A    
C23   C28   1.411542 A    
Zn1   O5    1.988049 S    
C9    H5    1.078473 S    
C25   C26   1.396690 A    
C21   H10   1.082752 S    
O1    Zn1   2.015181 S    
C4    C6    1.458453 S    
O2    Zn2   1.988048 S    
C11   C15   1.415590 A    
N5    O13   1.301206 A    
O6    C3    1.296680 A    
O4    Zn2   1.897405 S    
C1    C25   1.442355 S    
C36   N2    1.355890 A    
O2    C1    1.305081 A    
C11   C18   1.418212 A    
C19   C20   1.405643 A    
C33   N2    1.371146 A    
C32   H16   1.067453 S    
C2    C18   1.479562 S    
C10   C12   1.415386 A    
N1    C35   1.383754 A    
H17   C36   1.082319 S    
C7    C8    1.395032 A    
Zn2   O6    2.015182 S    
C27   C28   1.391934 A    
C14   C15   1.388684 A    
C9    C10   1.413546 A    
C7    N5    1.435427 S    
C29   C34   1.412613 A    
C29   C30   1.391536 A    
C6    C17   1.399320 A    
C7    C18   1.420598 A    
