data_mof_unit_56823.cif
_audit_creation_date              2012-12-11T16:13:04-0500
_audit_creation_method            fapswitch 2.2
_symmetry_space_group_name_H-M    P1
_symmetry_Int_Tables_number       1
_space_group_crystal_system       triclinic
_cell_length_a                    23.635283
_cell_length_b                    13.654223
_cell_length_c                    28.382585
_cell_angle_alpha                 90.000285
_cell_angle_beta                  90.079185
_cell_angle_gamma                 90.050834
_cell_volume                      9159.65591643

loop_
_atom_site_label
_atom_site_type_symbol
_atom_type_description
_atom_site_fract_x
_atom_site_fract_y
_atom_site_fract_z
_atom_type_partial_charge
C1    C     C_R   0.284282 0.006118 0.815668 0.540850
C2    C     C_3   0.490477 0.736358 0.973789 -0.098322
C3    C     C_R   0.253676 0.988815 0.519336 0.084412
C4    C     C_R   0.285867 0.518788 0.526462 -0.106118
C5    C     C_R   0.738147 0.504806 0.472158 -0.099141
C6    C     C_R   0.720520 0.023838 0.530466 -0.107027
C7    C     C_R   0.249752 0.001670 0.470501 -0.111343
C8    C     C_R   0.251488 0.586475 0.549545 -0.011259
C9    C     C_R   0.739946 0.598681 0.452968 -0.010089
C10   C     C_R   0.759075 0.091585 0.548233 0.001779
C11   C     C_R   0.242733 0.095299 0.451968 -0.012365
C12   C     C_R   0.246726 0.571950 0.451688 0.091946
C13   C     C_3   0.010370 0.239875 0.025884 -0.103464
C14   C     C_R   0.745928 0.575631 0.550314 0.100378
C15   C     C_R   0.747056 0.071365 0.451212 0.095543
C16   C     C_R   0.250323 0.071468 0.549111 0.091022
C17   C     C_1   0.240210 0.558433 0.401993 -0.003068
C18   C     C_1   0.755703 0.562200 0.599618 0.008351
C19   C     C_1   0.740354 0.059312 0.401527 0.001599
C20   C     C_1   0.258337 0.058923 0.598632 -0.007508
C21   C     C_1   0.258418 0.604218 0.598676 -0.055369
C22   C     C_1   0.737109 0.612698 0.403306 -0.044804
C23   C     C_1   0.762257 0.108952 0.597565 -0.048832
C24   C     C_3   0.992017 0.239719 0.973463 -0.103569
C25   C     C_1   0.238742 0.109942 0.402457 -0.067867
C26   C     C_1   0.231063 0.540117 0.361469 -0.003720
C27   C     C_1   0.767233 0.542830 0.639589 0.003559
C28   C     C_1   0.731261 0.041080 0.361037 0.004458
C29   C     C_1   0.268363 0.040852 0.638987 -0.010247
C30   C     C_R   0.284677 0.007040 0.684162 0.541946
C31   C     C_R   0.715340 0.007191 0.315779 0.547380
C32   C     C_R   0.784557 0.507260 0.684256 0.543155
C33   C     C_R   0.215216 0.506792 0.316002 0.541255
C34   C     C_R   0.446019 0.825325 0.684687 0.544807
C35   C     C_1   0.520869 0.837227 0.096583 -0.094393
C36   C     C_R   0.554037 0.825190 0.315359 0.546223
C37   C     C_R   0.946148 0.325255 0.684841 0.543933
C38   C     C_R   0.054252 0.325179 0.315439 0.542454
C39   C     C_R   0.274321 0.674021 0.683203 0.546298
C40   C     C_R   0.725523 0.674370 0.316971 0.548513
C41   C     C_R   0.774435 0.174289 0.683137 0.545418
C42   C     C_R   0.225652 0.174037 0.316780 0.543958
C43   C     C_3   0.438391 0.905346 0.979206 0.063999
C44   C     C_3   0.562736 0.907035 0.020986 0.057839
C45   C     C_3   0.939430 0.408561 0.977062 0.055579
C46   C     C_1   0.481652 0.838208 0.902840 -0.086975
C47   C     C_3   0.060738 0.411004 0.022666 0.055341
C48   C     C_3   0.553946 0.895150 0.963362 0.147475
C49   C     C_3   0.448222 0.894339 0.036494 0.158069
C50   C     C_3   0.054612 0.398918 0.964649 0.148806
C51   C     C_3   0.945729 0.396244 0.035051 0.148835
C52   C     C_1   0.532375 0.830218 0.137463 -0.052835
C53   C     C_1   0.469439 0.831076 0.862045 -0.052648
C54   C     C_1   0.029557 0.331601 0.138172 -0.052712
C55   C     C_1   0.971128 0.331697 0.861511 -0.053629
C56   C     C_3   0.441224 0.993033 0.066725 -0.207426
C57   C     C_1   0.016887 0.339997 0.097454 -0.091384
C58   C     C_3   0.382659 0.017837 0.087095 -0.297073
C59   C     C_3   0.385650 0.111845 0.116445 -0.468330
C60   C     C_3   0.561230 0.993968 0.932390 -0.215632
C61   C     C_3   0.610373 0.000846 0.896301 -0.292415
C62   C     C_3   0.610588 0.099961 0.871164 -0.459565
C63   C     C_3   0.936582 0.494429 0.065801 -0.213449
C64   C     C_3   0.885794 0.500427 0.100293 -0.291398
C65   C     C_3   0.886456 0.596774 0.127836 -0.461173
C66   C     C_3   0.062592 0.497752 0.934159 -0.212947
C67   C     C_3   0.113601 0.506436 0.899993 -0.291301
C68   C     C_1   0.984095 0.340140 0.902158 -0.091525
C69   C     C_3   0.113105 0.604695 0.874104 -0.461614
C70   C     C_3   0.423803 0.959268 0.438776 -0.251636
C71   C     C_3   0.443508 0.064967 0.430693 -0.301036
C72   C     C_3   0.401680 0.121162 0.399944 -0.441537
C73   C     C_3   0.420424 0.982999 0.545483 -0.249659
C74   C     C_3   0.452772 0.068022 0.568661 -0.299641
C75   C     C_3   0.412155 0.143784 0.589047 -0.436656
C76   C     C_3   0.050713 0.515209 0.452774 -0.250319
C77   C     C_3   0.004227 0.579816 0.431459 -0.300537
C78   C     C_3   0.029344 0.669017 0.406767 -0.431809
C79   C     C_1   0.269176 0.644887 0.864104 -0.030496
C80   C     C_3   0.027271 0.519189 0.557300 -0.249333
C81   C     C_3   0.086191 0.518037 0.579981 -0.300657
C82   C     C_3   0.095936 0.609639 0.609691 -0.443250
C83   C     C_3   0.434498 0.017794 0.963963 -0.255726
C84   C     C_3   0.414119 0.045278 0.913710 -0.304775
C85   C     C_3   0.427005 0.152530 0.902430 -0.459973
C86   C     C_3   0.567574 0.019420 0.036750 -0.251542
C87   C     C_3   0.580172 0.047652 0.088739 -0.297249
C88   C     C_3   0.566628 0.155436 0.098154 -0.461622
C89   C     C_3   0.935376 0.521063 0.961105 -0.258811
C90   C     C_1   0.731436 0.640366 0.136674 -0.030918
C91   C     C_3   0.920491 0.549155 0.909365 -0.302361
C92   C     C_3   0.934552 0.656556 0.899362 -0.462214
C93   C     C_3   0.063530 0.523524 0.038901 -0.258826
C94   C     C_3   0.078357 0.551513 0.090676 -0.302014
C95   C     C_3   0.063903 0.658645 0.100756 -0.462727
C96   C     C_3   0.622094 0.862646 0.038577 -0.210028
C97   C     C_3   0.674977 0.915131 0.019662 -0.287990
C98   C     C_3   0.725042 0.847820 0.013050 -0.439052
C99   C     C_3   0.378949 0.858931 0.961547 -0.196150
C100  C     C_3   0.322163 0.906448 0.976608 -0.268470
C101  C     C_1   0.768461 0.140175 0.863298 -0.030223
C102  C     C_3   0.291310 0.856200 0.017263 -0.396717
C103  C     C_3   0.119827 0.368530 0.041592 -0.208415
C104  C     C_3   0.172590 0.422146 0.023145 -0.283265
C105  C     C_3   0.222186 0.354764 0.014694 -0.439534
C106  C     C_3   0.880818 0.363802 0.958035 -0.209055
C107  C     C_3   0.827392 0.415414 0.976375 -0.285544
C108  C     C_3   0.778116 0.346925 0.984417 -0.436801
C109  C     C_3   0.517576 0.652878 0.942362 -0.261804
C110  C     C_3   0.474303 0.583816 0.918377 -0.288414
C111  C     C_3   0.462379 0.491703 0.947258 -0.453674
C112  C     C_R   0.715799 0.006405 0.184297 0.539046
C113  C     C_1   0.230717 0.140866 0.136668 -0.034829
C114  C     C_3   0.484175 0.652752 0.056518 -0.266819
C115  C     C_3   0.525748 0.569802 0.068804 -0.308018
C116  C     C_3   0.497193 0.490036 0.098030 -0.445792
C117  C     C_3   0.021708 0.156067 0.943908 -0.268978
C118  C     C_3   0.981802 0.070032 0.932426 -0.310445
C119  C     C_3   0.012384 0.989635 0.905139 -0.446449
C120  C     C_3   0.981883 0.154638 0.055254 -0.269019
C121  C     C_3   0.022980 0.070252 0.066482 -0.309971
C122  C     C_3   0.993599 0.988343 0.093702 -0.447634
C123  C     C_R   0.309378 0.579620 0.981534 -0.140055
C124  C     C_R   0.690066 0.575824 0.019105 -0.129470
C125  C     C_R   0.810146 0.075827 0.980875 -0.130421
C126  C     C_R   0.192520 0.061941 0.020169 -0.125399
C127  C     C_R   0.307300 0.572715 0.030806 -0.132770
C128  C     C_R   0.691956 0.571617 0.969704 -0.125456
C129  C     C_R   0.808358 0.071749 0.030301 -0.125874
C130  C     C_R   0.194908 0.054650 0.970934 -0.124008
C131  C     C_R   0.216252 0.654286 0.030318 -0.147077
C132  C     C_R   0.784164 0.506540 0.815624 0.539387
C133  C     C_R   0.785536 0.643905 0.971191 -0.144473
C134  C     C_R   0.715488 0.146380 0.028979 -0.143686
C135  C     C_R   0.281287 0.150334 0.970734 -0.144648
C136  C     C_R   0.218020 0.659839 0.981170 -0.131598
C137  C     C_R   0.784641 0.644241 0.020363 -0.142262
C138  C     C_R   0.716020 0.145830 0.979790 -0.141667
C139  C     C_R   0.280080 0.154357 0.019820 -0.150565
C140  C     C_R   0.264165 0.621172 0.956545 0.034278
C141  C     C_R   0.736986 0.610201 0.044625 0.030616
C142  C     C_R   0.763254 0.110498 0.955421 0.030229
C143  C     C_R   0.215803 0.506560 0.184422 0.540098
C144  C     C_R   0.235866 0.110083 0.044792 0.031010
C145  C     C_R   0.260292 0.609013 0.055341 0.026500
C146  C     C_R   0.740072 0.604882 0.945591 0.030500
C147  C     C_R   0.760559 0.105994 0.054510 0.030766
C148  C     C_R   0.239759 0.098072 0.946196 0.030854
C149  C     C_R   0.445968 0.823987 0.816285 0.538777
C150  C     C_R   0.554411 0.823803 0.183572 0.539314
C151  C     C_R   0.946299 0.324062 0.816140 0.538854
C152  C     C_R   0.053869 0.324014 0.183743 0.540332
C153  C     C_1   0.250536 0.581361 0.103707 -0.075018
C154  C     C_3   0.491493 0.846095 0.953861 0.040424
C155  C     C_1   0.749420 0.579180 0.896869 -0.074806
C156  C     C_1   0.750786 0.079455 0.103105 -0.073668
C157  C     C_1   0.250036 0.073805 0.897675 -0.078323
C158  C     C_1   0.266430 0.630020 0.905963 -0.070856
C159  C     C_1   0.734329 0.621792 0.095129 -0.074915
C160  C     C_1   0.765677 0.121654 0.904865 -0.074875
C161  C     C_1   0.233194 0.122227 0.095161 -0.078526
C162  C     C_1   0.236863 0.550479 0.141884 -0.034721
C163  C     C_1   0.763123 0.549630 0.858423 -0.034321
C164  C     C_1   0.736903 0.049585 0.141479 -0.033861
C165  C     C_3   0.510508 0.846119 0.045763 0.046015
C166  C     C_1   0.263774 0.046775 0.858943 -0.035086
C167  C     C_1   0.471390 0.834675 0.639512 -0.023311
C168  C     C_1   0.529162 0.833503 0.360772 0.002100
C169  C     C_1   0.972158 0.333744 0.639987 -0.023164
C170  C     C_1   0.031082 0.333469 0.361354 -0.002668
C171  C     C_R   0.536214 0.788317 0.528797 0.095844
C172  C     C_R   0.541259 0.784488 0.479820 0.135925
C173  C     C_R   0.986462 0.255667 0.523841 0.096397
C174  C     C_R   0.991944 0.257145 0.474879 0.137461
C175  C     C_R   0.464242 0.903997 0.471200 -0.012840
C176  C     C_3   0.993152 0.349127 0.953364 0.046244
C177  C     C_R   0.460838 0.911551 0.521235 0.002848
C178  C     C_R   0.025255 0.427326 0.478248 -0.018933
C179  C     C_R   0.017470 0.427338 0.527901 0.000228
C180  C     C_R   0.495931 0.850543 0.549390 0.017526
C181  C     C_R   0.505523 0.841388 0.451283 0.036457
C182  C     C_R   0.998921 0.340315 0.550206 0.015074
C183  C     C_R   0.010288 0.342558 0.452208 0.037079
C184  C     C_1   0.515273 0.838304 0.401313 -0.020030
C185  C     C_1   0.485685 0.842655 0.599181 -0.068876
C186  C     C_1   0.018845 0.338747 0.402192 -0.019449
C187  C     C_3   0.007819 0.349030 0.046237 0.045720
C188  C     C_1   0.987353 0.338333 0.599828 -0.071281
C189  C     C_1   0.265010 0.629875 0.638614 -0.010184
C190  C     C_1   0.733223 0.634377 0.362609 0.005008
C191  C     C_1   0.766379 0.132785 0.637925 -0.002155
C192  C     C_1   0.233975 0.132643 0.361992 -0.011887
C193  C     C_R   0.214689 0.646507 0.524154 -0.116130
C194  C     C_R   0.743375 0.681117 0.482027 -0.105786
C195  C     C_R   0.791877 0.149060 0.517984 -0.100419
C196  C     C_R   0.238934 0.176887 0.481509 -0.101318
C197  C     C_R   0.275172 0.676490 0.816101 0.535783
C198  C     C_3   0.511745 0.736500 0.025498 -0.106776
C199  C     C_R   0.724939 0.675732 0.184093 0.536475
C200  C     C_R   0.775021 0.175674 0.815886 0.536884
C201  C     C_R   0.224822 0.175853 0.184100 0.538052
C202  C     C_R   0.212088 0.640118 0.475042 0.075037
C203  C     C_R   0.746305 0.670370 0.530982 0.095082
C204  C     C_R   0.785985 0.139792 0.469121 0.085421
C205  C     C_R   0.242802 0.165807 0.530370 0.087511
C206  C     C_R   0.283384 0.510159 0.477277 0.087947
C207  C     C_R   0.741384 0.492360 0.521070 0.092597
C208  C     C_R   0.714213 0.012865 0.481744 0.082980
Cr1   Cr    Cr6+3 0.250680 0.837130 0.748990 1.025924
Cr2   Cr    Cr6+3 0.623910 0.707720 0.250330 1.033879
Cr3   Cr    Cr6+3 0.876090 0.207720 0.749670 1.026072
Cr4   Cr    Cr6+3 0.123910 0.207720 0.250330 1.029973
Cr5   Cr    Cr6+3 0.749320 0.837130 0.251010 1.027982
Cr6   Cr    Cr6+3 0.750680 0.337130 0.748990 1.030144
Cr7   Cr    Cr6+3 0.249320 0.337130 0.251010 1.025575
Cr8   Cr    Cr6+3 0.378160 0.960100 0.750430 1.010292
Cr9   Cr    Cr6+3 0.621840 0.960100 0.249570 1.016149
Cr10  Cr    Cr6+3 0.878160 0.460100 0.750430 1.014402
Cr11  Cr    Cr6+3 0.121840 0.460100 0.249570 1.010190
Cr12  Cr    Cr6+3 0.376090 0.707720 0.749670 1.024546
H1    H     H_    0.183375 0.694168 0.962488 0.104674
H2    H     H_    0.735011 0.441699 0.449123 0.126963
H3    H     H_    0.237259 0.314090 0.541253 0.224994
H4    H     H_    0.343861 0.402328 0.477040 0.226725
H5    H     H_    0.291309 0.387644 0.438063 0.223939
H6    H     H_    0.732897 0.343226 0.515277 0.237969
H7    H     H_    0.781482 0.381644 0.554226 0.223213
H8    H     H_    0.655912 0.903006 0.490323 0.224076
H9    H     H_    0.641797 0.982417 0.446935 0.238179
H10   H     H_    0.261001 0.839951 0.512105 0.228407
H11   H     H_    0.300765 0.889500 0.554587 0.222324
H12   H     H_    0.410521 0.201504 0.930413 0.137256
H13   H     H_    0.694898 0.980871 0.554470 0.107554
H14   H     H_    0.473394 0.163884 0.899433 0.141706
H15   H     H_    0.406991 0.172786 0.868379 0.165958
H16   H     H_    0.433805 0.001050 0.885985 0.183536
H17   H     H_    0.367842 0.034414 0.910775 0.169081
H18   H     H_    0.404403 0.056857 0.986881 0.137556
H19   H     H_    0.473636 0.056467 0.970899 0.115435
H20   H     H_    0.587391 0.203630 0.071891 0.138078
H21   H     H_    0.520230 0.167683 0.096462 0.142065
H22   H     H_    0.581688 0.176076 0.133884 0.162671
H23   H     H_    0.556297 0.005391 0.114601 0.179470
H24   H     H_    0.252381 0.939209 0.447031 0.105483
H25   H     H_    0.625433 0.035787 0.096972 0.165858
H26   H     H_    0.603307 0.053615 0.017805 0.134975
H27   H     H_    0.532983 0.063413 0.024005 0.112516
H28   H     H_    0.913828 0.705371 0.925376 0.139530
H29   H     H_    0.980978 0.668597 0.901039 0.140500
H30   H     H_    0.919559 0.676534 0.863532 0.163354
H31   H     H_    0.942415 0.505472 0.882743 0.181568
H32   H     H_    0.874831 0.539071 0.902484 0.166206
H33   H     H_    0.900736 0.556889 0.980647 0.136590
H34   H     H_    0.972530 0.562293 0.971631 0.117600
H35   H     H_    0.446861 0.712397 0.976093 0.136328
H36   H     H_    0.084939 0.707755 0.075001 0.138864
H37   H     H_    0.017459 0.670191 0.098697 0.141435
H38   H     H_    0.078406 0.678498 0.136748 0.161895
H39   H     H_    0.056613 0.507248 0.117244 0.180845
H40   H     H_    0.124085 0.542289 0.097524 0.166823
H41   H     H_    0.097691 0.561008 0.019379 0.137560
H42   H     H_    0.025808 0.563444 0.028657 0.117197
H43   H     H_    0.601720 0.762353 0.962101 0.221224
H44   H     H_    0.592321 0.813191 0.909338 0.224451
H45   H     H_    0.400934 0.761863 0.039208 0.221699
H46   H     H_    0.555578 0.713238 0.023629 0.128900
H47   H     H_    0.411831 0.814625 0.092086 0.223046
H48   H     H_    0.103885 0.268051 0.965205 0.222127
H49   H     H_    0.093285 0.314378 0.911817 0.223953
H50   H     H_    0.898173 0.263370 0.034139 0.221706
H51   H     H_    0.908297 0.309143 0.087591 0.223630
H52   H     H_    0.737092 0.815732 0.047523 0.164165
H53   H     H_    0.713388 0.790469 0.987255 0.192865
H54   H     H_    0.761628 0.889146 0.998887 0.155004
H55   H     H_    0.666816 0.952025 0.985942 0.200294
H56   H     H_    0.687180 0.969893 0.045830 0.166661
H57   H     H_    0.948138 0.216145 0.973275 0.129628
H58   H     H_    0.624875 0.866644 0.077560 0.134731
H59   H     H_    0.628260 0.783999 0.032619 0.133690
H60   H     H_    0.302644 0.778199 0.019232 0.188144
H61   H     H_    0.301295 0.890474 0.051512 0.168674
H62   H     H_    0.244871 0.862539 0.012174 0.139235
H63   H     H_    0.326583 0.983753 0.985056 0.173845
H64   H     H_    0.293181 0.902710 0.945738 0.147511
H65   H     H_    0.378472 0.862286 0.922545 0.122453
H66   H     H_    0.373432 0.779969 0.966894 0.120525
H67   H     H_    0.235188 0.321739 0.048723 0.161985
H68   H     H_    0.054516 0.218148 0.025970 0.130599
H69   H     H_    0.209626 0.298032 0.988807 0.191568
H70   H     H_    0.258383 0.396178 0.999959 0.154551
H71   H     H_    0.164123 0.462186 0.990449 0.198381
H72   H     H_    0.185501 0.475008 0.049908 0.163979
H73   H     H_    0.121627 0.373250 0.080575 0.134285
H74   H     H_    0.126694 0.289785 0.036401 0.130267
H75   H     H_    0.790674 0.290554 0.010426 0.194172
H76   H     H_    0.741515 0.387900 0.998771 0.155123
H77   H     H_    0.765566 0.313572 0.950356 0.164011
H78   H     H_    0.835389 0.455040 0.009317 0.200186
H79   H     H_    0.345457 0.550641 0.962805 0.106011
H80   H     H_    0.814103 0.467874 0.949546 0.163802
H81   H     H_    0.879046 0.368641 0.919055 0.134591
H82   H     H_    0.874807 0.284814 0.963224 0.130143
H83   H     H_    0.502194 0.450855 0.954014 0.145566
H84   H     H_    0.442315 0.510254 0.981227 0.145382
H85   H     H_    0.433087 0.443244 0.927391 0.136533
H86   H     H_    0.434060 0.622603 0.910443 0.165768
H87   H     H_    0.491820 0.559538 0.883944 0.161018
H88   H     H_    0.542251 0.683694 0.913012 0.139860
H89   H     H_    0.548558 0.608607 0.962579 0.131733
H90   H     H_    0.652522 0.550964 0.037361 0.094869
H91   H     H_    0.481262 0.520888 0.131702 0.163067
H92   H     H_    0.461355 0.457319 0.078116 0.141313
H93   H     H_    0.528247 0.431403 0.106144 0.142378
H94   H     H_    0.542348 0.536005 0.036079 0.149179
H95   H     H_    0.561938 0.600210 0.089191 0.171165
H96   H     H_    0.467470 0.680757 0.090294 0.162989
H97   H     H_    0.447185 0.619510 0.038699 0.131391
H98   H     H_    0.028823 0.018806 0.871280 0.162340
H99   H     H_    0.048116 0.960167 0.926282 0.140668
H100  H     H_    0.982468 0.928931 0.897434 0.141901
H101  H     H_    0.847518 0.050366 0.962561 0.096117
H102  H     H_    0.964859 0.037957 0.965465 0.153071
H103  H     H_    0.945651 0.096889 0.910899 0.170161
H104  H     H_    0.038162 0.183232 0.909880 0.162598
H105  H     H_    0.058817 0.125453 0.962830 0.131587
H106  H     H_    0.976952 0.016514 0.127678 0.162662
H107  H     H_    0.958155 0.957560 0.072618 0.141429
H108  H     H_    0.024341 0.928854 0.101179 0.141281
H109  H     H_    0.040223 0.039173 0.033342 0.153335
H110  H     H_    0.058853 0.098483 0.087961 0.170909
H111  H     H_    0.965108 0.180675 0.089364 0.162507
H112  H     H_    0.820515 0.673799 0.039324 0.106334
H113  H     H_    0.157595 0.028718 0.038995 0.097098
H114  H     H_    0.945201 0.122632 0.036262 0.128420
H115  H     H_    0.341052 0.535559 0.049454 0.102862
H116  H     H_    0.656892 0.539482 0.950546 0.100654
H117  H     H_    0.843175 0.038774 0.049401 0.101357
H118  H     H_    0.162939 0.012726 0.952399 0.100275
H119  H     H_    0.179432 0.681489 0.048683 0.109140
H120  H     H_    0.822953 0.669412 0.953148 0.110914
H121  H     H_    0.678401 0.172826 0.047100 0.111602
H122  H     H_    0.316066 0.184014 0.952108 0.113367
H123  H     H_    0.417385 0.104339 0.145125 0.152702
H124  H     H_    0.680232 0.175748 0.960871 0.105452
H125  H     H_    0.397274 0.175202 0.093884 0.138304
H126  H     H_    0.344178 0.126639 0.132897 0.168485
H127  H     H_    0.352308 0.029032 0.058249 0.175579
H128  H     H_    0.367023 0.958688 0.110525 0.177308
H129  H     H_    0.467916 0.989424 0.098318 0.150262
H130  H     H_    0.454352 0.059927 0.048876 0.112459
H131  H     H_    0.570315 0.110694 0.851615 0.149809
H132  H     H_    0.615936 0.160615 0.896796 0.143247
H133  H     H_    0.646027 0.102568 0.845574 0.165620
H134  H     H_    0.652008 0.990718 0.913395 0.181983
H135  H     H_    0.313053 0.194082 0.038229 0.109280
H136  H     H_    0.605360 0.944462 0.868430 0.163882
H137  H     H_    0.524011 0.003908 0.909831 0.152102
H138  H     H_    0.562792 0.062409 0.952425 0.105176
H139  H     H_    0.925857 0.602774 0.149035 0.149936
H140  H     H_    0.883872 0.660357 0.103596 0.143065
H141  H     H_    0.849874 0.599052 0.152262 0.165831
H142  H     H_    0.844866 0.494606 0.081689 0.180881
H143  H     H_    0.888127 0.440975 0.126875 0.168125
H144  H     H_    0.972196 0.503296 0.089808 0.154977
H145  H     H_    0.937080 0.563450 0.046155 0.103442
H146  H     H_    0.189049 0.699988 0.542562 0.131942
H147  H     H_    0.073492 0.612772 0.853360 0.149014
H148  H     H_    0.116412 0.666288 0.899471 0.143164
H149  H     H_    0.149428 0.608346 0.849445 0.166119
H150  H     H_    0.154533 0.499566 0.918467 0.181098
H151  H     H_    0.111346 0.448653 0.872538 0.165925
H152  H     H_    0.027102 0.505117 0.909899 0.154394
H153  H     H_    0.060863 0.566483 0.953983 0.104692
H154  H     H_    0.594996 0.772657 0.580271 0.225217
H155  H     H_    0.546996 0.680351 0.577080 0.245288
H156  H     H_    0.622346 0.739484 0.471133 0.252875
H157  H     H_    0.744032 0.753666 0.466487 0.141177
H158  H     H_    0.573540 0.648915 0.468961 0.256285
H159  H     H_    0.997573 0.145615 0.570915 0.242656
H160  H     H_    0.929455 0.182436 0.564028 0.235808
H161  H     H_    0.007304 0.115115 0.459098 0.253532
H162  H     H_    0.938633 0.148622 0.454853 0.243517
H163  H     H_    0.396056 0.083952 0.365447 0.157944
H164  H     H_    0.360181 0.126564 0.417980 0.165753
H165  H     H_    0.417847 0.196380 0.393607 0.155547
H166  H     H_    0.447833 0.104064 0.464708 0.166940
H167  H     H_    0.485533 0.064447 0.413145 0.169146
H168  H     H_    0.821107 0.202402 0.532496 0.107677
H169  H     H_    0.420363 0.922464 0.404005 0.142817
H170  H     H_    0.379880 0.956415 0.452408 0.136473
H171  H     H_    0.384784 0.174590 0.560847 0.164057
H172  H     H_    0.385212 0.109737 0.616535 0.184095
H173  H     H_    0.436651 0.204438 0.605308 0.148526
H174  H     H_    0.480173 0.040462 0.597552 0.175099
H175  H     H_    0.480454 0.104402 0.542356 0.158687
H176  H     H_    0.388810 0.014667 0.521232 0.147143
H177  H     H_    0.395383 0.943537 0.572595 0.143918
H178  H     H_    0.052141 0.715853 0.432541 0.167376
H179  H     H_    0.232979 0.249067 0.466424 0.107189
H180  H     H_    0.059060 0.645751 0.378614 0.179401
H181  H     H_    0.994868 0.712789 0.390553 0.145540
H182  H     H_    0.979227 0.536965 0.405441 0.170887
H183  H     H_    0.975045 0.605101 0.459608 0.163580
H184  H     H_    0.078193 0.559189 0.476362 0.161452
H185  H     H_    0.079814 0.490100 0.424524 0.158213
H186  H     H_    0.093611 0.676211 0.587283 0.153171
H187  H     H_    0.063688 0.614595 0.638023 0.158975
H188  H     H_    0.138420 0.606286 0.626269 0.159231
H189  H     H_    0.090633 0.452550 0.602941 0.170702
H190  H     H_    0.314871 0.473805 0.546641 0.122466
H191  H     H_    0.119194 0.514115 0.552203 0.168319
H192  H     H_    0.021661 0.586763 0.536169 0.140141
H193  H     H_    0.994440 0.524982 0.585149 0.154613
H194  H     H_    0.199214 0.750682 0.429233 0.229396
H195  H     H_    0.149938 0.744731 0.471506 0.223011
H196  H     H_    0.713177 0.760906 0.579703 0.227547
H197  H     H_    0.755183 0.818336 0.540958 0.234605
H198  H     H_    0.845239 0.155721 0.418596 0.234455
H199  H     H_    0.843443 0.249607 0.456711 0.228325
H200  H     H_    0.202449 0.244313 0.580187 0.232059
N1    N     N_3   0.572285 0.727640 0.557196 -0.646623
N2    N     N_3   0.740866 0.395750 0.541269 -0.620567
N3    N     N_3   0.674475 0.943083 0.463021 -0.640427
N4    N     N_3   0.260798 0.892428 0.538913 -0.631600
N5    N     N_3   0.598474 0.828998 0.944903 -0.636418
N6    N     N_3   0.404797 0.828419 0.056339 -0.638594
N7    N     N_3   0.099854 0.333272 0.947011 -0.635128
N8    N     N_3   0.901340 0.328512 0.052519 -0.634157
N9    N     N_3   0.582240 0.720767 0.458474 -0.603008
N10   N     N_3   0.967190 0.167430 0.546258 -0.642876
N11   N     N_3   0.980091 0.170704 0.447781 -0.614997
N12   N     N_3   0.174356 0.702012 0.448715 -0.650440
N13   N     N_3   0.751139 0.754616 0.561088 -0.628135
N14   N     N_3   0.817961 0.200993 0.437664 -0.636988
N15   N     N_3   0.240041 0.249583 0.560980 -0.641752
N16   N     N_3   0.318149 0.439908 0.453103 -0.623790
O1    O     O_R   0.237900 0.735050 0.799950 -0.514850
O2    O     O_R   0.566580 0.739640 0.301090 -0.497293
O3    O     O_R   0.933420 0.239640 0.698910 -0.507159
O4    O     O_R   0.066580 0.239640 0.301090 -0.498040
O5    O     O_R   0.323550 0.666510 0.701520 -0.492648
O6    O     O_R   0.676450 0.666510 0.298480 -0.489751
O7    O     O_R   0.823550 0.166510 0.701520 -0.495713
O8    O     O_R   0.176450 0.166510 0.298480 -0.492157
O9    O     O_3   0.334980 0.834990 0.749700 -0.250258
O10   O     O_3   0.665020 0.834990 0.250300 -0.251479
O11   O     O_3   0.834980 0.334990 0.749700 -0.251810
O12   O     O_R   0.762100 0.735050 0.200050 -0.514136
O13   O     O_3   0.165020 0.334990 0.250300 -0.251519
O14   O     O_R   0.256160 0.936210 0.796950 -0.494418
O15   O     O_R   0.743840 0.936210 0.203050 -0.493766
O16   O     O_R   0.756160 0.436210 0.796950 -0.493401
O17   O     O_R   0.243840 0.436210 0.203050 -0.492738
O18   O     O_R   0.333710 0.029860 0.801630 -0.515258
O19   O     O_R   0.666290 0.029860 0.198370 -0.516172
O20   O     O_R   0.833710 0.529860 0.801630 -0.516377
O21   O     O_R   0.166290 0.529860 0.198370 -0.516474
O22   O     O_R   0.425340 0.901920 0.798280 -0.504609
O23   O     O_R   0.737900 0.235050 0.799950 -0.514082
O24   O     O_R   0.574660 0.901920 0.201720 -0.506915
O25   O     O_R   0.925340 0.401920 0.798280 -0.506526
O26   O     O_R   0.074660 0.401920 0.201720 -0.505568
O27   O     O_R   0.433530 0.738890 0.801610 -0.511763
O28   O     O_R   0.566470 0.738890 0.198390 -0.509507
O29   O     O_R   0.933530 0.238890 0.801610 -0.507639
O30   O     O_R   0.066470 0.238890 0.198390 -0.507681
O31   O     O_R   0.323650 0.665810 0.796720 -0.495356
O32   O     O_R   0.676350 0.665810 0.203280 -0.495147
O33   O     O_R   0.823650 0.165810 0.796720 -0.493673
O34   O     O_R   0.262100 0.235050 0.200050 -0.513980
O35   O     O_R   0.176350 0.165810 0.203280 -0.494626
O36   O     O_R   0.237790 0.735800 0.697250 -0.507998
O37   O     O_R   0.762210 0.735800 0.302750 -0.507713
O38   O     O_R   0.737790 0.235800 0.697250 -0.502219
O39   O     O_R   0.262210 0.235800 0.302750 -0.509743
O40   O     O_R   0.256050 0.936910 0.701750 -0.488078
O41   O     O_R   0.743950 0.936910 0.298250 -0.493106
O42   O     O_R   0.756050 0.436910 0.701750 -0.490790
O43   O     O_R   0.243950 0.436910 0.298250 -0.492025
O44   O     O_R   0.333600 0.030610 0.698930 -0.518270
O45   O     O_R   0.425240 0.902610 0.703070 -0.497510
O46   O     O_R   0.666400 0.030610 0.301070 -0.507067
O47   O     O_R   0.833600 0.530610 0.698930 -0.506731
O48   O     O_R   0.166400 0.530610 0.301070 -0.510332
O49   O     O_R   0.574760 0.902610 0.296930 -0.498159
O50   O     O_R   0.925240 0.402610 0.703070 -0.495832
O51   O     O_R   0.074760 0.402610 0.296930 -0.501423
O52   O     O_R   0.433420 0.739640 0.698910 -0.504095

loop_
_geom_bond_atom_site_label_1
_geom_bond_atom_site_label_2
_ccdc_geom_bond_type
C104  H72   S    
C63   H145  S    
Cr7   O39   S    
C62   H133  S    
C208  N3    S    
Cr4   O35   S    
C136  C140  A    
C114  C115  S    
C68   C176  S    
C101  C200  S    
C121  H109  S    
C175  C177  A    
Cr3   O29   S    
C151  O25   A    
C133  C137  A    
C109  H88   S    
C110  H87   S    
C33   O43   A    
C143  O21   A    
C106  H81   S    
C43   C99   S    
Cr2   O32   S    
C107  H80   S    
C171  N1    S    
C36   O2    A    
C106  C107  S    
C65   H139  S    
C167  C185  T    
C36   C168  S    
C42   O8    A    
C120  H111  S    
C152  O30   A    
C110  C111  S    
C122  H108  S    
Cr5   O10   S    
C34   O52   A    
Cr11  O51   S    
C14   C203  A    
C113  C201  S    
C22   C190  T    
Cr8   O45   S    
C81   H191  S    
C1    O14   A    
C138  H124  S    
H45   N6    S    
H6    N2    S    
C134  H121  S    
C104  C105  S    
C91   H32   S    
C112  C164  S    
Cr4   O8    S    
C71   H167  S    
H50   N8    S    
C31   O46   A    
C102  H60   S    
C88   H21   S    
C54   C152  S    
C63   H144  S    
C66   H153  S    
C135  C139  A    
C62   H132  S    
C40   O37   A    
C5    C207  A    
Cr2   O2    S    
C150  O24   A    
C16   C20   S    
C33   O48   A    
C120  H114  S    
C149  O27   A    
C47   C93   S    
C8    C193  A    
C82   H186  S    
C173  N10   S    
C56   H130  S    
C74   H174  S    
C66   H152  S    
C127  C145  A    
C173  C182  A    
C16   C205  A    
C207  N2    S    
C34   C167  S    
C24   C176  S    
C103  H74   S    
C133  H120  S    
C67   H151  S    
Cr10  O50   S    
C78   H181  S    
Cr9   O49   S    
C85   H15   S    
C123  H79   S    
C107  H78   S    
C70   H169  S    
C55   C151  S    
C92   H30   S    
H158  N9    S    
C76   C178  S    
C132  C163  S    
C165  C198  S    
C122  H106  S    
Cr5   O12   S    
Cr6   O11   S    
Cr2   O6    S    
C149  O22   A    
C46   C53   T    
Cr3   O11   S    
C3    N4    S    
C105  H69   S    
C57   C187  S    
Cr1   O36   S    
C113  C161  T    
C125  C129  A    
H47   N6    S    
H9    N3    S    
Cr5   O37   S    
C62   H131  S    
C44   C48   S    
C59   H126  S    
C2    C109  S    
C86   H27   S    
C13   C187  S    
C199  O12   A    
C43   C83   S    
C84   H17   S    
C25   C192  T    
C79   C158  T    
C97   C98   S    
C92   H28   S    
H11   N4    S    
Cr6   O42   S    
C108  H77   S    
C37   C169  S    
Cr8   O9    S    
C118  H102  S    
C193  H146  S    
C11   C25   S    
C60   H137  S    
Cr10  O47   S    
C172  N9    S    
C90   C159  T    
Cr12  O5    S    
C98   H54   S    
C140  C158  S    
Cr1   O40   S    
C123  C127  A    
C172  C181  A    
C141  C159  S    
C94   H40   S    
C1    O18   A    
C101  C160  T    
Cr7   O43   S    
C107  C108  S    
C12   C202  A    
C89   C91   S    
C43   C154  S    
C6    C208  A    
Cr4   O13   S    
C175  C181  A    
C66   C67   S    
C2    C154  S    
H4    N16   S    
C53   C149  S    
C69   H147  S    
C102  H61   S    
Cr1   O9    S    
C94   C95   S    
C76   H185  S    
C200  O23   A    
H3    N15   S    
C108  H75   S    
C87   H25   S    
C47   C50   S    
C135  H122  S    
C129  C147  A    
C41   C191  S    
C80   C179  S    
C114  H96   S    
C131  C136  A    
C183  C186  S    
C91   C92   S    
C132  O16   A    
C90   C199  S    
C155  C163  T    
C82   H188  S    
C12   C17   S    
C5    C9    A    
C29   C30   S    
C44   C96   S    
C26   C33   S    
C21   C189  T    
C83   C84   S    
C114  H97   S    
C182  C188  S    
C19   C28   T    
C39   O36   A    
C72   H164  S    
H194  N12   S    
C89   H34   S    
C124  C141  A    
C47   C187  S    
H161  N11   S    
C103  C104  S    
H159  N10   S    
C120  C121  S    
C93   H42   S    
C99   H66   S    
C111  H85   S    
C48   C154  S    
C201  O35   A    
Cr12  O31   S    
C127  H115  S    
C128  H116  S    
Cr8   O22   S    
C11   C196  A    
C6    H13   S    
C15   C208  A    
C50   N7    S    
C58   H127  S    
C77   H183  S    
C112  O19   A    
Cr9   O46   S    
H43   N5    S    
C106  H82   S    
C71   C72   S    
C117  C118  S    
C128  C146  A    
C1    C166  S    
C126  C144  A    
C56   C58   S    
H51   N8    S    
C80   H192  S    
C148  C157  S    
C61   C62   S    
C130  H118  S    
Cr10  O20   S    
Cr12  O52   S    
C63   C64   S    
C116  H91   S    
H156  N9    S    
C34   O45   A    
C117  H105  S    
C196  H179  S    
C52   C150  S    
C114  C198  S    
C75   H172  S    
C30   O44   A    
H197  N13   S    
C95   H36   S    
C3    C16   A    
C54   C57   T    
C95   H38   S    
Cr9   O10   S    
Cr8   O44   S    
C197  O31   A    
C144  C161  S    
C73   C74   S    
H7    N2    S    
C2    H35   S    
C13   C120  S    
C55   C68   T    
C81   H189  S    
C117  H104  S    
C91   H31   S    
C77   C78   S    
Cr2   O10   S    
C15   C19   S    
C134  C147  A    
Cr3   O7    S    
C24   C117  S    
C105  H67   S    
C84   H16   S    
C3    C7    A    
Cr10  O11   S    
C88   H22   S    
H160  N10   S    
C24   H57   S    
C126  C130  A    
C111  H84   S    
C88   H20   S    
C119  H100  S    
Cr7   O13   S    
C64   H143  S    
C115  H94   S    
C14   C18   S    
Cr5   O15   S    
H5    N16   S    
C151  O29   A    
C146  C155  S    
C7    H24   S    
C32   O42   A    
C124  H90   S    
C70   C71   S    
C73   H176  S    
C45   C89   S    
C74   H175  S    
C178  C183  A    
C124  C128  A    
C179  C182  A    
C104  H71   S    
C83   H18   S    
C14   C207  A    
C80   H193  S    
Cr11  O21   S    
C121  H110  S    
C178  C179  A    
C46   C154  S    
C103  H73   S    
C59   H123  S    
C47   C103  S    
C110  H86   S    
C129  H117  S    
C85   H14   S    
C39   O5    A    
C51   C63   S    
Cr12  O9    S    
C76   H184  S    
C138  C142  A    
C70   H170  S    
C86   C87   S    
C36   O49   A    
H10   N4    S    
C195  C204  A    
C65   H140  S    
C98   H52   S    
C58   C59   S    
C92   H29   S    
C193  C202  A    
C60   C61   S    
C12   C206  A    
C49   C165  S    
C137  H112  S    
C122  H107  S    
C116  H93   S    
C61   H134  S    
C170  C186  T    
H199  N14   S    
C41   O38   A    
C84   C85   S    
C147  C156  S    
C69   H149  S    
C121  C122  S    
H200  N15   S    
C139  H135  S    
Cr7   O34   S    
H195  N12   S    
C203  N13   S    
C38   C170  S    
C132  O20   A    
Cr9   O24   S    
H44   N5    S    
C41   O7    A    
C59   H125  S    
C181  C184  S    
C137  C141  A    
C174  N11   S    
C27   C32   S    
C31   O41   A    
C96   H59   S    
C28   C31   S    
C195  H168  S    
C169  C188  T    
C197  O1    A    
C174  C183  A    
C6    C10   A    
C119  H98   S    
C125  H101  S    
C153  C162  T    
C64   C65   S    
C194  H157  S    
C109  C110  S    
C118  H103  S    
C60   H138  S    
C100  H63   S    
C56   H129  S    
C143  O17   A    
C97   H56   S    
H198  N14   S    
C51   C187  S    
H49   N7    S    
C87   C88   S    
Cr6   O38   S    
Cr8   O18   S    
C35   C52   T    
C133  C146  A    
Cr6   O16   S    
C115  C116  S    
C171  C172  A    
C112  O15   A    
C93   C94   S    
C79   C197  S    
C78   H180  S    
C102  H62   S    
C4    H190  S    
C32   O47   A    
C4    C8    A    
C23   C191  T    
C81   C82   S    
C108  H76   S    
C173  C174  A    
C7    C11   A    
C17   C26   T    
C15   C204  A    
C30   O40   A    
C198  H46   S    
Cr9   O19   S    
C206  N16   S    
C9    C22   S    
Cr3   O33   S    
C61   H136  S    
C45   C51   S    
Cr4   O4    S    
C50   C176  S    
C196  C205  A    
C118  C119  S    
C105  H70   S    
C136  H1    S    
C168  C184  T    
C202  N12   S    
C38   O51   A    
Cr10  O25   S    
C115  H95   S    
C70   C175  S    
H155  N1    S    
C143  C162  S    
C44   C165  S    
C145  C153  S    
C150  O28   A    
C86   H26   S    
C89   H33   S    
C71   H166  S    
C100  H64   S    
C37   O50   A    
C85   H12   S    
C44   C86   S    
C48   C60   S    
H48   N7    S    
C93   H41   S    
C20   C29   T    
C99   H65   S    
C83   H19   S    
C201  O34   A    
C74   C75   S    
Cr7   O17   S    
C126  H113  S    
C130  C148  A    
C48   N5    S    
C72   H165  S    
Cr11  O26   S    
C76   C77   S    
C45   C176  S    
C43   C49   S    
C73   H177  S    
C58   H128  S    
C123  C140  A    
C13   C24   S    
C67   C69   S    
C131  C145  A    
C98   H53   S    
C97   H55   S    
C139  C144  A    
C13   H68   S    
C87   H23   S    
C99   C100  S    
C200  O33   A    
C125  C142  A    
C177  C180  A    
C96   C97   S    
C9    C194  A    
C100  C102  S    
C8    C21   S    
Cr12  O27   S    
C64   H142  S    
C50   C66   S    
C77   H182  S    
C116  H92   S    
C152  O26   A    
C51   N8    S    
C67   H150  S    
C42   O39   A    
C78   H178  S    
C49   N6    S    
C69   H148  S    
C75   H171  S    
C171  C180  A    
C40   O6    A    
C37   O3    A    
C94   H39   S    
C38   O4    A    
C45   C106  S    
C199  O32   A    
C95   H37   S    
C2    C198  S    
Cr5   O41   S    
Cr6   O23   S    
C18   C27   T    
C142  C160  S    
C80   C81   S    
C157  C166  T    
C134  C138  A    
C4    C206  A    
C10   C23   S    
C49   C56   S    
H154  N1    S    
C82   H187  S    
Cr1   O1    S    
C96   H58   S    
Cr2   O28   S    
C73   C177  S    
C10   C195  A    
C205  N15   S    
H8    N3    S    
C111  H83   S    
C194  C203  A    
C65   H141  S    
C35   C165  S    
C119  H99   S    
C5    H2    S    
C204  N14   S    
C131  H119  S    
Cr11  O13   S    
Cr4   O30   S    
H196  N13   S    
C180  C185  S    
C72   H163  S    
Cr3   O3    S    
C42   C192  S    
C40   C190  S    
C156  C164  T    
C135  C148  A    
C75   H173  S    
C109  H89   S    
C39   C189  S    
Cr11  O48   S    
Cr1   O14   S    
H162  N11   S    
