data_mof_unit_39739.cif
_audit_creation_date              2012-12-10T20:26:30-0500
_audit_creation_method            fapswitch 2.2
_symmetry_space_group_name_H-M    P1
_symmetry_Int_Tables_number       1
_space_group_crystal_system       triclinic
_cell_length_a                    10.693415
_cell_length_b                    10.742029
_cell_length_c                    9.878926
_cell_angle_alpha                 88.738744
_cell_angle_beta                  90.699297
_cell_angle_gamma                 90.409477
_cell_volume                      1134.39581252

loop_
_atom_site_label
_atom_site_type_symbol
_atom_type_description
_atom_site_fract_x
_atom_site_fract_y
_atom_site_fract_z
_atom_type_partial_charge
C1    C     C_R   0.504074 0.259877 0.500955 0.914496
C2    C     C_R   0.594883 0.553668 0.071806 -0.128333
C3    C     C_R   0.594988 0.553470 0.928006 -0.102467
C4    C     C_R   0.262530 0.500838 0.499260 1.001442
C5    C     C_R   0.398174 0.457691 0.928215 0.203460
C6    C     C_3   0.347245 0.329877 0.920881 -0.569774
C7    C     C_3   0.350194 0.324109 0.074206 0.280957
C8    C     C_R   0.501291 0.739833 0.498755 0.910306
C9    C     C_R   0.737376 0.506830 0.500707 0.926179
C10   C     C_2   0.932518 0.544375 0.389435 -0.134296
C11   C     C_2   0.868387 0.530103 0.503737 -0.342428
C12   C     C_R   0.522394 0.128235 0.500926 -0.044219
C13   C     C_2   0.067358 0.552004 0.394525 -0.049054
C14   C     C_2   0.130250 0.498992 0.497764 -0.329861
C15   C     C_R   0.529442 0.059545 0.621769 0.033290
C16   C     C_R   0.535984 0.067099 0.377380 -0.157453
C17   C     C_R   0.533325 0.938135 0.375772 -0.183862
C18   C     C_R   0.515575 0.871227 0.497441 -0.042173
C19   C     C_R   0.520919 0.933005 0.619527 -0.011452
C20   C     C_3   0.444333 0.924338 0.745656 0.341508
C21   C     C_3   0.456011 0.065112 0.748817 -0.522322
C22   C     C_R   0.398371 0.455734 0.071232 0.165239
H1    H     H_    0.886739 0.546868 0.290620 0.187814
H2    H     H_    0.085868 0.450434 0.581915 0.147574
H3    H     H_    0.541026 0.117885 0.281685 0.162350
H4    H     H_    0.537695 0.892049 0.279516 0.170505
H5    H     H_    0.493734 0.876162 0.831280 0.086751
H6    H     H_    0.366502 0.115706 0.732754 0.249354
H7    H     H_    0.122652 0.255754 0.339883 0.381541
H8    H     H_    0.183829 0.700180 0.743946 0.375485
H9    H     H_    0.515651 0.095502 0.835021 0.166364
H10   H     H_    0.672591 0.595268 0.125847 0.153739
H11   H     H_    0.672838 0.594731 0.873963 0.150946
H12   H     H_    0.252843 0.328153 0.872508 0.252422
H13   H     H_    0.416543 0.268713 0.876447 0.180710
H14   H     H_    0.419023 0.256284 0.116728 0.088747
H15   H     H_    0.911609 0.539147 0.603042 0.162431
H16   H     H_    0.115421 0.596018 0.309606 0.202826
N1    N     N_R   0.499170 0.499140 0.142800 -0.142036
N2    N     N_R   0.499170 0.499180 0.857150 -0.098087
O1    O     O_R   0.500020 0.316790 0.614690 -0.626962
O2    O     O_2   0.131805 0.198846 0.074645 -0.251855
O3    O     O_3   0.209640 0.270640 0.309862 -0.543973
O4    O     O_2   0.202984 0.942810 0.818379 -0.259957
O5    O     O_2   0.241115 0.900341 0.579586 -0.297980
O6    O     O_3   0.273377 0.720977 0.758061 -0.534077
O7    O     O_R   0.500000 0.316760 0.385350 -0.614808
O8    O     O_R   0.319080 0.500020 0.614640 -0.594925
O9    O     O_R   0.319070 0.499980 0.385300 -0.566060
O10   O     O_R   0.500000 0.683240 0.614650 -0.590866
O11   O     O_R   0.499980 0.683210 0.385310 -0.636357
O12   O     O_R   0.680930 0.500020 0.614700 -0.630217
O13   O     O_R   0.680920 0.499980 0.385360 -0.628237
O14   O     O_2   0.122734 0.421795 0.121202 -0.325960
S1    S     S_3+6 0.197198 0.304871 0.143504 0.044415
S2    S     S_3+6 0.284671 0.874243 0.722637 0.034186
Zn1   Zn    Zn3+2 0.500010 0.500020 0.653130 0.992826
Zn2   Zn    Zn3+2 0.499990 0.499980 0.346870 0.992190

loop_
_geom_bond_atom_site_label_1
_geom_bond_atom_site_label_2
_ccdc_geom_bond_type
O13   Zn2   S    
C6    C7    S    
C20   H5    S    
O2    S1    D    
O9    Zn2   S    
C7    C22   S    
C9    C11   S    
C7    H14   S    
O4    S2    D    
C19   C20   S    
C12   C15   A    
C7    S1    S    
C4    O9    A    
C20   S2    S    
C2    C3    A    
O1    Zn1   S    
O8    Zn1   S    
O11   Zn2   S    
C13   C14   D    
H7    O3    S    
O7    Zn2   S    
C15   C19   A    
C21   H9    S    
C8    O11   A    
C13   H16   S    
C9    O12   A    
C12   C16   A    
C17   H4    S    
N1    Zn2   S    
C1    O1    A    
C21   H6    S    
C3    N2    A    
C17   C18   A    
C4    C14   S    
C5    C6    S    
C10   H1    S    
C8    C18   S    
C5    N2    A    
C9    O13   A    
C10   C11   D    
C3    H11   S    
C14   H2    S    
O12   Zn1   S    
C8    O10   A    
C15   C21   S    
C20   C21   S    
C2    H10   S    
C18   C19   A    
C4    O8    A    
C6    H13   S    
O3    S1    S    
C16   H3    S    
C11   H15   S    
O14   S1    D    
C1    O7    A    
N2    Zn1   S    
O10   Zn1   S    
C22   N1    A    
C2    N1    A    
H8    O6    S    
C1    C12   S    
C5    C22   A    
C6    H12   S    
O5    S2    D    
C16   C17   A    
C10   C13   S    
O6    S2    S    
