data_mof_unit_31078.cif
_audit_creation_date              2012-10-26T20:19:13-0400
_audit_creation_method            fapswitch 2.2
_symmetry_space_group_name_H-M    P1
_symmetry_Int_Tables_number       1
_space_group_crystal_system       triclinic
_cell_length_a                    14.99624
_cell_length_b                    12.986456
_cell_length_c                    11.762569
_cell_angle_alpha                 99.416331
_cell_angle_beta                  92.562124
_cell_angle_gamma                 91.938357
_cell_volume                      2255.64379681

loop_
_atom_site_label
_atom_site_type_symbol
_atom_type_description
_atom_site_fract_x
_atom_site_fract_y
_atom_site_fract_z
_atom_type_partial_charge
C1    C     C_R   0.498829 0.299365 0.478896 0.528367
C2    C     C_R   0.502060 0.875696 0.642954 -0.146282
C3    C     C_R   0.500521 0.138848 0.565530 -0.141289
C4    C     C_R   0.500056 0.860989 0.434172 -0.137292
C5    C     C_R   0.500690 0.030852 0.555200 0.040924
C6    C     C_R   0.499754 0.969014 0.444461 0.041897
C7    C     C_R   0.448377 0.375488 0.024805 -0.188920
C8    C     C_R   0.546915 0.627735 0.974944 -0.204476
C9    C     C_R   0.445957 0.392070 0.145144 -0.023072
C10   C     C_R   0.548430 0.611066 0.854375 -0.015648
C11   C     C_R   0.526169 0.555032 0.157330 0.425545
C12   C     C_R   0.501264 0.700613 0.521066 0.536596
C13   C     C_R   0.479226 0.442646 0.844809 0.418993
C14   C     C_R   0.518862 0.546988 0.033867 -0.037284
C15   C     C_R   0.482215 0.454231 0.967403 -0.010398
C16   C     C_R   0.329432 0.502320 0.501680 0.526029
C17   C     C_R   0.670522 0.496370 0.498545 0.531622
C18   C     C_R   0.815625 0.583415 0.542968 -0.157731
C19   C     C_R   0.184701 0.413044 0.463031 -0.158375
C20   C     C_R   0.766714 0.492114 0.496450 -0.005363
C21   C     C_R   0.233386 0.505410 0.505831 0.003108
C22   C     C_R   0.809193 0.399550 0.451790 -0.001990
C23   C     C_R   0.044399 0.315984 0.420462 -0.141205
C24   C     C_R   0.190868 0.597986 0.550415 0.001189
C25   C     C_R   0.904027 0.401356 0.456357 0.032270
C26   C     C_R   0.096108 0.595449 0.548316 0.030663
C27   C     C_R   0.953002 0.496075 0.501473 0.044661
C28   C     C_R   0.047216 0.500394 0.504347 0.043302
C29   C     C_R   0.908040 0.586717 0.544008 0.006443
C30   C     C_R   0.092238 0.409543 0.462615 0.008081
C31   C     C_R   0.951654 0.311626 0.417499 -0.136162
C32   C     C_R   0.048477 0.684895 0.588263 -0.137553
C33   C     C_3   0.753477 0.300173 0.403601 -0.281196
C34   C     C_R   0.955823 0.680148 0.586740 -0.145793
C35   C     C_3   0.743631 0.229815 0.494720 -0.436623
C36   C     C_3   0.246426 0.698218 0.595858 -0.280210
C37   C     C_3   0.253392 0.767760 0.503532 -0.438341
C38   C     C_3   0.349913 0.361844 0.752556 0.033985
C39   C     C_3   0.290893 0.283321 0.802170 -0.305792
C40   C     C_3   0.196876 0.273261 0.744697 -0.479049
C41   C     C_3   0.661896 0.653992 0.192582 -0.006482
C42   C     C_3   0.729536 0.658105 0.294368 -0.241258
C43   C     C_3   0.817434 0.713595 0.274310 -0.494750
C44   C     C_R   0.501308 0.813962 0.533093 -0.008667
C45   C     C_R   0.498918 0.185970 0.466714 -0.008790
C46   C     C_R   0.498525 0.016154 0.345752 -0.144482
C47   C     C_R   0.501755 0.983779 0.653938 -0.144579
C48   C     C_R   0.498002 0.124267 0.356803 -0.145277
Cu1   Cu    Cu3+1 0.506660 0.507730 0.615930 0.946561
Cu2   Cu    Cu3+1 0.493340 0.492270 0.384070 0.969517
H1    H     H_    0.780903 0.653108 0.576538 0.103092
H2    H     H_    0.501715 0.185825 0.650655 0.169363
H3    H     H_    0.502634 0.840610 0.720401 0.121517
H4    H     H_    0.497175 0.159404 0.279382 0.123569
H5    H     H_    0.497937 0.969562 0.260368 0.102624
H6    H     H_    0.502268 0.030406 0.739301 0.105052
H7    H     H_    0.573082 0.673549 0.812353 0.133335
H8    H     H_    0.417061 0.331633 0.186981 0.129774
H9    H     H_    0.809972 0.208267 0.526958 0.149287
H10   H     H_    0.707559 0.270487 0.568421 0.170942
H11   H     H_    0.704646 0.157189 0.456628 0.145466
H12   H     H_    0.219541 0.343215 0.430273 0.098351
H13   H     H_    0.685678 0.317403 0.372662 0.170593
H14   H     H_    0.782455 0.257273 0.325406 0.126878
H15   H     H_    0.287798 0.726675 0.428545 0.168703
H16   H     H_    0.186186 0.788819 0.473781 0.149106
H17   H     H_    0.292782 0.840680 0.539485 0.144689
H18   H     H_    0.218823 0.741399 0.674881 0.125757
H19   H     H_    0.315060 0.682161 0.624706 0.172037
H20   H     H_    0.340771 0.342051 0.657292 0.183137
H21   H     H_    0.325317 0.441972 0.780028 0.130901
H22   H     H_    0.320974 0.205441 0.788623 0.170911
H23   H     H_    0.423879 0.300762 0.977639 0.133652
H24   H     H_    0.285172 0.309852 0.896029 0.148660
H25   H     H_    0.165681 0.350448 0.756225 0.157315
H26   H     H_    0.154897 0.218190 0.784530 0.147937
H27   H     H_    0.199208 0.242700 0.650992 0.146335
H28   H     H_    0.665816 0.731178 0.163723 0.130663
H29   H     H_    0.682883 0.593093 0.121633 0.113709
H30   H     H_    0.701688 0.699000 0.374760 0.184350
H31   H     H_    0.744198 0.577009 0.304235 0.176437
H32   H     H_    0.846342 0.674151 0.194088 0.148985
H33   H     H_    0.865821 0.711430 0.348041 0.158463
H34   H     H_    0.566514 0.704663 0.020338 0.108869
H35   H     H_    0.806516 0.796550 0.267307 0.143733
H36   H     H_    0.918740 0.236768 0.384848 0.111584
H37   H     H_    0.081273 0.759869 0.620618 0.112134
H38   H     H_    0.078904 0.245657 0.389325 0.104848
H39   H     H_    0.921306 0.750306 0.618511 0.105891
H40   H     H_    0.499296 0.813863 0.349051 0.158833
N1    N     N_R   0.516670 0.519360 0.790130 -0.221320
N2    N     N_R   0.483330 0.480640 0.209870 -0.211907
O1    O     O_R   0.504720 0.354460 0.582000 -0.462326
O2    O     O_3   0.573602 0.637549 0.227493 -0.547845
O3    O     O_R   0.495280 0.645540 0.418000 -0.448420
O4    O     O_R   0.493480 0.341410 0.386200 -0.531364
O5    O     O_R   0.506520 0.658590 0.613800 -0.533299
O6    O     O_R   0.375880 0.506510 0.597910 -0.534164
O7    O     O_R   0.624120 0.493490 0.402090 -0.497058
O8    O     O_R   0.364640 0.493450 0.402110 -0.494858
O9    O     O_R   0.635360 0.506550 0.597890 -0.492555
O10   O     O_3   0.441639 0.350915 0.781447 -0.577793

loop_
_geom_bond_atom_site_label_1
_geom_bond_atom_site_label_2
_ccdc_geom_bond_type
C25   C31   A    
C38   H20   S    
C26   C32   A    
C16   C21   S    
C27   C29   A    
C43   H33   S    
C41   C42   S    
C1    C45   S    
C7    H23   S    
C48   H4    S    
C5    C47   A    
Cu2   O7    S    
C24   C36   S    
C36   C37   S    
C19   C21   A    
C24   C26   A    
C33   H14   S    
Cu1   O9    S    
C38   C39   S    
C11   C14   A    
Cu2   O3    S    
C19   H12   S    
C17   C20   S    
C35   H9    S    
C9    H8    S    
C39   H24   S    
C17   O9    A    
Cu1   O6    S    
C11   N2    A    
C2    C44   A    
C22   C25   A    
C37   H15   S    
C46   H5    S    
C39   H22   S    
C12   O3    A    
C7    C15   A    
C31   H36   S    
C13   N1    A    
C42   H31   S    
Cu1   N1    S    
C9    N2    A    
C18   H1    S    
C4    H40   S    
C46   C48   A    
C43   H35   S    
C23   C30   A    
C10   H7    S    
C4    C6    A    
C41   H28   S    
C16   O8    A    
C4    C44   A    
C32   H37   S    
C29   C34   A    
C3    C45   A    
C1    O1    A    
C40   H26   S    
C35   H10   S    
C32   C34   A    
C41   O2    S    
C33   H13   S    
C37   H16   S    
C35   H11   S    
C18   C29   A    
C42   H30   S    
C17   O7    A    
C12   O5    A    
C11   O2    S    
Cu2   N2    S    
C20   C22   A    
C10   N1    A    
C23   H38   S    
C13   C15   A    
C42   C43   S    
C39   C40   S    
C36   H19   S    
C45   C48   A    
C7    C9    A    
C22   C33   S    
C38   H21   S    
C8    C14   A    
C6    C46   A    
C8    H34   S    
Cu2   O8    S    
C3    C5    A    
C2    H3    S    
C41   H29   S    
C3    H2    S    
C36   H18   S    
C2    C47   A    
C25   C27   A    
C26   C28   A    
C40   H25   S    
C28   C30   A    
C34   H39   S    
C38   O10   S    
Cu2   O4    S    
C5    C6    A    
C1    O4    A    
C37   H17   S    
C33   C35   S    
C18   C20   A    
C40   H27   S    
Cu1   O5    S    
C16   O6    A    
C8    C10   A    
Cu1   Cu2   S    
C21   C24   A    
C27   C28   A    
C43   H32   S    
C14   C15   A    
C12   C44   S    
Cu1   O1    S    
C13   O10   S    
C19   C30   A    
C23   C31   A    
C47   H6    S    
