data_mof_unit_45246.cif
_audit_creation_date              2012-12-11T14:51:45-0500
_audit_creation_method            fapswitch 2.2
_symmetry_space_group_name_H-M    P1
_symmetry_Int_Tables_number       1
_space_group_crystal_system       triclinic
_cell_length_a                    6.927991
_cell_length_b                    16.824922
_cell_length_c                    16.815023
_cell_angle_alpha                 101.403184
_cell_angle_beta                  90.063494
_cell_angle_gamma                 90.815403
_cell_volume                      1921.10785348

loop_
_atom_site_label
_atom_site_type_symbol
_atom_type_description
_atom_site_fract_x
_atom_site_fract_y
_atom_site_fract_z
_atom_type_partial_charge
O1    O     O_R   0.506340 0.439070 0.579550 -0.520621
O2    O     O_R   0.170010 0.404890 0.412100 -0.542079
O3    O     O_R   0.005010 0.560930 0.420450 -0.548636
C1    C     C_R   0.338842 0.382213 0.382625 0.683240
O4    O     O_R   0.176280 0.429360 0.578400 -0.511395
O5    O     O_R   0.011320 0.585570 0.587940 -0.532590
C2    C     C_R   0.345653 0.412054 0.604256 0.793954
O6    O     O_R   0.500030 0.414430 0.412060 -0.529554
O7    O     O_3   0.340950 0.551220 0.502940 -0.380899
V1    V     V_3+5 0.064020 0.490500 0.499460 1.506803
O8    O     O_R   0.681910 0.595110 0.587900 -0.537879
C3    C     C_R   0.852012 0.618140 0.617027 0.749476
O9    O     O_R   0.675640 0.570640 0.421600 -0.549544
C4    C     C_R   0.846540 0.585450 0.393921 0.683847
V2    V     V_3+5 0.564670 0.509500 0.500540 1.480270
O10   O     O_3   0.837610 0.448780 0.497060 -0.342083
C5    C     C_R   0.894616 0.863973 0.169698 -0.108953
C6    C     C_R   0.872842 0.635533 0.330473 -0.119404
C7    C     C_R   0.087879 0.674867 0.227020 0.298850
C8    C     C_R   0.035827 0.622171 0.279665 -0.194490
C9    C     C_R   0.756148 0.701836 0.326604 -0.232070
C10   C     C_R   0.804485 0.755463 0.274657 0.086379
C11   C     C_R   0.969500 0.742241 0.223975 0.081718
C12   C     C_R   0.010469 0.796262 0.170752 -0.271551
C13   C     C_R   0.738336 0.879017 0.224974 0.311038
C14   C     C_R   0.692329 0.823886 0.274892 -0.243759
H1    H     H_    0.127588 0.784623 0.127682 0.167705
H2    H     H_    0.569743 0.835600 0.315356 0.113704
H3    H     H_    0.126163 0.571261 0.283765 0.126753
H4    H     H_    0.632607 0.713700 0.366502 0.127331
C15   C     C_3   0.789782 0.814201 0.732540 -0.172575
C16   C     C_3   0.960755 0.770820 0.683512 -0.177542
H5    H     H_    0.023860 0.787223 0.628178 0.116572
H6    H     H_    0.714338 0.867348 0.718263 0.116954
C17   C     C_3   0.867395 0.688183 0.688109 -0.085258
C18   C     C_3   0.695847 0.730853 0.736482 -0.155995
C19   C     C_3   0.806910 0.730375 0.816441 0.189654
C20   C     C_3   0.977392 0.687280 0.767697 0.198810
C21   C     C_3   0.071000 0.770332 0.763717 -0.174445
C22   C     C_3   0.899896 0.812688 0.811905 -0.080436
H7    H     H_    0.541206 0.714209 0.725221 0.149367
H8    H     H_    0.225633 0.786634 0.775474 0.137083
C23   C     C_3   0.488494 0.240509 0.310423 0.338070
C24   C     C_3   0.330471 0.180448 0.270630 -0.186322
H9    H     H_    0.289198 0.122497 0.288609 0.106529
C25   C     C_3   0.410244 0.189662 0.186960 -0.056048
C26   C     C_3   0.571042 0.248415 0.227457 -0.179714
C27   C     C_3   0.434360 0.320963 0.227619 -0.185566
C28   C     C_3   0.273975 0.261542 0.186077 -0.120414
C29   C     C_3   0.194873 0.253392 0.270600 -0.156619
C30   C     C_3   0.354888 0.312316 0.311449 -0.021910
H10   H     H_    0.725955 0.245874 0.210581 0.109062
H11   H     H_    0.474964 0.379074 0.209821 0.111355
H12   H     H_    0.184977 0.270233 0.133606 0.112592
H13   H     H_    0.040527 0.255701 0.288337 0.123513
C31   C     C_R   0.402428 0.128728 0.825557 -0.139074
C32   C     C_R   0.363295 0.358375 0.665508 -0.162786
C33   C     C_R   0.533838 0.329878 0.783655 -0.134336
C34   C     C_R   0.497202 0.380753 0.729804 0.169417
C35   C     C_R   0.264230 0.282091 0.657324 0.108258
C36   C     C_R   0.315539 0.226586 0.709110 0.021400
C37   C     C_R   0.446847 0.253509 0.774204 0.033121
C38   C     C_R   0.488871 0.204980 0.831168 -0.263611
C39   C     C_R   0.283355 0.097751 0.757805 0.213463
C40   C     C_R   0.243298 0.145231 0.699099 0.280306
H14   H     H_    0.582928 0.228195 0.882371 0.135775
H15   H     H_    0.634056 0.350195 0.833333 0.151175
O11   O     O_R   0.266070 0.085680 0.087850 -0.541801
O12   O     O_R   0.590090 0.070660 0.921580 -0.547380
O13   O     O_R   0.754780 0.914400 0.912080 -0.536278
C41   C     C_R   0.420651 0.084208 0.893196 0.727854
O14   O     O_R   0.596110 0.095130 0.087880 -0.537957
O15   O     O_R   0.760850 0.939050 0.079570 -0.506405
C42   C     C_R   0.427003 0.118910 0.116447 0.705862
O16   O     O_R   0.260010 0.061030 0.920360 -0.543682
O17   O     O_3   0.425070 0.948840 0.997010 -0.354586
V3    V     V_3+5 0.702100 0.009490 0.000550 1.449484
O18   O     O_R   0.090200 0.929250 0.078500 -0.545541
C43   C     C_R   0.919320 0.914080 0.105870 0.754800
O19   O     O_R   0.084180 0.904770 0.912200 -0.540320
C44   C     C_R   0.914466 0.882576 0.882584 0.720139
V4    V     V_3+5 0.201420 0.990350 0.999580 1.440835
O20   O     O_3   0.928580 0.051150 0.002990 -0.379070
I1    I     I_    0.681360 0.702271 0.924055 -0.316121
I2    I     I_    0.144793 0.592553 0.799135 -0.298552
N1    N     N_2   0.609385 0.230811 0.378050 -0.516854
H16   H     H_    0.728916 0.195785 0.361251 0.251426
C45   C     C_3   0.507386 0.209828 0.445988 -0.503186
H17   H     H_    0.609547 0.209973 0.496844 0.225066
H18   H     H_    0.441011 0.148391 0.428145 0.177634
H19   H     H_    0.393785 0.254758 0.467270 0.204050
N2    N     N_2   0.626453 0.950236 0.231038 -0.504569
H20   H     H_    0.487113 0.944778 0.251141 0.242672
C46   C     C_3   0.722741 0.023233 0.273348 -0.568575
H21   H     H_    0.739901 0.021305 0.338665 0.193276
H22   H     H_    0.634987 0.076073 0.267639 0.195265
H23   H     H_    0.866549 0.031183 0.246603 0.183740
N3    N     N_2   0.206041 0.017255 0.745796 -0.525779
H24   H     H_    0.098160 0.008326 0.785390 0.258579
C47   C     C_3   0.344428 0.952494 0.728762 -0.562972
H25   H     H_    0.391471 0.934881 0.785941 0.190598
H26   H     H_    0.472733 0.970882 0.696673 0.188214
H27   H     H_    0.275831 0.899035 0.689154 0.197592
N4    N     N_2   0.141140 0.108017 0.627737 -0.475337
H28   H     H_    0.022437 0.073649 0.637744 0.278809
C48   C     C_3   0.262370 0.066744 0.562978 -0.511696
H29   H     H_    0.178001 0.053169 0.505610 0.198520
H30   H     H_    0.314024 0.008871 0.576896 0.196592
H31   H     H_    0.388723 0.105381 0.554357 0.198159
I3    I     I_    0.645987 0.493619 0.755531 -0.299972
I4    I     I_    0.024396 0.259348 0.573781 -0.424092
N5    N     N_2   0.262045 0.663726 0.180225 -0.508384
H32   H     H_    0.347715 0.715116 0.185169 0.257912
C49   C     C_3   0.371089 0.590034 0.174459 -0.501774
H33   H     H_    0.488446 0.589290 0.129410 0.224078
H34   H     H_    0.276577 0.536039 0.153557 0.198689
H35   H     H_    0.437848 0.587473 0.233986 0.175652

loop_
_geom_bond_atom_site_label_1
_geom_bond_atom_site_label_2
_ccdc_geom_bond_type
C33   C37   A    
C6    C9    A    
C4    C6    S    
O12   V3    S    
C7    C8    A    
C12   H1    S    
C1    O6    A    
N4    C48   S    
C49   H33   S    
C7    N5    S    
C25   C28   S    
C37   C38   A    
C18   C19   S    
C19   C20   S    
C19   C22   S    
O5    C3    A    
C20   C21   S    
N1    C45   S    
C32   C34   A    
C48   H29   S    
V3    O20   S    
O11   C42   A    
V2    O10   S    
C5    C43   S    
C34   I3    S    
C15   C22   S    
C16   C21   S    
O12   C41   A    
O13   C44   A    
N5    H32   S    
O8    V2    S    
C27   C30   S    
C17   C18   S    
C11   C12   A    
C31   C39   A    
C19   I1    S    
O1    V2    S    
O7    V1    S    
C39   N3    S    
C38   H14   S    
O9    C4    A    
O13   V3    S    
C18   H7    S    
C36   C37   A    
N5    C49   S    
N4    H28   S    
C24   C25   S    
C21   H8    S    
C8    H3    S    
C10   C11   A    
C27   H11   S    
C15   H6    S    
C5    C12   A    
C20   I2    S    
C16   C17   S    
C17   C20   S    
O17   V3    S    
O19   V4    S    
O17   V4    S    
C21   C22   S    
O4    C2    A    
O18   C43   A    
C32   C35   A    
C1    C30   S    
C46   H23   S    
C13   C14   A    
C47   H27   S    
C35   C36   A    
O2    C1    A    
C23   C24   S    
O14   V3    S    
O18   V4    S    
C26   C27   S    
C45   H19   S    
C31   C41   S    
C47   H26   S    
C29   C30   S    
O15   C43   A    
C31   C38   A    
C3    C17   S    
C46   H22   S    
O3    C4    A    
N1    H16   S    
O14   C42   A    
C27   C28   S    
C45   H18   S    
V4    O20   S    
O6    V2    S    
N3    C47   S    
O9    V2    S    
C28   C29   S    
O2    V1    S    
C25   C42   S    
C24   H9    S    
C7    C11   A    
C24   C29   S    
C25   C26   S    
C13   N2    S    
O1    C2    A    
C23   N1    S    
C22   C44   S    
C15   C16   S    
O19   C44   A    
O5    V1    S    
C49   H34   S    
O8    C3    A    
O16   V4    S    
C26   H10   S    
C9    H4    S    
C14   H2    S    
C29   H13   S    
O11   V4    S    
C16   H5    S    
C33   C34   A    
C5    C13   A    
O4    V1    S    
C35   I4    S    
V1    O10   S    
C39   C40   A    
C41   O16   A    
C23   C30   S    
N2    C46   S    
C48   H30   S    
N2    H20   S    
C6    C8    A    
O7    V2    S    
C46   H21   S    
C49   H35   S    
C36   C40   A    
C33   H15   S    
C45   H17   S    
N3    H24   S    
C10   C14   A    
O3    V1    S    
O15   V3    S    
C15   C18   S    
C47   H25   S    
C40   N4    S    
C9    C10   A    
C23   C26   S    
C2    C32   S    
C28   H12   S    
C48   H31   S    
