data_mof_unit_49255.cif
_audit_creation_date              2012-12-10T20:38:24-0500
_audit_creation_method            fapswitch 2.2
_symmetry_space_group_name_H-M    P1
_symmetry_Int_Tables_number       1
_space_group_crystal_system       triclinic
_cell_length_a                    9.858593
_cell_length_b                    10.696268
_cell_length_c                    16.644543
_cell_angle_alpha                 90.208764
_cell_angle_beta                  85.304584
_cell_angle_gamma                 89.795962
_cell_volume                      1749.25441989

loop_
_atom_site_label
_atom_site_type_symbol
_atom_type_description
_atom_site_fract_x
_atom_site_fract_y
_atom_site_fract_z
_atom_type_partial_charge
C1    C     C_R   0.500242 0.740151 0.497536 0.889928
C2    C     C_R   0.530251 0.472993 0.259994 -0.032666
C3    C     C_R   0.380457 0.936630 0.480603 0.091811
C4    C     C_R   0.481340 0.492864 0.653214 0.848081
C5    C     C_R   0.502169 0.871504 0.484364 -0.107905
C6    C     C_R   0.626487 0.934904 0.472276 -0.224858
C7    C     C_R   0.626521 0.064209 0.472066 -0.219420
C8    C     C_R   0.502216 0.128630 0.483795 -0.139745
C9    C     C_R   0.380114 0.064457 0.479712 0.140632
C10   C     C_3   0.250049 0.071944 0.533079 -0.017525
C11   C     C_3   0.251381 0.929987 0.533980 -0.503513
C12   C     C_R   0.348395 0.460758 0.784717 -0.202475
C13   C     C_R   0.919062 0.523199 0.569724 0.214945
C14   C     C_R   0.937425 0.467120 0.432988 -0.143168
C15   C     C_R   0.081242 0.467665 0.432874 -0.156389
C16   C     C_R   0.500524 0.259922 0.497257 0.883182
C17   C     C_R   0.061986 0.522219 0.569516 0.173558
C18   C     C_3   0.064161 0.637383 0.619380 -0.516675
C19   C     C_3   0.910046 0.641543 0.618912 -0.058557
C20   C     C_R   0.518813 0.497324 0.346394 0.860427
C21   C     C_R   0.470736 0.449042 0.736097 -0.033926
C22   C     C_R   0.578642 0.379090 0.763096 -0.214406
C23   C     C_R   0.419345 0.435356 0.138375 -0.148836
C24   C     C_R   0.566787 0.326246 0.839101 -0.162798
C25   C     C_R   0.448049 0.345397 0.889879 0.206489
C26   C     C_R   0.337248 0.409158 0.861581 -0.171314
C27   C     C_3   0.131353 0.126812 0.490712 -0.859519
C28   C     C_3   0.837955 0.626750 0.703385 -0.854035
C29   C     C_R   0.413260 0.475847 0.217708 -0.215093
C30   C     C_R   0.654608 0.432757 0.221202 -0.197141
C31   C     C_R   0.660574 0.391815 0.141694 -0.181756
C32   C     C_R   0.542547 0.390129 0.100475 0.207239
C33   C     C_2   0.446680 0.321212 0.976170 -0.246162
C34   C     C_2   0.554262 0.355864 0.015100 -0.230788
H1    H     H_    0.671751 0.363565 0.725085 0.158692
H2    H     H_    0.102505 0.618472 0.679133 0.201444
H3    H     H_    0.316534 0.507850 0.246188 0.147731
H4    H     H_    0.115371 0.715525 0.586105 0.192359
H5    H     H_    0.872778 0.722881 0.585350 0.174810
H6    H     H_    0.746288 0.429423 0.252801 0.144530
H7    H     H_    0.650976 0.376405 0.981764 0.149194
H8    H     H_    0.245062 0.424739 0.900452 0.121176
H9    H     H_    0.328007 0.442379 0.106831 0.122122
H10   H     H_    0.262703 0.511199 0.763846 0.139655
H11   H     H_    0.349520 0.301356 0.009030 0.145237
H12   H     H_    0.757100 0.360644 0.112453 0.123348
H13   H     H_    0.652128 0.274362 0.859297 0.127865
H14   H     H_    0.126799 0.086339 0.429378 0.241121
H15   H     H_    0.034109 0.107151 0.526841 0.234206
H16   H     H_    0.142863 0.229375 0.485461 0.264045
H17   H     H_    0.726780 0.638984 0.701347 0.257300
H18   H     H_    0.859500 0.533884 0.729368 0.235695
H19   H     H_    0.873160 0.700644 0.743768 0.237279
H20   H     H_    0.723138 0.885848 0.468898 0.167880
H21   H     H_    0.723178 0.112596 0.468670 0.173253
H22   H     H_    0.262987 0.114898 0.592963 0.167532
H23   H     H_    0.267141 0.890953 0.594371 0.176683
H24   H     H_    0.168365 0.885899 0.502553 0.209961
H25   H     H_    0.891032 0.442000 0.378589 0.146713
H26   H     H_    0.142690 0.442771 0.378361 0.152431
N1    N     N_R   0.857140 0.500860 0.500530 -0.120095
N2    N     N_R   0.142780 0.500820 0.500530 -0.105354
O1    O     O_R   0.385310 0.683210 0.499990 -0.609741
O2    O     O_R   0.614650 0.683240 0.500000 -0.622570
O3    O     O_R   0.371780 0.500000 0.615800 -0.611455
O4    O     O_R   0.601120 0.500040 0.615800 -0.615310
O5    O     O_R   0.385350 0.316760 0.500000 -0.616159
O6    O     O_R   0.614690 0.316790 0.500010 -0.619218
O7    O     O_R   0.398880 0.499960 0.384200 -0.622871
O8    O     O_R   0.628220 0.500000 0.384200 -0.624670
Zn1   Zn    Zn3+2 0.346870 0.499980 0.499990 0.939605
Zn2   Zn    Zn3+2 0.653130 0.500020 0.500010 0.937952

loop_
_geom_bond_atom_site_label_1
_geom_bond_atom_site_label_2
_ccdc_geom_bond_type
C27   H14   S    
C10   C27   S    
C28   H19   S    
C6    C7    A    
C16   O6    A    
C7    H21   S    
C17   N2    A    
C11   H24   S    
C33   H11   S    
C9    C10   S    
C31   C32   A    
C14   C15   A    
C27   H16   S    
C13   C17   A    
O6    Zn2   S    
C23   H9    S    
C23   C32   A    
C24   H13   S    
C33   C34   D    
C18   H4    S    
C30   H6    S    
C7    C8    A    
C12   H10   S    
C16   O5    A    
O3    Zn1   S    
C21   C22   A    
C12   C26   A    
C4    O4    A    
C22   H1    S    
C28   H18   S    
C20   O8    A    
C5    C6    A    
C34   H7    S    
C19   H5    S    
C6    H20   S    
C2    C29   A    
C3    C9    A    
C23   C29   A    
N1    Zn2   S    
C10   H22   S    
C15   N2    A    
C4    C21   S    
N2    Zn1   S    
C17   C18   S    
O5    Zn1   S    
O2    Zn2   S    
C19   C28   S    
C30   C31   A    
C28   H17   S    
C22   C24   A    
C20   O7    A    
C3    C11   S    
C10   C11   S    
C13   C19   S    
C2    C20   S    
C12   C21   A    
C1    O2    A    
C1    O1    A    
C1    C5    S    
C13   N1    A    
C24   C25   A    
C26   H8    S    
C8    C16   S    
C18   C19   S    
C15   H26   S    
C29   H3    S    
O7    Zn1   S    
C4    O3    A    
C2    C30   A    
O8    Zn2   S    
C14   H25   S    
C25   C26   A    
C11   H23   S    
C14   N1    A    
C18   H2    S    
O1    Zn1   S    
O4    Zn2   S    
C27   H15   S    
C25   C33   S    
C8    C9    A    
C3    C5    A    
C31   H12   S    
C32   C34   S    
