data_mof_unit_21876.cif
_audit_creation_date              2012-12-11T14:21:08-0500
_audit_creation_method            fapswitch 2.2
_symmetry_space_group_name_H-M    P1
_symmetry_Int_Tables_number       1
_space_group_crystal_system       triclinic
_cell_length_a                    11.520269
_cell_length_b                    11.535248
_cell_length_c                    19.535352
_cell_angle_alpha                 91.080448
_cell_angle_beta                  90.686742
_cell_angle_gamma                 60.343158
_cell_volume                      2255.55570742

loop_
_atom_site_label
_atom_site_type_symbol
_atom_type_description
_atom_site_fract_x
_atom_site_fract_y
_atom_site_fract_z
_atom_type_partial_charge
C1    C     C_R   0.615474 0.085673 0.605829 0.556974
C2    C     C_1   0.651499 0.684887 0.664280 0.002358
C3    C     C_1   0.126395 0.198208 0.859281 0.008353
C4    C     C_1   0.171685 0.170489 0.727652 -0.029030
C5    C     C_1   0.150008 0.181965 0.798906 -0.028394
C6    C     C_1   0.195642 0.161328 0.667354 0.004243
C7    C     C_1   0.668123 0.181101 0.864623 0.005455
C8    C     C_1   0.633164 0.136320 0.736560 -0.029277
C9    C     C_1   0.647476 0.160737 0.806273 -0.025976
C10   C     C_1   0.625016 0.114262 0.676706 0.002020
C11   C     C_R   0.654982 0.696984 0.186304 -0.005358
C12   C     C_R   0.613810 0.743854 0.598014 0.540651
C13   C     C_R   0.526034 0.760475 0.213738 0.001898
C14   C     C_R   0.513221 0.739430 0.283566 0.045357
C15   C     C_R   0.750241 0.670918 0.299111 -0.152688
C16   C     C_R   0.763996 0.662387 0.229264 -0.150530
C17   C     C_R   0.410955 0.830862 0.172138 0.016226
C18   C     C_R   0.286616 0.860363 0.196879 -0.120021
C19   C     C_R   0.276648 0.815475 0.260688 -0.108575
C20   C     C_R   0.388658 0.750555 0.303632 0.161004
C21   C     C_R   0.627309 0.705307 0.327710 0.001492
C22   C     C_R   0.059369 0.255724 0.205111 -0.004030
C23   C     C_R   0.241319 0.145279 0.598207 0.541849
C24   C     C_R   0.124212 0.322190 0.234902 0.041350
C25   C     C_R   0.208833 0.261218 0.290307 0.026637
C26   C     C_R   0.108129 0.120940 0.306720 -0.154346
C27   C     C_R   0.046580 0.160148 0.242945 -0.166202
C28   C     C_R   0.115844 0.441896 0.209773 -0.091870
C29   C     C_R   0.193553 0.492261 0.236472 -0.137691
C30   C     C_R   0.284283 0.423924 0.286856 -0.114432
C31   C     C_R   0.303636 0.301137 0.306441 -0.076890
C32   C     C_R   0.193431 0.166956 0.329744 0.003062
C33   C     C_R   0.672231 0.186118 0.195319 -0.015175
C34   C     C_R   0.649144 0.113020 0.403838 0.543945
C35   C     C_R   0.748566 0.056299 0.222069 0.011992
C36   C     C_R   0.773122 0.042398 0.292840 0.030736
C37   C     C_R   0.605103 0.272951 0.311420 -0.184578
C38   C     C_R   0.600728 0.294660 0.241143 -0.042531
C39   C     C_R   0.811236 0.941061 0.179579 -0.070411
C40   C     C_R   0.916424 0.823293 0.204349 -0.123558
C41   C     C_R   0.955018 0.816311 0.272505 -0.151295
C42   C     C_R   0.885966 0.925004 0.316112 -0.087741
C43   C     C_R   0.683959 0.146217 0.337389 -0.020428
C44   C     C_R   0.081568 0.231017 0.928583 0.562658
C45   C     C_R   0.611013 0.744301 0.400015 0.552247
C46   C     C_R   0.707959 0.547248 0.922415 0.556913
C47   C     C_R   0.706914 0.205304 0.930899 0.539849
C48   C     C_R   0.021159 0.273028 0.132743 0.557086
C49   C     C_R   0.680656 0.619092 0.123027 0.556210
C50   C     C_R   0.706793 0.210614 0.126578 0.524892
C51   C     C_R   0.251489 0.137375 0.398710 0.536720
C52   C     C_1   0.696778 0.583089 0.851764 0.005014
C53   C     C_1   0.672148 0.646895 0.722514 -0.027278
C54   C     C_1   0.687382 0.611134 0.792075 -0.027873
Cr1   Cr    Cr6+3 0.404720 0.198220 0.499960 1.023357
Cr2   Cr    Cr6+3 0.698290 0.897110 0.500380 1.022143
Cr3   Cr    Cr6+3 0.396970 0.904720 0.499610 1.046577
Cr4   Cr    Cr6+3 0.926180 0.151990 0.028120 1.027017
Cr5   Cr    Cr6+3 0.921330 0.451820 0.027470 1.016584
Cr6   Cr    Cr6+3 0.626260 0.446870 0.028710 1.057320
H1    H     H_    0.836871 0.647048 0.330837 0.141740
H2    H     H_    0.186650 0.582179 0.216403 0.128929
H3    H     H_    0.341061 0.465426 0.309476 0.108758
H4    H     H_    0.390033 0.239890 0.336265 0.166612
H5    H     H_    0.545707 0.353417 0.346688 0.106988
H6    H     H_    0.782955 0.943174 0.126359 0.139718
H7    H     H_    0.969091 0.738828 0.170055 0.098965
H8    H     H_    0.037835 0.727181 0.292750 0.105798
H9    H     H_    0.925865 0.917083 0.367222 0.140905
H10   H     H_    0.861394 0.621209 0.208856 0.124745
H11   H     H_    0.198096 0.911694 0.165233 0.137520
H12   H     H_    0.181238 0.828914 0.276240 0.103681
H13   H     H_    0.091968 0.052651 0.337095 0.126903
H14   H     H_    0.049849 0.502418 0.170257 0.141736
H15   H     H_    0.990382 0.114644 0.222682 0.141567
O1    O     O_R   0.267740 0.231960 0.575440 -0.507531
O2    O     O_R   0.685970 0.784660 0.430010 -0.503191
O3    O     O_R   0.502530 0.767000 0.423990 -0.471113
O4    O     O_R   0.288330 0.026350 0.429250 -0.490424
O5    O     O_3   0.499990 0.000020 0.499980 -0.280283
O6    O     O_R   0.821500 0.119340 0.952830 -0.502838
O7    O     O_R   0.037130 0.162530 0.957360 -0.482985
O8    O     O_R   0.056440 0.344740 0.951340 -0.505062
O9    O     O_R   0.797900 0.560360 0.957470 -0.488593
O10   O     O_R   0.596130 0.579390 0.952730 -0.487350
O11   O     O_R   0.639060 0.321160 0.958670 -0.508008
O12   O     O_R   0.527280 0.186640 0.570530 -0.486632
O13   O     O_R   0.821240 0.124200 0.104370 -0.537605
O14   O     O_R   0.036890 0.167040 0.097840 -0.489793
O15   O     O_R   0.056180 0.349610 0.102880 -0.520780
O16   O     O_R   0.797660 0.564870 0.097950 -0.534489
O17   O     O_R   0.595880 0.584250 0.104270 -0.474043
O18   O     O_R   0.638830 0.325670 0.099150 -0.478872
O19   O     O_3   0.824590 0.350230 0.028100 -0.301138
O20   O     O_R   0.728090 0.003450 0.576380 -0.499442
O21   O     O_R   0.682970 0.789190 0.570490 -0.508939
O22   O     O_R   0.499290 0.771880 0.575530 -0.499478
O23   O     O_R   0.285330 0.030870 0.569730 -0.494189
O24   O     O_R   0.270980 0.227080 0.423890 -0.526159
O25   O     O_R   0.530280 0.182120 0.430050 -0.515206
O26   O     O_R   0.731330 0.998570 0.424830 -0.519634
C55   C     C_1   0.516495 0.427882 0.216882 0.215745
N1    N     N_1   0.446664 0.533582 0.196437 -0.288056
C56   C     C_1   0.417588 0.877874 0.104987 0.217740
N2    N     N_1   0.422760 0.915657 0.051264 -0.271269
N3    N     N_3   0.380092 0.678031 0.360600 -0.575909
H16   H     H_    0.286451 0.684377 0.362873 0.202590
H17   H     H_    0.450851 0.577854 0.353090 0.214364

loop_
_geom_bond_atom_site_label_1
_geom_bond_atom_site_label_2
_ccdc_geom_bond_type
C25   C31   A    
Cr2   O20   S    
C22   C48   S    
C26   C32   A    
C41   C42   A    
Cr3   O4    S    
C36   C42   A    
C35   C36   A    
C23   O1    A    
C44   O8    A    
C2    C12   S    
C53   C54   S    
C26   C27   A    
C29   C30   A    
C14   C21   A    
C28   C29   A    
C17   C56   S    
Cr5   O8    S    
Cr2   O26   S    
C44   O7    A    
Cr4   O7    S    
C30   C31   A    
N3    H16   S    
Cr3   O23   S    
C15   C16   A    
C46   C52   S    
C26   H13   S    
Cr2   O21   S    
C18   C19   A    
C1    O12   A    
C19   C20   A    
C8    C9    S    
C40   H7    S    
C37   H5    S    
Cr1   O25   S    
C34   O25   A    
C45   O3    A    
Cr5   O19   S    
C20   N3    S    
C50   O13   A    
C46   O10   A    
Cr6   O18   S    
C25   C32   A    
C28   H14   S    
C48   O15   A    
C30   H3    S    
Cr3   O5    S    
C19   H12   S    
C49   O16   A    
C27   H15   S    
Cr3   O3    S    
C56   N2    T    
C52   C54   T    
C41   H8    S    
C21   C45   S    
Cr6   O17   S    
C51   O24   A    
C3    C44   S    
C34   O26   A    
C34   C43   S    
C47   O11   A    
C14   C20   A    
C16   H10   S    
C24   C25   A    
C4    C6    T    
Cr4   O6    S    
C39   C40   A    
Cr6   O11   S    
C33   C50   S    
C42   H9    S    
Cr2   O2    S    
Cr5   O15   S    
C7    C47   S    
C37   C43   A    
C35   C39   A    
C32   C51   S    
C37   C38   A    
C11   C49   S    
C11   C16   A    
C1    O20   A    
Cr3   O22   S    
C17   C18   A    
C15   H1    S    
Cr5   O16   S    
Cr5   O9    S    
C12   O22   A    
C46   O9    A    
Cr1   O1    S    
C40   C41   A    
C22   C27   A    
C39   H6    S    
C22   C24   A    
C49   O17   A    
C18   H11   S    
C7    C9    T    
C29   H2    S    
C31   H4    S    
C1    C10   S    
C24   C28   A    
C4    C5    S    
C3    C5    T    
C2    C53   T    
Cr4   O13   S    
Cr6   O10   S    
C50   O18   A    
C33   C38   A    
Cr2   O5    S    
C13   C17   A    
C48   O14   A    
Cr4   O19   S    
C38   C55   S    
Cr1   O5    S    
C11   C13   A    
N3    H17   S    
C6    C23   S    
C33   C35   A    
C47   O6    A    
Cr1   O12   S    
C55   N1    T    
Cr4   O14   S    
C51   O4    A    
C15   C21   A    
C23   O23   A    
C8    C10   T    
Cr1   O24   S    
C12   O21   A    
C36   C43   A    
C45   O2    A    
C13   C14   A    
Cr6   O19   S    
