data_mof_unit_39097.cif
_audit_creation_date              2012-12-10T20:27:58-0500
_audit_creation_method            fapswitch 2.2
_symmetry_space_group_name_H-M    P1
_symmetry_Int_Tables_number       1
_space_group_crystal_system       triclinic
_cell_length_a                    12.846678
_cell_length_b                    10.723373
_cell_length_c                    9.855355
_cell_angle_alpha                 90.352009
_cell_angle_beta                  97.216558
_cell_angle_gamma                 90.88054
_cell_volume                      1346.71240106

loop_
_atom_site_label
_atom_site_type_symbol
_atom_type_description
_atom_site_fract_x
_atom_site_fract_y
_atom_site_fract_z
_atom_type_partial_charge
Br1   Br    Br    0.788286 0.372696 0.250818 -0.473039
Br2   Br    Br    0.816239 0.423251 0.841400 -0.483334
Br3   Br    Br    0.175542 0.584503 0.170464 -0.625692
C1    C     C_R   0.505875 0.260515 0.500669 0.877345
C2    C     C_R   0.509344 0.934998 0.377620 -0.209658
C3    C     C_R   0.489110 0.871860 0.496502 -0.119227
C4    C     C_R   0.297513 0.503131 0.472683 0.902055
C5    C     C_R   0.466057 0.939208 0.610535 -0.044952
C6    C     C_3   0.500615 0.924664 0.762025 0.190261
C7    C     C_3   0.532415 0.062455 0.761662 0.325423
C8    C     C_R   0.411547 0.466884 0.056066 0.206458
C9    C     C_R   0.581882 0.549986 0.085743 -0.048703
C10   C     C_R   0.581960 0.549749 0.941653 -0.068234
C11   C     C_R   0.411057 0.468907 0.914095 0.098377
C12   C     C_R   0.028241 0.457372 0.560436 0.082254
C13   C     C_3   0.347376 0.351930 0.894193 -0.562790
C14   C     C_3   0.348000 0.348164 0.048992 0.305092
C15   C     C_R   0.497162 0.739935 0.499705 0.866378
C16   C     C_R   0.700818 0.483863 0.526411 0.928798
C17   C     C_R   0.811726 0.452906 0.541161 -0.221559
C18   C     C_R   0.183959 0.497787 0.454850 -0.116046
C19   C     C_R   0.016115 0.487506 0.314701 -0.162342
C20   C     C_R   0.122934 0.513471 0.327003 0.237360
C21   C     C_R   0.135365 0.471686 0.570409 -0.296517
C22   C     C_3   0.706029 0.045343 0.695944 0.116482
C23   C     C_R   0.968281 0.458529 0.430909 0.058416
C24   C     C_3   0.819157 0.036700 0.764399 -0.298410
C25   C     C_3   0.892959 0.998009 0.662308 -0.948790
C26   C     C_3   0.342213 0.136643 0.095876 0.090648
C27   C     C_3   0.271247 0.126342 0.209925 -0.390050
C28   C     C_3   0.223848 0.995352 0.215512 -0.873753
C29   C     C_3   0.357863 0.801051 0.809723 0.130959
C30   C     C_3   0.260118 0.804512 0.883435 -0.361355
C31   C     C_3   0.182840 0.699300 0.835385 -0.882411
C32   C     C_R   0.860849 0.438857 0.421580 0.171816
C33   C     C_R   0.872370 0.443163 0.670961 0.242438
C34   C     C_R   0.980666 0.441917 0.678704 -0.236010
C35   C     C_R   0.484168 0.064787 0.614253 -0.056464
C36   C     C_R   0.508375 0.128618 0.500225 -0.120129
C37   C     C_R   0.519074 0.063340 0.379731 -0.200703
H1    H     H_    0.565990 0.859433 0.791419 0.117850
H2    H     H_    0.180514 0.464950 0.669727 0.172123
H3    H     H_    0.537632 0.110741 0.288931 0.222197
H4    H     H_    0.523237 0.885700 0.285469 0.178015
H5    H     H_    0.704371 0.114387 0.612209 0.165250
H6    H     H_    0.681341 0.951966 0.653016 0.115986
H7    H     H_    0.845593 0.128786 0.809624 0.269236
H8    H     H_    0.823005 0.967201 0.848045 0.226873
H9    H     H_    0.868948 0.905288 0.616910 0.267124
H10   H     H_    0.974207 0.991957 0.715484 0.269139
H11   H     H_    0.892167 0.067944 0.579472 0.277839
H12   H     H_    0.488280 0.119217 0.828020 0.152386
H13   H     H_    0.396222 0.056424 0.102747 0.193014
H14   H     H_    0.294157 0.128054 0.993748 0.138010
H15   H     H_    0.316835 0.149252 0.310339 0.247868
H16   H     H_    0.206284 0.193721 0.192028 0.217820
H17   H     H_    0.175641 0.971615 0.116898 0.264752
H18   H     H_    0.172851 0.991098 0.298414 0.272239
H19   H     H_    0.286718 0.925607 0.236919 0.274381
H20   H     H_    0.405820 0.719966 0.845779 0.156067
H21   H     H_    0.331711 0.791596 0.698097 0.163478
H22   H     H_    0.283660 0.797083 0.995495 0.247760
H23   H     H_    0.648462 0.589115 0.150943 0.172592
H24   H     H_    0.220183 0.894991 0.862976 0.227244
H25   H     H_    0.158323 0.705744 0.723547 0.257263
H26   H     H_    0.111808 0.706754 0.888287 0.297575
H27   H     H_    0.219243 0.607671 0.859463 0.268431
H28   H     H_    0.648180 0.589279 0.898482 0.178278
H29   H     H_    0.267644 0.366762 0.840904 0.157600
H30   H     H_    0.390035 0.276195 0.850473 0.223133
H31   H     H_    0.269898 0.361822 0.083422 0.121519
H32   H     H_    0.970144 0.499250 0.215926 0.220721
H33   H     H_    0.027620 0.435795 0.777852 0.184382
N1    N     N_R   0.499290 0.499140 0.142710 -0.092194
N2    N     N_R   0.499290 0.499180 0.857070 -0.101287
O1    O     O_R   0.500010 0.316790 0.614690 -0.606360
O2    O     O_3   0.404950 0.247108 0.110190 -0.596086
O3    O     O_3   0.415870 0.912356 0.840588 -0.677220
O4    O     O_R   0.500000 0.316760 0.385350 -0.571958
O5    O     O_R   0.346360 0.499990 0.595720 -0.637498
O6    O     O_R   0.346350 0.499960 0.366370 -0.583484
O7    O     O_R   0.500000 0.683240 0.614650 -0.660319
O8    O     O_R   0.499990 0.683210 0.385310 -0.619114
O9    O     O_R   0.653650 0.500040 0.633630 -0.583173
O10   O     O_R   0.653640 0.500010 0.404280 -0.592771
O11   O     O_3   0.642445 0.087091 0.794034 -0.613732
Zn1   Zn    Zn3+2 0.500010 0.500020 0.653130 0.966046
Zn2   Zn    Zn3+2 0.499990 0.499980 0.346870 1.020613

loop_
_geom_bond_atom_site_label_1
_geom_bond_atom_site_label_2
_ccdc_geom_bond_type
C24   H8    S    
C9    N1    A    
C21   H2    S    
Br3   C20   S    
C16   C17   S    
O9    Zn1   S    
C7    H12   S    
C31   H26   S    
C28   H18   S    
C33   C34   A    
C29   H21   S    
C30   H22   S    
O5    Zn1   S    
C27   C28   S    
C8    C11   A    
C26   H14   S    
C24   H7    S    
O7    Zn1   S    
C28   H19   S    
C12   C34   A    
C17   C32   A    
C25   H10   S    
C37   H3    S    
C8    C14   S    
C10   N2    A    
C5    C6    S    
C6    C7    S    
O8    Zn2   S    
C5    C35   A    
C31   H25   S    
C19   H32   S    
O4    Zn2   S    
C30   C31   S    
C35   C36   A    
C3    C15   S    
C13   H30   S    
C1    O4    A    
C36   C37   A    
C9    H23   S    
C13   C14   S    
C12   C23   A    
C3    C5    A    
C4    C18   S    
C27   H16   S    
C26   C27   S    
C25   H9    S    
C1    C36   S    
C14   O2    S    
C15   O8    A    
O1    Zn1   S    
N2    Zn1   S    
C12   C21   A    
C4    O6    A    
C2    H4    S    
C14   H31   S    
C18   C20   A    
C11   C13   S    
C18   C21   A    
C29   H20   S    
C16   O9    A    
C22   H5    S    
Br1   C32   S    
O10   Zn2   S    
Br2   C33   S    
C34   H33   S    
C7    O11   S    
C25   H11   S    
C13   H29   S    
C16   O10   A    
C8    N1    A    
C31   H27   S    
C22   C24   S    
C27   H15   S    
C6    H1    S    
C7    C35   S    
C29   C30   S    
C28   H17   S    
C11   N2    A    
C2    C3    A    
C26   H13   S    
C30   H24   S    
C22   O11   S    
C15   O7    A    
C6    O3    S    
C1    O1    A    
O6    Zn2   S    
C29   O3    S    
C17   C33   A    
C23   C32   A    
C26   O2    S    
C9    C10   A    
C19   C23   A    
C2    C37   A    
C24   C25   S    
C19   C20   A    
N1    Zn2   S    
C22   H6    S    
C4    O5    A    
C10   H28   S    
