data_mof_unit_28064.cif
_audit_creation_date              2013-03-05T15:49:05-0500
_audit_creation_method            fapswitch 2.2
_symmetry_space_group_name_H-M    P1
_symmetry_Int_Tables_number       1
_space_group_crystal_system       triclinic
_cell_length_a                    10.658696
_cell_length_b                    12.999643
_cell_length_c                    11.718698
_cell_angle_alpha                 100.061662
_cell_angle_beta                  94.100184
_cell_angle_gamma                 90.652665
_cell_volume                      1594.19785701

loop_
_atom_site_label
_atom_site_type_symbol
_atom_site_description
_atom_site_fract_x
_atom_site_fract_y
_atom_site_fract_z
_atom_type_partial_charge
O1    O     O_R   0.506670 0.354460 0.582000 -0.584380
O2    O     O_R   0.493330 0.645540 0.418000 -0.584382
O3    O     O_R   0.490800 0.341410 0.386200 -0.564246
O4    O     O_R   0.509200 0.658590 0.613800 -0.564241
C1    C     C_R   0.498790 0.299131 0.478502 0.878140
C2    C     C_R   0.501210 0.700869 0.521498 0.878144
O5    O     O_R   0.324790 0.506500 0.597880 -0.614567
O6    O     O_R   0.675210 0.493500 0.402120 -0.614566
O7    O     O_R   0.308910 0.493440 0.402080 -0.523666
O8    O     O_R   0.691090 0.506560 0.597920 -0.523666
C3    C     C_R   0.259541 0.500795 0.500222 0.883993
C4    C     C_R   0.740459 0.499205 0.499778 0.883994
Cu1   Cu    Cu3+1 0.509400 0.507730 0.615930 1.041470
Cu2   Cu    Cu3+1 0.490600 0.492270 0.384070 1.041469
C5    C     C_3   0.050316 0.508621 0.610838 -0.203594
C6    C     C_3   0.949684 0.491379 0.389162 -0.203597
C7    C     C_3   0.963359 0.419714 0.544422 0.364376
C8    C     C_3   0.036641 0.580286 0.455578 0.364377
H1    H     H_    0.092196 0.514011 0.701267 0.201498
H2    H     H_    0.907804 0.485988 0.298733 0.201497
C9    C     C_3   0.876735 0.498685 0.499314 -0.153632
C10   C     C_3   0.123265 0.501315 0.500687 -0.153632
C11   C     C_3   0.962548 0.589556 0.564457 -0.214516
C12   C     C_3   0.037452 0.410443 0.435544 -0.214517
H3    H     H_    0.930588 0.663695 0.614978 0.221662
H4    H     H_    0.069411 0.336304 0.385023 0.221663
C13   C     C_R   0.499634 0.814307 0.533811 -0.154540
C14   C     C_R   0.500366 0.185693 0.466189 -0.154543
C15   C     C_R   0.518595 0.015422 0.347040 0.670324
C16   C     C_R   0.481405 0.984578 0.652960 0.670323
C17   C     C_R   0.515146 0.123483 0.357766 -0.177308
C18   C     C_R   0.484855 0.876517 0.642234 -0.177310
C19   C     C_R   0.489019 0.139338 0.564238 -0.135446
C20   C     C_R   0.510981 0.860662 0.435762 -0.135446
C21   C     C_R   0.492537 0.031274 0.554809 -0.053071
C22   C     C_R   0.507462 0.968726 0.445192 -0.053072
H5    H     H_    0.522746 0.812526 0.352016 0.220945
H6    H     H_    0.477254 0.187474 0.647984 0.220945
H7    H     H_    0.474640 0.841610 0.718569 0.216217
H8    H     H_    0.525362 0.158390 0.281432 0.216221
N1    N     N_R   0.523540 0.519360 0.790140 -0.249672
N2    N     N_R   0.476460 0.480640 0.209860 -0.249675
C23   C     C_R   0.370303 0.412753 0.020907 -0.279007
C24   C     C_R   0.629699 0.587245 0.979093 -0.279010
C25   C     C_R   0.383201 0.419112 0.142524 0.554707
C26   C     C_R   0.616802 0.580886 0.857476 0.554704
C27   C     C_R   0.557817 0.536278 0.156901 0.011579
C28   C     C_R   0.442182 0.463723 0.843100 0.011580
C29   C     C_R   0.547479 0.531246 0.034388 0.000394
C30   C     C_R   0.452520 0.468754 0.965612 0.000392
H9    H     H_    0.369485 0.414842 0.790084 0.153153
H10   H     H_    0.630512 0.585160 0.209917 0.153155
H11   H     H_    0.295826 0.363930 0.970218 0.191610
H12   H     H_    0.704178 0.636064 0.029783 0.191610
N3    N     N_R   0.925337 0.329581 0.593445 0.144344
O9    O     O_R   0.010719 0.270471 0.631127 -0.314824
O10   O     O_R   0.807047 0.305403 0.596261 -0.342780
N4    N     N_R   0.074662 0.670418 0.406555 0.144341
O11   O     O_R   0.989281 0.729528 0.368872 -0.314823
O12   O     O_R   0.192953 0.694598 0.403741 -0.342780
F1    F     F_    0.533295 0.956859 0.241115 -0.623339
F2    F     F_    0.466706 0.043141 0.758885 -0.623338
N5    N     N_R   0.704938 0.638693 0.805995 0.132307
O13   O     O_R   0.821868 0.611038 0.808439 -0.354540
O14   O     O_R   0.679343 0.733865 0.793773 -0.343588
N6    N     N_R   0.295075 0.361295 0.194005 0.132306
O15   O     O_R   0.178145 0.388950 0.191577 -0.354542
O16   O     O_R   0.320672 0.266117 0.206202 -0.343583

loop_
_geom_bond_atom_site_label_1
_geom_bond_atom_site_label_2
_geom_bond_distance
_ccdc_geom_bond_type
C24   C29   1.396184 A    
N6    O16   1.299864 A    
O7    Cu2   1.962933 S    
N5    O14   1.299862 A    
C23   C30   1.396179 A    
C27   H10   1.082654 S    
C8    C10   1.525530 S    
C1    C14   1.456799 S    
C23   C25   1.409777 A    
C7    N3    1.457679 S    
C3    C10   1.453014 S    
C21   C22   1.415541 A    
Cu2   N2    2.015190 S    
C26   N5    1.426374 S    
O6    C4    1.286168 A    
N3    O9    1.300260 A    
Cu1   N1    2.015189 S    
N6    O15   1.300800 A    
N4    O11   1.300263 A    
O8    Cu1   1.962934 S    
C27   C29   1.421978 A    
C6    C8    1.535804 S    
O2    C2    1.294083 A    
Cu1   Cu2   2.682085 S    
C16   C18   1.389464 A    
C28   C30   1.421973 A    
O7    C3    1.287644 A    
C15   C22   1.402640 A    
C13   C20   1.399333 A    
C6    C9    1.543444 S    
O3    Cu2   1.965664 S    
O8    C4    1.287642 A    
C16   C21   1.402639 A    
C15   C17   1.389465 A    
O1    C1    1.294082 A    
C4    C9    1.453013 S    
C5    C11   1.557911 S    
C6    H2    1.110343 S    
C19   C21   1.390903 A    
N1    C28   1.371046 A    
C24   C26   1.409772 A    
C14   C19   1.399334 A    
O5    C3    1.286168 A    
C20   C22   1.390903 A    
N2    C27   1.371043 A    
N3    O10   1.300034 A    
C16   F2    1.358409 S    
O2    Cu2   1.961894 S    
C10   C12   1.541188 S    
C28   H9    1.082664 S    
C7    C12   1.535800 S    
O1    Cu1   1.961894 S    
C15   F1    1.358408 S    
N5    O13   1.300799 A    
N4    O12   1.300041 A    
C8    C11   1.535802 S    
C20   H5    1.084081 S    
C24   H12   1.084057 S    
O5    Cu1   1.963525 S    
C11   H3    1.110117 S    
C17   H8    1.082879 S    
C6    C12   1.557910 S    
C29   C30   1.403491 A    
C5    C10   1.543444 S    
C18   H7    1.082880 S    
C25   N6    1.426370 S    
C5    C7    1.535803 S    
N1    C26   1.378293 A    
C19   H6    1.084082 S    
O6    Cu2   1.963526 S    
C13   C18   1.402024 A    
C5    H1    1.110344 S    
O4    C2    1.294196 A    
C9    C11   1.541188 S    
C23   H11   1.084061 S    
C14   C17   1.402024 A    
C7    C9    1.525528 S    
C2    C13   1.456799 S    
O4    Cu1   1.965663 S    
C12   H4    1.110116 S    
C8    N4    1.457670 S    
O3    C1    1.294196 A    
N2    C25   1.378285 A    
