data_mof_unit_56808.cif
_audit_creation_date              2013-03-05T16:34:20-0500
_audit_creation_method            fapswitch 2.2
_symmetry_space_group_name_H-M    P1
_symmetry_Int_Tables_number       1
_space_group_crystal_system       triclinic
_cell_length_a                    18.750014
_cell_length_b                    18.940966
_cell_length_c                    19.154492
_cell_angle_alpha                 110.413112
_cell_angle_beta                  109.877348
_cell_angle_gamma                 109.528339
_cell_volume                      5143.59201089

loop_
_atom_site_label
_atom_site_type_symbol
_atom_site_description
_atom_site_fract_x
_atom_site_fract_y
_atom_site_fract_z
_atom_type_partial_charge
O1    O     O_R   0.409800 0.552180 0.462000 -0.599963
O2    O     O_R   0.409830 0.447810 0.357640 -0.553683
C1    C     C_R   0.383092 0.501804 0.381368 0.827062
O3    O     O_R   0.590160 0.642370 0.552180 -0.588910
O4    O     O_R   0.590190 0.537990 0.447820 -0.542882
C2    C     C_R   0.614410 0.620209 0.496938 0.853001
Cu1   Cu    Cu3+1 0.499980 0.561800 0.561790 1.056011
Cu2   Cu    Cu3+1 0.500020 0.438200 0.438210 1.135544
O5    O     O_R   0.590170 0.552190 0.642360 -0.541662
O6    O     O_R   0.590200 0.447820 0.538000 -0.570516
O7    O     O_R   0.409810 0.462010 0.552180 -0.570238
O8    O     O_R   0.409840 0.357630 0.447820 -0.559632
C3    C     C_R   0.622959 0.503736 0.619037 0.852189
C4    C     C_R   0.378083 0.381117 0.496871 0.829401
C5    C     C_R   0.659775 0.858134 0.725780 -0.145641
C6    C     C_R   0.658836 0.817082 0.648785 -0.131262
C7    C     C_R   0.734510 0.817068 0.650836 0.153184
C8    C     C_R   0.812698 0.863540 0.732584 -0.048489
H1    H     H_    0.873138 0.867797 0.736844 0.195143
C9    C     C_R   0.813669 0.904978 0.809530 -0.146899
H2    H     H_    0.873993 0.939887 0.871801 0.166417
C10   C     C_R   0.737159 0.902080 0.806139 -0.111406
C11   C     C_R   0.803497 0.836330 0.565674 -0.218718
C12   C     C_R   0.808912 0.811380 0.491145 -0.034210
C13   C     C_R   0.743047 0.728692 0.414567 0.066166
C14   C     C_R   0.678346 0.669382 0.418546 -0.151826
C15   C     C_R   0.676405 0.691538 0.495481 -0.043532
C16   C     C_R   0.736496 0.779360 0.569052 0.054455
C17   C     C_R   0.724590 0.747321 0.288381 -0.171451
C18   C     C_R   0.721066 0.724707 0.209501 -0.133037
C19   C     C_R   0.729416 0.653703 0.168889 -0.217434
C20   C     C_R   0.739256 0.602361 0.205370 0.250271
C21   C     C_R   0.743841 0.625845 0.286681 0.215946
C22   C     C_R   0.740387 0.701686 0.330186 -0.086727
H3    H     H_    0.604560 0.910189 0.522927 0.142679
C23   C     C_R   0.479066 0.818973 0.496541 -0.138876
C24   C     C_R   0.409905 0.731498 0.446895 -0.030037
H4    H     H_    0.352144 0.714877 0.453172 0.192168
C25   C     C_R   0.412725 0.666767 0.385261 0.127785
C26   C     C_R   0.486912 0.690256 0.376079 -0.142157
H5    H     H_    0.489069 0.641671 0.327266 0.126403
C27   C     C_R   0.555794 0.777896 0.425593 -0.119536
C28   C     C_R   0.551377 0.842382 0.484961 -0.122803
C29   C     C_R   0.266135 0.579559 0.251111 0.322260
C30   C     C_R   0.188241 0.499398 0.182984 -0.204562
C31   C     C_R   0.175467 0.419553 0.178428 -0.094976
C32   C     C_R   0.239594 0.421121 0.244741 0.331148
C33   C     C_R   0.316580 0.501848 0.314127 -0.212970
C34   C     C_R   0.330479 0.581064 0.316922 -0.144075
C35   C     C_R   0.028941 0.284137 0.116211 0.410081
C36   C     C_R   0.956050 0.202214 0.044698 -0.159358
C37   C     C_R   0.946985 0.170969 0.962765 -0.180787
C38   C     C_R   0.010789 0.220647 0.951157 -0.055984
C39   C     C_R   0.084618 0.301337 0.021619 -0.142384
C40   C     C_R   0.094800 0.333883 0.104652 0.049945
C41   C     C_R   0.294396 0.560903 0.628144 -0.302035
C42   C     C_R   0.301629 0.486475 0.615141 0.341466
C43   C     C_R   0.240707 0.407208 0.532512 -0.088782
C44   C     C_R   0.170359 0.403219 0.470130 -0.261800
C45   C     C_R   0.161334 0.477020 0.485371 0.272911
C46   C     C_R   0.226852 0.557791 0.564053 0.259786
C47   C     C_R   0.181302 0.257810 0.508195 -0.198276
H6    H     H_    0.128025 0.263644 0.514902 0.155959
C48   C     C_R   0.189537 0.185705 0.503144 -0.052977
C49   C     C_R   0.262922 0.181543 0.501146 0.083994
C50   C     C_R   0.318797 0.243226 0.492141 -0.155817
H7    H     H_    0.374440 0.239705 0.489275 0.145261
C51   C     C_R   0.310433 0.314716 0.496725 -0.004338
C52   C     C_R   0.244454 0.325614 0.511102 0.127516
C53   C     C_R   0.334709 0.148341 0.608792 -0.211526
C54   C     C_R   0.391136 0.119195 0.640071 0.415300
C55   C     C_R   0.405460 0.064444 0.582134 -0.193750
C56   C     C_R   0.364227 0.039183 0.494750 -0.149305
H8    H     H_    0.376638 0.996748 0.451751 0.210591
C57   C     C_R   0.308572 0.068890 0.463010 0.343469
C58   C     C_R   0.293771 0.124655 0.521095 -0.070372
H9    H     H_    0.600096 0.434968 0.713029 0.161756
C59   C     C_R   0.821183 0.598602 0.679087 0.228510
C60   C     C_R   0.910439 0.631519 0.701324 0.277112
C61   C     C_R   0.953620 0.591077 0.728619 -0.273521
C62   C     C_R   0.915050 0.528829 0.746953 0.309908
C63   C     C_R   0.836302 0.514907 0.748653 -0.038547
C64   C     C_R   0.782070 0.539060 0.702426 -0.113161
C65   C     C_R   0.693335 0.505197 0.685436 -0.026514
C66   C     C_R   0.666997 0.461030 0.725406 -0.208096
C67   C     C_R   0.726825 0.452680 0.783931 -0.206805
C68   C     C_R   0.812557 0.482305 0.798624 -0.051981
O9    O     O_R   0.052200 0.909800 0.461980 -0.576289
O10   O     O_R   0.947810 0.909820 0.357620 -0.540585
C69   C     C_R   0.999030 0.879704 0.381093 0.840235
O11   O     O_R   0.962020 0.909790 0.552160 -0.547087
O12   O     O_R   0.857630 0.909810 0.447800 -0.615750
C70   C     C_R   0.880006 0.877137 0.494450 0.764909
Cu3   Cu    Cu3+1 0.061810 0.999960 0.561770 1.100691
Cu4   Cu    Cu3+1 0.938190 0.999990 0.438190 1.054493
O13   O     O_R   0.052190 0.090140 0.642340 -0.553106
O14   O     O_R   0.947800 0.090160 0.537980 -0.581265
O15   O     O_R   0.142370 0.090150 0.552150 -0.585794
O16   O     O_R   0.037980 0.090170 0.447800 -0.546043
C71   C     C_R   0.001980 0.120371 0.619104 0.761303
C72   C     C_R   0.120102 0.117287 0.499569 0.816284
O17   O     O_R   0.052180 0.461950 0.909820 -0.538663
O18   O     O_R   0.947800 0.357590 0.909850 -0.611528
C73   C     C_R   0.997245 0.380053 0.879350 0.775541
O19   O     O_R   0.142360 0.552150 0.090150 -0.551488
O20   O     O_R   0.037980 0.447790 0.090180 -0.554207
C74   C     C_R   0.119597 0.499553 0.117594 0.849925
Cu5   Cu    Cu3+1 0.061790 0.561750 0.999970 1.123133
Cu6   Cu    Cu3+1 0.938180 0.438170 0.000010 1.088981
O21   O     O_R   0.052170 0.642340 0.090130 -0.544837
O22   O     O_R   0.947790 0.537980 0.090160 -0.531917
O23   O     O_R   0.962000 0.552140 0.909800 -0.576109
O24   O     O_R   0.857610 0.447780 0.909830 -0.598698
C75   C     C_R   0.000362 0.618757 0.118428 0.867210
C76   C     C_R   0.880453 0.493001 0.875318 0.771470
H10   H     H_    0.093463 0.700760 0.598154 0.250991
C77   C     C_R   0.138225 0.789150 0.557207 -0.186870
H11   H     H_    0.200710 0.832960 0.618366 0.226237
C78   C     C_R   0.122776 0.804662 0.488452 0.437331
C79   C     C_R   0.039845 0.746896 0.409460 -0.054547
C80   C     C_R   0.977837 0.671955 0.400221 -0.219209
H12   H     H_    0.916538 0.625635 0.338801 0.218273
C81   C     C_R   0.997101 0.652933 0.466610 0.422937
C82   C     C_R   0.076680 0.713734 0.546034 -0.121779
C83   C     C_R   0.023216 0.689129 0.264464 0.325161
C84   C     C_R   0.000787 0.685301 0.185072 -0.188601
C85   C     C_R   0.978095 0.743828 0.169109 -0.098327
C86   C     C_R   0.978530 0.808027 0.233911 0.325385
C87   C     C_R   0.000288 0.812529 0.314492 -0.220488
C88   C     C_R   0.022241 0.751878 0.329553 -0.046405
C89   C     C_R   0.011557 0.792470 0.070083 0.383682
C90   C     C_R   0.979732 0.786587 0.989027 -0.170049
C91   C     C_R   0.891129 0.728072 0.923207 -0.159333
C92   C     C_R   0.832935 0.674184 0.936971 -0.103693
C93   C     C_R   0.863168 0.677956 0.016263 -0.166757
C94   C     C_R   0.951847 0.737257 0.083611 0.031648
C95   C     C_R   0.300797 0.272783 0.824232 -0.163050
C96   C     C_R   0.213302 0.244660 0.804916 0.366518
C97   C     C_R   0.169988 0.285108 0.772908 -0.043190
C98   C     C_R   0.217250 0.355395 0.766525 -0.228785
C99   C     C_R   0.305437 0.385286 0.790894 -0.078886
H13   H     H_    0.342434 0.442972 0.791237 0.225264
C100  C     C_R   0.346647 0.342928 0.817736 -0.141797
C101  C     C_R   0.075103 0.327850 0.816323 -0.170978
C102  C     C_R   0.994716 0.310823 0.811844 -0.039039
C103  C     C_R   0.917132 0.227321 0.747030 0.021797
C104  C     C_R   0.921601 0.168024 0.682658 -0.202479
C105  C     C_R   0.002062 0.186236 0.686918 -0.027181
C106  C     C_R   0.080627 0.264760 0.757448 0.066199
C107  C     C_R   0.795570 0.116213 0.744151 -0.179379
H14   H     H_    0.829429 0.079771 0.745350 0.128389
C108  C     C_R   0.714770 0.083105 0.740356 -0.146031
C109  C     C_R   0.669723 0.128656 0.738597 -0.092832
C110  C     C_R   0.705435 0.207467 0.740721 -0.123063
H15   H     H_    0.670443 0.242774 0.739378 0.146961
C111  C     C_R   0.786173 0.240704 0.744287 -0.056972
H16   H     H_    0.812037 0.301474 0.745828 0.166472
C112  C     C_R   0.832535 0.195724 0.746474 0.113073
H17   H     H_    0.738028 0.934447 0.865725 0.157887
H18   H     H_    0.726875 0.637982 0.107749 0.192454
N1    N     N_R   0.744131 0.527278 0.158744 0.145944
O25   O     O_R   0.714424 0.492735 0.075736 -0.339259
O26   O     O_R   0.784426 0.497224 0.199127 -0.245017
N2    N     N_R   0.745661 0.570235 0.321773 0.143866
O27   O     O_R   0.685335 0.487208 0.274171 -0.247459
O28   O     O_R   0.797412 0.604313 0.404502 -0.299720
H19   H     H_    0.475905 0.868850 0.542864 0.151787
H20   H     H_    0.611902 0.796114 0.416855 0.139528
N3    N     N_R   0.280487 0.660235 0.253841 0.138672
O29   O     O_R   0.230234 0.690963 0.265154 -0.282062
O30   O     O_R   0.343550 0.702728 0.244306 -0.320434
N4    N     N_R   0.225500 0.340766 0.242679 0.134742
O31   O     O_R   0.210998 0.275169 0.175551 -0.300864
O32   O     O_R   0.225182 0.332393 0.307188 -0.348697
H21   H     H_    0.600598 0.856541 0.723030 0.149784
N5    N     N_R   0.034026 0.316291 0.198781 0.140548
O33   O     O_R   0.995838 0.261469 0.218486 -0.293330
O34   O     O_R   0.068651 0.399857 0.250703 -0.272308
H22   H     H_    0.904988 0.163133 0.051941 0.184445
H23   H     H_    0.889983 0.108358 0.908019 0.149800
H24   H     H_    0.002748 0.196451 0.887287 0.179466
H25   H     H_    0.133957 0.338701 0.011511 0.139134
N6    N     N_R   0.225519 0.637132 0.581472 0.144453
O35   O     O_R   0.234808 0.685572 0.655314 -0.343247
O36   O     O_R   0.240268 0.672312 0.536686 -0.310889
H26   H     H_    0.342227 0.622924 0.688976 0.227549
N7    N     N_R   0.372208 0.494409 0.685465 0.124286
O37   O     O_R   0.381960 0.427911 0.678528 -0.411728
O38   O     O_R   0.428818 0.569824 0.757928 -0.362514
H27   H     H_    0.121654 0.341548 0.409018 0.247627
N8    N     N_R   0.082530 0.466587 0.423492 0.188698
O39   O     O_R   0.082279 0.531604 0.414826 -0.221865
O40   O     O_R   0.009147 0.390956 0.375507 -0.232704
H28   H     H_    0.598492 0.784110 0.587649 0.150767
H29   H     H_    0.326755 0.194157 0.653969 0.188349
N9    N     N_R   0.434617 0.145967 0.730442 0.143294
O41   O     O_R   0.435577 0.209334 0.787470 -0.366594
O42   O     O_R   0.474051 0.107489 0.756664 -0.336042
H30   H     H_    0.448689 0.041068 0.604419 0.170832
N10   N     N_R   0.271933 0.045976 0.373580 0.151434
O43   O     O_R   0.201320 0.047688 0.334093 -0.254233
O44   O     O_R   0.307708 0.020575 0.330018 -0.262636
N11   N     N_R   0.773215 0.628853 0.635671 0.104400
O45   O     O_R   0.776290 0.627793 0.568549 -0.289408
O46   O     O_R   0.751328 0.679785 0.677301 -0.395079
N12   N     N_R   0.957536 0.705503 0.696137 0.189042
O47   O     O_R   0.937924 0.766779 0.708458 -0.312145
O48   O     O_R   0.030669 0.720907 0.696464 -0.334897
H31   H     H_    0.017495 0.607479 0.734948 0.242772
N13   N     N_R   0.951243 0.474206 0.754398 0.138072
O49   O     O_R   0.035317 0.504916 0.783848 -0.333310
O50   O     O_R   0.898261 0.389673 0.709769 -0.401952
H32   H     H_    0.706658 0.425310 0.819680 0.181188
N14   N     N_R   0.192658 0.877639 0.499853 0.137057
O51   O     O_R   0.201987 0.874219 0.434708 -0.322442
O52   O     O_R   0.252288 0.945130 0.577694 -0.364332
N15   N     N_R   0.938884 0.569915 0.451607 0.196129
O53   O     O_R   0.948375 0.557866 0.516304 -0.288548
O54   O     O_R   0.880596 0.503541 0.372633 -0.188329
N16   N     N_R   0.049162 0.630089 0.280070 0.127826
O55   O     O_R   0.128264 0.661289 0.342401 -0.261488
O56   O     O_R   0.989565 0.548436 0.244004 -0.246280
N17   N     N_R   0.957597 0.869070 0.217406 0.141384
O57   O     O_R   0.879048 0.841517 0.156657 -0.355204
O58   O     O_R   0.017573 0.951953 0.261721 -0.264879
N18   N     N_R   0.103292 0.854533 0.136902 0.154812
O59   O     O_R   0.149280 0.920583 0.133264 -0.254869
O60   O     O_R   0.143533 0.842256 0.197807 -0.263351
H33   H     H_    0.023644 0.827441 0.976517 0.193664
H34   H     H_    0.867507 0.724795 0.861504 0.183461
H35   H     H_    0.764060 0.629824 0.886305 0.173537
H36   H     H_    0.816896 0.636013 0.026085 0.161966
H37   H     H_    0.415026 0.366052 0.835902 0.203142
H38   H     H_    0.335120 0.243024 0.848520 0.228745
N19   N     N_R   0.171872 0.178174 0.821363 0.139032
O61   O     O_R   0.113527 0.177066 0.843699 -0.384490
O62   O     O_R   0.197931 0.122508 0.821275 -0.303047
H39   H     H_    0.186572 0.389402 0.745778 0.185118
H40   H     H_    0.850966 0.902701 0.621178 0.134167
H41   H     H_    0.135281 0.389517 0.868998 0.159887
H42   H     H_    0.862375 0.105283 0.630584 0.140836
H43   H     H_    0.686956 0.022012 0.738574 0.144356
H44   H     H_    0.607147 0.102780 0.735503 0.178122
H45   H     H_    0.629103 0.604848 0.360951 0.167982
H46   H     H_    0.713110 0.799858 0.316121 0.176669
H47   H     H_    0.710763 0.761863 0.179111 0.192958

loop_
_geom_bond_atom_site_label_1
_geom_bond_atom_site_label_2
_geom_bond_distance
_ccdc_geom_bond_type
C29   C34   1.401115 A    
C50   C51   1.390786 A    
C12   C13   1.414980 A    
C84   C85   1.402400 A    
C91   C92   1.393078 A    
N3    O30   1.300951 A    
C56   H8    1.082640 S    
C53   H29   1.083775 S    
C104  C105  1.396568 A    
C62   N13   1.434478 S    
C57   C58   1.420108 A    
C90   H33   1.082450 S    
N16   O56   1.300845 A    
C62   C63   1.424479 A    
C54   N9    1.438685 S    
C81   C82   1.397313 A    
Cu3   O15   1.979284 S    
C66   C67   1.388244 A    
C41   C42   1.404857 A    
Cu1   O7    1.968279 S    
O19   C74   1.297924 A    
C3    C65   1.472860 S    
C14   C15   1.401563 A    
C24   H4    1.083280 S    
C49   C58   1.481623 S    
C64   C65   1.434660 A    
C79   C88   1.496189 S    
N2    O27   1.301190 A    
C77   C82   1.390936 A    
C103  C104  1.398528 A    
C77   C78   1.404291 A    
O4    C2    1.315751 A    
C75   C84   1.442995 S    
O7    C4    1.285934 A    
C14   H45   1.084353 S    
C10   H17   1.082293 S    
C104  H42   1.085352 S    
Cu5   O21   1.975353 S    
C5    C6    1.397563 A    
C1    C33   1.457161 S    
N9    O41   1.300664 A    
C11   H40   1.085822 S    
Cu5   Cu6   2.688165 S    
C101  H41   1.085402 S    
C8    C9    1.397800 A    
C35   N5    1.438100 S    
C8    H1    1.081137 S    
N3    O29   1.300378 A    
O5    C3    1.303004 A    
C29   N3    1.438744 S    
C47   C48   1.399076 A    
Cu6   O22   1.967658 S    
C91   H34   1.082295 S    
C69   C87   1.468052 S    
C99   H13   1.077147 S    
C59   C64   1.425239 A    
N13   O49   1.301904 A    
C5    C10   1.395512 A    
H10   C82   1.079485 S    
C19   C20   1.405115 A    
C27   H20   1.082209 S    
C90   C91   1.395636 A    
C30   C74   1.460894 S    
C31   C40   1.491262 S    
N19   O62   1.301622 A    
C23   C24   1.398942 A    
N19   O61   1.299780 A    
C39   H25   1.083445 S    
O17   Cu5   1.967540 S    
C53   C54   1.404727 A    
Cu2   O8    1.975940 S    
C17   C18   1.390104 A    
H3    C28   1.082522 S    
O21   C75   1.293761 A    
C110  C111  1.398307 A    
C19   H18   1.082471 S    
Cu6   O24   1.981849 S    
C13   C22   1.492611 S    
C55   C56   1.393670 A    
N5    O34   1.300668 A    
C50   H7    1.085753 S    
C81   N15   1.438971 S    
C79   C80   1.406925 A    
H9    C66   1.084232 S    
C44   C45   1.405341 A    
C109  C110  1.396135 A    
O18   Cu6   1.975259 S    
O1    Cu1   1.974609 S    
C86   C87   1.418725 A    
C56   C57   1.405330 A    
C96   N19   1.441418 S    
O3    Cu1   1.975939 S    
C36   H22   1.082578 S    
C83   C88   1.401317 A    
C86   N17   1.436955 S    
N16   O55   1.300828 A    
N1    O26   1.300183 A    
N4    O32   1.301196 A    
C102  C103  1.422302 A    
C98   C99   1.391920 A    
C48   C72   1.458965 S    
O19   Cu5   1.981726 S    
O9    Cu3   1.971140 S    
C46   N6    1.432244 S    
N7    O38   1.301944 A    
N8    O39   1.300031 A    
C32   C33   1.410761 A    
Cu1   Cu2   2.687125 S    
C65   C66   1.399135 A    
C6    H28   1.076080 S    
C85   C94   1.486091 S    
N17   O57   1.300996 A    
N9    O42   1.301230 A    
C89   C94   1.420475 A    
C25   C26   1.403925 A    
N12   O47   1.300463 A    
N10   O43   1.300357 A    
C35   C36   1.406570 A    
N15   O53   1.301501 A    
C57   N10   1.440981 S    
C17   C22   1.403133 A    
C97   C106  1.481509 S    
C23   H19   1.082479 S    
Cu5   O23   1.967877 S    
C47   C52   1.393972 A    
O24   C76   1.302433 A    
C45   C46   1.413219 A    
O1    C1    1.293527 A    
C99   C100  1.391819 A    
C111  H16   1.074407 S    
O10   Cu4   1.971748 S    
Cu3   O13   1.971866 S    
N6    O35   1.301191 A    
N8    O40   1.301495 A    
C108  H43   1.081233 S    
C47   H6    1.085264 S    
C38   H24   1.080135 S    
O11   C70   1.304016 A    
N6    O36   1.301249 A    
N11   O46   1.298282 A    
C26   C27   1.399497 A    
C2    C15   1.475025 S    
O8    C4    1.304283 A    
C18   C19   1.390018 A    
C11   C12   1.389825 A    
C20   N1    1.443917 S    
C21   N2    1.436918 S    
C98   H39   1.083752 S    
C7    C8    1.410923 A    
C80   H12   1.077572 S    
C31   C32   1.404005 A    
C11   C16   1.394454 A    
C59   N11   1.413180 S    
O17   C73   1.303578 A    
C110  H15   1.082685 S    
C32   N4    1.438725 S    
O3    C2    1.283552 A    
C33   C34   1.412492 A    
C25   C34   1.482612 S    
C41   H26   1.082686 S    
C49   C50   1.391933 A    
N18   O60   1.300888 A    
C93   H36   1.083385 S    
C109  H44   1.080907 S    
C53   C58   1.406929 A    
C83   C84   1.400894 A    
C107  C108  1.397119 A    
C43   C44   1.404251 A    
N15   O54   1.301479 A    
C27   C28   1.398096 A    
C85   C86   1.397499 A    
O15   C72   1.292867 A    
C18   H47   1.082431 S    
C15   C16   1.433345 A    
O14   C71   1.300638 A    
N4    O31   1.301123 A    
C97   C98   1.403957 A    
C68   C76   1.472426 S    
C87   C88   1.427899 A    
N14   O51   1.300565 A    
Cu1   O5    1.975243 S    
C39   C40   1.406026 A    
C26   H5    1.083082 S    
O9    C69   1.293415 A    
C107  C112  1.408847 A    
C101  C106  1.390174 A    
O16   C72   1.302206 A    
C67   C68   1.399010 A    
C7    C16   1.497490 S    
C17   H46   1.082144 S    
C73   C102  1.458644 S    
C51   C52   1.418310 A    
Cu2   O6    1.974611 S    
O2    Cu2   1.975242 S    
C29   C30   1.407341 A    
C9    C10   1.395246 A    
C61   C62   1.388515 A    
C23   C28   1.398315 A    
O6    C3    1.295510 A    
O4    Cu2   1.968281 S    
C78   C79   1.418526 A    
N17   O58   1.300290 A    
C43   C52   1.487152 S    
C38   C39   1.396365 A    
C92   C93   1.394619 A    
C103  C112  1.491217 S    
C92   H35   1.081233 S    
C60   N12   1.443220 S    
C95   C96   1.406257 A    
N13   O50   1.298316 A    
C35   C40   1.419596 A    
C107  H14   1.083569 S    
C5    H21   1.082405 S    
C101  C102  1.396778 A    
C20   C21   1.425151 A    
C100  H37   1.082405 S    
N2    O28   1.300551 A    
C37   H23   1.082275 S    
C13   C14   1.396784 A    
N14   O52   1.299461 A    
C36   C37   1.394835 A    
C24   C25   1.405650 A    
C67   H32   1.083165 S    
C12   C70   1.452542 S    
C48   C49   1.416768 A    
C55   H30   1.082464 S    
C59   C60   1.415407 A    
C89   N18   1.442277 S    
C42   C43   1.424920 A    
C6    C7    1.406117 A    
C95   H38   1.081751 S    
N1    O25   1.301838 A    
C71   C105  1.452792 S    
C45   N8    1.441391 S    
O13   C71   1.290550 A    
C111  C112  1.406599 A    
O12   C70   1.289133 A    
C21   C22   1.423380 A    
O2    C1    1.295103 A    
O22   C75   1.287093 A    
Cu4   O16   1.965242 S    
C105  C106  1.409797 A    
O12   Cu4   1.979039 S    
C95   C100  1.394341 A    
Cu3   Cu4   2.691943 S    
C80   C81   1.404158 A    
C93   C94   1.404458 A    
C96   C97   1.423878 A    
N5    O33   1.301344 A    
C60   C61   1.386279 A    
C83   N16   1.440321 S    
C30   C31   1.415541 A    
C63   C68   1.419165 A    
C54   C55   1.401863 A    
C42   N7    1.449818 S    
C9    H2    1.082436 S    
C78   N14   1.434990 S    
N10   O44   1.301536 A    
N18   O59   1.301537 A    
O20   C74   1.292371 A    
O18   C73   1.288340 A    
C4    C51   1.455791 S    
C41   C46   1.398879 A    
C44   H27   1.083863 S    
N7    O37   1.300485 A    
C108  C109  1.395370 A    
N11   O45   1.299955 A    
C63   C64   1.417224 A    
O10   C69   1.304376 A    
C77   H11   1.082675 S    
N12   O48   1.300347 A    
O23   C76   1.296526 A    
C89   C90   1.408510 A    
Cu4   O14   1.971234 S    
C37   C38   1.392949 A    
C61   H31   1.082507 S    
O11   Cu3   1.965145 S    
O20   Cu6   1.967894 S    
