data_mof_unit_63033.cif
_audit_creation_date              2012-12-10T19:04:19-0500
_audit_creation_method            fapswitch 2.2
_symmetry_space_group_name_H-M    P1
_symmetry_Int_Tables_number       1
_space_group_crystal_system       triclinic
_cell_length_a                    10.644715
_cell_length_b                    13.05691
_cell_length_c                    13.635107
_cell_angle_alpha                 85.594404
_cell_angle_beta                  90.087374
_cell_angle_gamma                 93.063378
_cell_volume                      1886.79785946

loop_
_atom_site_label
_atom_site_type_symbol
_atom_type_description
_atom_site_fract_x
_atom_site_fract_y
_atom_site_fract_z
_atom_type_partial_charge
C1    C     C_R   0.498635 0.481088 0.685094 0.907250
C2    C     C_3   0.121249 0.501306 0.500058 0.177599
C3    C     C_3   0.069376 0.459233 0.403863 -0.398045
C4    C     C_3   0.078849 0.612498 0.506455 -0.393537
C5    C     C_1   0.502428 0.534190 0.211888 -0.186758
C6    C     C_2   0.503162 0.545779 0.019414 0.433787
C7    C     C_2   0.496816 0.454198 0.980586 0.433883
C8    C     C_1   0.496940 0.456565 0.875459 -0.067925
C9    C     C_1   0.503045 0.543415 0.124541 -0.067863
C10   C     C_1   0.497565 0.465798 0.788111 -0.186626
C11   C     C_2   0.464338 0.033088 0.473126 -0.244812
C12   C     C_R   0.742782 0.499944 0.500030 0.826280
C13   C     C_2   0.535642 0.966910 0.526879 -0.244679
C14   C     C_1   0.525819 0.854764 0.519489 0.129655
C15   C     C_1   0.474166 0.145235 0.480513 0.130533
C16   C     C_R   0.501365 0.518910 0.314906 0.907065
C17   C     C_R   0.257310 0.500472 0.499995 0.826572
C18   C     C_3   0.923801 0.432231 0.589833 -0.403841
C19   C     C_3   0.068038 0.432717 0.589911 -0.399804
C20   C     C_3   0.925136 0.458727 0.403923 -0.400214
C21   C     C_3   0.936132 0.612123 0.506453 -0.386415
C22   C     C_3   0.879071 0.500586 0.500051 0.177038
H1    H     H_    0.884297 0.351810 0.587113 0.180667
H2    H     H_    0.116335 0.663512 0.442746 0.177326
H3    H     H_    0.892709 0.507078 0.338916 0.158553
H4    H     H_    0.107373 0.507856 0.338844 0.157984
H5    H     H_    0.603754 0.996901 0.578206 0.161526
H6    H     H_    0.396227 0.003096 0.421800 0.161411
H7    H     H_    0.890412 0.461420 0.659303 0.159365
H8    H     H_    0.105072 0.462169 0.659405 0.159081
H9    H     H_    0.097620 0.352450 0.587395 0.181761
H10   H     H_    0.885660 0.378841 0.397444 0.184605
H11   H     H_    0.098993 0.379561 0.397182 0.184775
H12   H     H_    0.904955 0.663096 0.442755 0.178087
H13   H     H_    0.904002 0.644256 0.574934 0.181731
H14   H     H_    0.115385 0.644665 0.574939 0.182286
N1    N     N_1   0.479840 0.234530 0.484780 -0.095831
N2    N     N_1   0.520150 0.765470 0.515220 -0.096068
O1    O     O_R   0.492620 0.402510 0.634760 -0.617581
O2    O     O_R   0.505570 0.572960 0.644530 -0.588178
O3    O     O_R   0.678730 0.414780 0.495130 -0.621852
O4    O     O_R   0.691680 0.585220 0.504900 -0.625514
O5    O     O_R   0.494430 0.427040 0.355470 -0.588034
O6    O     O_R   0.507380 0.597490 0.365240 -0.617823
O7    O     O_R   0.308320 0.414780 0.495100 -0.623048
O8    O     O_R   0.321270 0.585220 0.504870 -0.624601
Zn1   Zn    Zn3+2 0.491360 0.386190 0.493470 0.964110
Zn2   Zn    Zn3+2 0.508640 0.613810 0.506530 0.962452
O9    O     O_3   0.490554 0.363277 0.042647 -0.622438
C23   C     C_3   0.484406 0.273750 0.990693 -0.303453
H15   H     H_    0.570253 0.269438 0.945076 0.165309
H16   H     H_    0.397989 0.269815 0.944847 0.165720
H17   H     H_    0.479729 0.205611 0.044670 0.192149
O10   O     O_3   0.509425 0.636700 0.957352 -0.622543
C24   C     C_3   0.515552 0.726228 0.009304 -0.304096
H18   H     H_    0.601964 0.730174 0.055154 0.165640
H19   H     H_    0.429699 0.730532 0.054915 0.165194
H20   H     H_    0.520223 0.794366 0.955326 0.192188

loop_
_geom_bond_atom_site_label_1
_geom_bond_atom_site_label_2
_ccdc_geom_bond_type
C23   H16   S    
C24   H18   S    
C4    H14   S    
C5    C9    T    
C12   O3    A    
C21   H13   S    
N1    Zn1   S    
C16   O6    A    
C2    C4    S    
C19   H9    S    
C21   C22   S    
C6    C9    S    
O7    Zn1   S    
C2    C3    S    
O3    Zn1   S    
C7    C8    S    
C18   H7    S    
O4    Zn2   S    
C13   C14   S    
C2    C17   S    
C4    C21   S    
C11   C13   D    
C16   O5    A    
C6    C7    D    
O5    Zn1   S    
C11   H6    S    
C6    O10   S    
O1    Zn1   S    
C17   O7    A    
C18   C19   S    
C11   C15   S    
C24   H19   S    
C4    H2    S    
O8    Zn2   S    
C23   H17   S    
C14   N2    T    
C20   H3    S    
C3    H11   S    
C18   H1    S    
C12   C22   S    
C3    C20   S    
C17   O8    A    
C7    O9    S    
C8    C10   T    
O9    C23   S    
C20   H10   S    
C24   H20   S    
O2    Zn2   S    
C1    O1    A    
O10   C24   S    
C15   N1    T    
C5    C16   S    
C12   O4    A    
C21   H12   S    
C1    O2    A    
C23   H15   S    
C2    C19   S    
C18   C22   S    
C19   H8    S    
N2    Zn2   S    
C3    H4    S    
C13   H5    S    
C1    C10   S    
O6    Zn2   S    
C20   C22   S    
