data_mof_unit_44876.cif
_audit_creation_date              2012-12-11T14:49:49-0500
_audit_creation_method            fapswitch 2.2
_symmetry_space_group_name_H-M    P1
_symmetry_Int_Tables_number       1
_space_group_crystal_system       monoclinic
_cell_length_a                    10.94023
_cell_length_b                    10.94023
_cell_length_c                    18.888075
_cell_angle_alpha                 90.0
_cell_angle_beta                  90.0
_cell_angle_gamma                 120.000165
_cell_volume                      1957.80986718

loop_
_atom_site_label
_atom_site_type_symbol
_atom_type_description
_atom_site_fract_x
_atom_site_fract_y
_atom_site_fract_z
_atom_type_partial_charge
C1    C     C_R   0.528965 0.469649 0.646786 0.554363
C2    C     C_R   0.464740 0.530266 0.355085 0.566080
C3    C     C_R   0.469734 0.934474 0.144915 0.566079
C4    C     C_R   0.065526 0.535260 0.355085 0.566079
C5    C     C_R   0.386353 0.017151 0.536092 0.081757
C6    C     C_R   0.630798 0.613647 0.963908 0.081757
C7    C     C_R   0.982849 0.369202 0.536092 0.081757
C8    C     C_R   0.386353 0.017151 0.963908 0.081757
C9    C     C_R   0.630798 0.613647 0.536092 0.081757
C10   C     C_R   0.982849 0.369202 0.963908 0.081757
C11   C     C_R   0.987482 0.378129 0.038174 0.072497
C12   C     C_R   0.940684 0.471035 0.853214 0.554363
C13   C     C_R   0.621871 0.609354 0.461826 0.072497
C14   C     C_R   0.390647 0.012518 0.038174 0.072498
C15   C     C_R   0.987482 0.378129 0.461826 0.072497
C16   C     C_R   0.621871 0.609354 0.038174 0.072497
C17   C     C_R   0.390647 0.012518 0.461826 0.072498
C18   C     C_R   0.479946 0.970323 0.429782 0.008555
C19   C     C_R   0.490376 0.520054 0.070218 0.008555
C20   C     C_R   0.029677 0.509624 0.429782 0.008555
C21   C     C_R   0.479946 0.970323 0.070218 0.008555
C22   C     C_R   0.490376 0.520054 0.429782 0.008555
C23   C     C_R   0.530351 0.059316 0.646786 0.554363
C24   C     C_R   0.029677 0.509624 0.070218 0.008555
C25   C     C_R   0.003107 0.487517 0.923441 -0.002582
C26   C     C_R   0.512483 0.515590 0.576559 -0.002582
C27   C     C_R   0.484410 0.996893 0.923441 -0.002582
C28   C     C_R   0.003107 0.487517 0.576559 -0.002582
C29   C     C_R   0.512483 0.515590 0.923441 -0.002582
C30   C     C_R   0.484410 0.996893 0.576559 -0.002582
C31   C     C_R   0.562094 0.932954 0.471748 -0.136273
C32   C     C_R   0.370860 0.437906 0.028252 -0.136273
C33   C     C_R   0.067045 0.629139 0.471748 -0.136273
C34   C     C_R   0.528965 0.469649 0.853214 0.554364
C35   C     C_R   0.562094 0.932955 0.028252 -0.136273
C36   C     C_R   0.370860 0.437906 0.471748 -0.136273
C37   C     C_R   0.067045 0.629139 0.028252 -0.136273
C38   C     C_R   0.053353 0.618004 0.956061 -0.146708
C39   C     C_R   0.381996 0.435349 0.543939 -0.146708
C40   C     C_R   0.564651 0.946646 0.956061 -0.146708
C41   C     C_R   0.053353 0.618004 0.543939 -0.146708
C42   C     C_R   0.381996 0.435349 0.956061 -0.146708
C43   C     C_R   0.564650 0.946646 0.543939 -0.146708
C44   C     C_R   0.940684 0.471035 0.646786 0.554363
C45   C     C_R   0.530351 0.059316 0.853214 0.554363
C46   C     C_R   0.464740 0.530266 0.144915 0.566080
C47   C     C_R   0.469734 0.934474 0.355085 0.566079
C48   C     C_R   0.065526 0.535260 0.144915 0.566079
Cr1   Cr    Cr6+3 0.776430 0.541680 0.750000 1.109112
Cr2   Cr    Cr6+3 0.765250 0.223570 0.750000 1.109112
Cr3   Cr    Cr6+3 0.458320 0.234750 0.750000 1.109112
Cr4   Cr    Cr6+3 0.541680 0.776430 0.250000 1.111316
Cr5   Cr    Cr6+3 0.223570 0.765250 0.250000 1.111316
Cr6   Cr    Cr6+3 0.234750 0.458320 0.250000 1.111317
H1    H     H_    0.625697 0.892565 0.448899 0.192075
H2    H     H_    0.075872 0.711057 0.574088 0.190762
H3    H     H_    0.288943 0.364815 0.925912 0.190763
H4    H     H_    0.635184 0.924127 0.574088 0.190762
H5    H     H_    0.266868 0.374302 0.051101 0.192076
H6    H     H_    0.107434 0.733132 0.448898 0.192076
H7    H     H_    0.625698 0.892566 0.051101 0.192075
H8    H     H_    0.266867 0.374302 0.448899 0.192076
H9    H     H_    0.107434 0.733132 0.051102 0.192076
H10   H     H_    0.075872 0.711057 0.925912 0.190762
H11   H     H_    0.288943 0.364815 0.574088 0.190763
H12   H     H_    0.635184 0.924127 0.925912 0.190762
I1    I     I_    0.222449 0.040762 0.584410 -0.235927
I2    I     I_    0.919656 0.191389 0.398885 -0.213693
I3    I     I_    0.808611 0.728267 0.101115 -0.213692
I4    I     I_    0.271735 0.080345 0.398885 -0.213692
I5    I     I_    0.818314 0.777552 0.915590 -0.235927
I6    I     I_    0.959239 0.181687 0.584410 -0.235927
I7    I     I_    0.222449 0.040762 0.915590 -0.235928
I8    I     I_    0.818314 0.777552 0.584410 -0.235927
I9    I     I_    0.959239 0.181687 0.915590 -0.235928
I10   I     I_    0.919656 0.191389 0.101115 -0.213693
I11   I     I_    0.808611 0.728267 0.398885 -0.213692
I12   I     I_    0.271735 0.080345 0.101115 -0.213693
O1    O     O_R   0.916700 0.566820 0.669930 -0.493153
O2    O     O_R   0.566820 0.916700 0.330070 -0.491182
O3    O     O_R   0.083300 0.650120 0.169930 -0.491181
O4    O     O_R   0.349880 0.433180 0.330070 -0.491181
O5    O     O_R   0.649840 0.534790 0.674920 -0.475842
O6    O     O_R   0.884950 0.350160 0.825080 -0.475841
O7    O     O_R   0.465210 0.115050 0.674920 -0.475842
O8    O     O_R   0.649840 0.534790 0.825080 -0.475842
O9    O     O_R   0.884950 0.350160 0.674920 -0.475841
O10   O     O_R   0.465210 0.115050 0.825080 -0.475842
O11   O     O_R   0.534790 0.649840 0.174920 -0.482839
O12   O     O_R   0.650120 0.083300 0.830070 -0.493152
O13   O     O_R   0.350160 0.884950 0.325080 -0.482839
O14   O     O_R   0.115050 0.465210 0.174920 -0.482839
O15   O     O_R   0.534790 0.649840 0.325080 -0.482839
O16   O     O_R   0.350160 0.884950 0.174920 -0.482839
O17   O     O_R   0.115050 0.465210 0.325080 -0.482839
O18   O     O_3   0.666667 0.333333 0.750000 -0.282475
O19   O     O_3   0.333333 0.666667 0.250000 -0.306166
O20   O     O_R   0.433180 0.349880 0.669930 -0.493152
O21   O     O_R   0.916700 0.566820 0.830070 -0.493153
O22   O     O_R   0.650120 0.083300 0.669930 -0.493152
O23   O     O_R   0.433180 0.349880 0.830070 -0.493152
O24   O     O_R   0.566820 0.916700 0.169930 -0.491181
O25   O     O_R   0.083300 0.650120 0.330070 -0.491181
O26   O     O_R   0.349880 0.433180 0.169930 -0.491181

loop_
_geom_bond_atom_site_label_1
_geom_bond_atom_site_label_2
_ccdc_geom_bond_type
C29   C42   A    
Cr4   O19   S    
C5    I1    S    
C18   C47   S    
Cr3   O7    S    
C19   C46   S    
Cr2   O6    S    
C46   O11   A    
Cr4   O24   S    
C31   C43   A    
C14   C21   A    
Cr6   O26   S    
C11   I10   S    
C26   C39   A    
C5    C17   A    
C4    O25   A    
C11   C24   A    
C48   O3    A    
C12   O6    A    
Cr5   O3    S    
C34   O8    A    
C9    C13   A    
C12   O21   A    
C43   H4    S    
Cr2   O12   S    
Cr5   O13   S    
Cr6   O19   S    
C44   O9    A    
C2    O15   A    
Cr3   O18   S    
C27   C45   S    
Cr3   O20   S    
C7    C15   A    
C23   O22   A    
C17   I4    S    
C40   H12   S    
C39   H11   S    
Cr4   O11   S    
C6    I5    S    
C47   O2    A    
C36   H8    S    
C19   C32   A    
C42   H3    S    
C37   H9    S    
C9    C26   A    
C24   C37   A    
C38   H10   S    
C36   C39   A    
C15   C20   A    
C13   I11   S    
C34   O23   A    
C24   C48   S    
C23   C30   S    
C45   O10   A    
C7    I6    S    
Cr5   O19   S    
C46   O26   A    
C29   C34   S    
C28   C44   S    
C7    C28   A    
Cr1   O1    S    
C1    O20   A    
C41   H2    S    
Cr6   O14   S    
C37   C38   A    
C25   C38   A    
Cr1   O21   S    
C4    O17   A    
C10   I9    S    
C27   C40   A    
C17   C18   A    
Cr4   O15   S    
C35   H7    S    
C45   O12   A    
Cr6   O17   S    
Cr2   O9    S    
C20   C33   A    
C3    O24   A    
C33   H6    S    
C48   O14   A    
C1    C26   S    
C30   C43   A    
C3    C21   S    
Cr3   O23   S    
C9    I8    S    
Cr6   O4    S    
C10   C25   A    
C5    C30   A    
C8    C14   A    
Cr5   O16   S    
C47   O13   A    
Cr1   O8    S    
C44   O1    A    
C16   I3    S    
Cr3   O10   S    
C21   C35   A    
C1    O5    A    
C22   C36   A    
Cr2   O22   S    
C12   C25   S    
C33   C41   A    
Cr1   O5    S    
C35   C40   A    
C2    C22   S    
Cr2   O18   S    
Cr5   O25   S    
C16   C19   A    
C15   I2    S    
C8    I7    S    
C13   C22   A    
C3    O16   A    
C14   I12   S    
Cr1   O18   S    
C2    O4    A    
C10   C11   A    
C6    C16   A    
C4    C20   S    
C6    C29   A    
C23   O7    A    
C8    C27   A    
C32   C42   A    
C18   C31   A    
C32   H5    S    
C31   H1    S    
Cr4   O2    S    
C28   C41   A    
