data_mof_unit_59674.cif
_audit_creation_date              2013-03-05T16:36:15-0500
_audit_creation_method            fapswitch 2.2
_symmetry_space_group_name_H-M    P1
_symmetry_Int_Tables_number       1
_space_group_crystal_system       triclinic
_cell_length_a                    27.815099
_cell_length_b                    9.084088
_cell_length_c                    7.774899
_cell_angle_alpha                 89.910169
_cell_angle_beta                  89.999971
_cell_angle_gamma                 90.000011
_cell_volume                      1964.51869008

loop_
_atom_site_label
_atom_site_type_symbol
_atom_site_description
_atom_site_fract_x
_atom_site_fract_y
_atom_site_fract_z
_atom_type_partial_charge
O1    O     O_R   0.500000 0.288390 0.642760 -0.584994
O2    O     O_R   0.500000 0.711610 0.357240 -0.584994
O3    O     O_R   0.500000 0.711610 0.642760 -0.556285
O4    O     O_R   0.500000 0.288390 0.357240 -0.556284
C1    C     C_R   0.499999 0.219992 0.500079 0.881137
C2    C     C_R   0.499999 0.780008 0.499921 0.881136
O5    O     O_R   0.430260 0.500000 0.642770 -0.557973
O6    O     O_R   0.569740 0.500000 0.357230 -0.557140
O7    O     O_R   0.569740 0.500000 0.642770 -0.557140
O8    O     O_R   0.430260 0.500000 0.357230 -0.557973
C3    C     C_R   0.407400 0.500000 0.500000 0.922370
C4    C     C_R   0.592611 0.500000 0.500000 0.920928
Cu1   Cu    Cu3+1 0.500000 0.500000 0.669080 1.118357
Cu2   Cu    Cu3+1 0.500000 0.500000 0.330920 1.118358
C5    C     C_R   0.178141 0.453145 0.643310 0.557155
C6    C     C_R   0.821930 0.547310 0.356894 0.556880
C7    C     C_R   0.178141 0.546850 0.356689 0.557155
C8    C     C_R   0.821930 0.452678 0.643103 0.556881
O9    O     O_2   0.203051 0.407141 0.782359 -0.496013
O10   O     O_2   0.797028 0.593925 0.218105 -0.496503
O11   O     O_2   0.203051 0.592855 0.217641 -0.496013
O12   O     O_2   0.797028 0.406063 0.781892 -0.496503
N1    N     N_R   0.202179 0.499998 0.500000 -0.464504
N2    N     N_R   0.797885 0.499994 0.499999 -0.464354
C9    C     C_R   0.279054 0.616462 0.577897 -0.065830
C10   C     C_R   0.720994 0.385153 0.418888 -0.066216
C11   C     C_R   0.279054 0.383535 0.422103 -0.065830
C12   C     C_R   0.720994 0.614840 0.581111 -0.066217
C13   C     C_R   0.329505 0.616396 0.578635 0.268035
C14   C     C_R   0.670541 0.385213 0.418187 0.268321
C15   C     C_R   0.329505 0.383602 0.421365 0.268035
C16   C     C_R   0.670542 0.614782 0.581813 0.268321
C17   C     C_R   0.253860 0.499998 0.500000 0.146736
C18   C     C_R   0.746196 0.499996 0.499999 0.146589
C19   C     C_R   0.102018 0.499996 0.499999 -0.039634
C20   C     C_R   0.898053 0.499994 0.499998 -0.039743
C21   C     C_R   0.127686 0.452630 0.646135 -0.028572
C22   C     C_R   0.872385 0.547670 0.354003 -0.028553
C23   C     C_R   0.127686 0.547363 0.353864 -0.028572
C24   C     C_R   0.872385 0.452318 0.645994 -0.028553
C25   C     C_R   0.102632 0.405724 0.791565 -0.144187
C26   C     C_R   0.897440 0.594735 0.208639 -0.144031
C27   C     C_R   0.102632 0.594269 0.208434 -0.144186
C28   C     C_R   0.897440 0.405252 0.791358 -0.144031
C29   C     C_R   0.354727 0.499999 0.500000 -0.193739
C30   C     C_R   0.645304 0.499999 0.500000 -0.193763
H1    H     H_    0.121543 0.368877 0.905645 0.196007
H2    H     H_    0.878530 0.631780 0.094642 0.196033
H3    H     H_    0.121543 0.631116 0.094354 0.196007
H4    H     H_    0.878530 0.368207 0.905354 0.196033
C31   C     C_R   0.974458 0.451901 0.648973 0.040300
C32   C     C_R   0.025613 0.548009 0.350990 0.040353
C33   C     C_R   0.974458 0.548088 0.351024 0.040300
C34   C     C_R   0.025613 0.451981 0.649008 0.040354
C35   C     C_R   0.949223 0.499994 0.499998 0.075151
C36   C     C_R   0.050848 0.499995 0.499999 0.075211
C37   C     C_R   0.947329 0.405008 0.793284 -0.218045
C38   C     C_R   0.052743 0.594655 0.206573 -0.218096
C39   C     C_R   0.947329 0.594980 0.206713 -0.218045
C40   C     C_R   0.052743 0.405336 0.793425 -0.218096
H5    H     H_    0.963267 0.366910 0.911207 0.147572
H6    H     H_    0.036805 0.632586 0.088578 0.147556
H7    H     H_    0.963267 0.633077 0.088789 0.147572
H8    H     H_    0.036805 0.367406 0.911420 0.147556
C41   C     C_1   0.499998 0.065381 0.500108 -0.065277
C42   C     C_1   0.499998 0.934619 0.499892 -0.065278
N3    N     N_1   0.500000 0.500000 0.076820 -0.011071
N4    N     N_1   0.500000 0.500000 0.923180 -0.011071
Cl1   Cl    Cl    0.361066 0.234651 0.327329 -0.536242
Cl2   Cl    Cl    0.639018 0.761976 0.679746 -0.536453
Cl3   Cl    Cl    0.361065 0.765348 0.672671 -0.536242
Cl4   Cl    Cl    0.639017 0.238021 0.320254 -0.536455
C43   C     C_1   0.252807 0.263307 0.344531 0.436043
N5    N     N_1   0.231739 0.167197 0.282523 -0.212592
C44   C     C_1   0.747231 0.733478 0.662010 0.436217
N6    N     N_1   0.768289 0.828301 0.726713 -0.211519
C45   C     C_1   0.252807 0.736689 0.655470 0.436043
N7    N     N_1   0.231739 0.832799 0.717477 -0.212593
C46   C     C_1   0.747229 0.266513 0.337988 0.436218
N8    N     N_1   0.768287 0.171689 0.273286 -0.211518

loop_
_geom_bond_atom_site_label_1
_geom_bond_atom_site_label_2
_geom_bond_distance
_ccdc_geom_bond_type
C38   H6    1.075121 S    
C43   N5    1.157319 T    
O3    C2    1.271706 A    
C33   C39   1.417138 A    
C34   C40   1.417130 A    
C45   N7    1.157320 T    
C11   C17   1.406835 A    
O5    C3    1.279249 A    
C7    N1    1.366824 A    
C2    C42   1.404501 S    
C9    C45   1.446240 S    
C19   C21   1.408634 A    
C22   C26   1.394372 A    
C9    C13   1.403325 A    
C7    C23   1.403599 A    
O7    Cu1   1.950578 S    
C5    C21   1.403599 A    
C20   C24   1.408613 A    
C8    C24   1.403597 A    
C27   C38   1.387742 A    
C5    O9    1.349835 S    
C10   C18   1.406953 A    
N1    C17   1.437509 S    
Cu2   N3    1.975601 S    
C31   C37   1.417139 A    
O3    Cu1   1.932826 S    
C6    O10   1.349838 S    
C5    N1    1.366823 A    
C12   C18   1.406953 A    
C6    N2    1.366931 A    
Cu1   Cu2   2.629161 S    
O4    Cu2   1.932827 S    
O2    C2    1.272333 A    
C33   C35   1.422524 A    
C23   C27   1.394339 A    
C34   C36   1.422516 A    
C11   C15   1.403325 A    
N3    N4    1.194536 T    
C12   C16   1.403355 A    
C8    N2    1.366931 A    
C4    C30   1.465658 S    
O8    Cu2   1.950581 S    
C27   H3    1.083746 S    
C16   Cl2   1.771912 S    
C7    O11   1.349836 S    
C13   C29   1.409257 A    
C19   C23   1.408634 A    
C44   N6    1.157357 T    
C15   Cl1   1.771756 S    
C24   C28   1.394373 A    
C28   C37   1.387742 A    
O6    C4    1.279402 A    
C25   H1    1.083745 S    
C26   H2    1.083754 S    
C32   C38   1.417130 A    
C1    C41   1.404501 S    
C10   C14   1.403355 A    
O1    C1    1.272333 A    
C3    C29   1.465082 S    
O1    Cu1   1.933465 S    
C32   C33   1.422865 A    
C28   H4    1.083754 S    
O6    Cu2   1.950578 S    
C19   C36   1.423287 A    
C8    O12   1.349837 S    
C16   C30   1.409502 A    
C14   C30   1.409504 A    
C25   C40   1.387742 A    
O4    C1    1.271706 A    
C26   C39   1.387744 A    
C14   Cl4   1.771911 S    
C37   H5    1.075130 S    
C39   H7    1.075130 S    
C10   C46   1.446304 S    
C40   H8    1.075120 S    
C31   C34   1.422865 A    
C20   C22   1.408614 A    
C20   C35   1.423293 A    
C31   C35   1.422524 A    
C21   C25   1.394339 A    
O2    Cu2   1.933464 S    
O7    C4    1.279402 A    
N2    C18   1.437743 S    
O8    C3    1.279249 A    
C46   N8    1.157356 T    
O5    Cu1   1.950581 S    
C41   C42   1.187849 T    
C15   C29   1.409256 A    
C9    C17   1.406834 A    
C11   C43   1.446241 S    
C12   C44   1.446302 S    
C32   C36   1.422517 A    
C6    C22   1.403597 A    
C13   Cl3   1.771757 S    
Cu1   N4    1.975601 S    
