data_mof_unit_9383.cif
_audit_creation_date              2012-12-11T14:56:36-0500
_audit_creation_method            fapswitch 2.2
_symmetry_space_group_name_H-M    P1
_symmetry_Int_Tables_number       1
_space_group_crystal_system       triclinic
_cell_length_a                    10.606525
_cell_length_b                    10.665531
_cell_length_c                    17.072881
_cell_angle_alpha                 80.179879
_cell_angle_beta                  90.299778
_cell_angle_gamma                 119.700756
_cell_volume                      1645.93840578

loop_
_atom_site_label
_atom_site_type_symbol
_atom_type_description
_atom_site_fract_x
_atom_site_fract_y
_atom_site_fract_z
_atom_type_partial_charge
C1    C     C_R   0.222481 0.853757 0.128725 0.540062
C2    C     C_R   0.704687 0.248773 0.302271 -0.018826
C3    C     C_R   0.709801 0.244518 0.222058 -0.154992
C4    C     C_R   0.641407 0.302158 0.169122 0.047273
C5    C     C_1   0.635227 0.871767 0.211172 -0.042256
C6    C     C_1   0.661687 0.855581 0.278939 -0.010900
C7    C     C_1   0.180958 0.825295 0.211406 -0.022997
C8    C     C_1   0.151813 0.820163 0.279921 -0.024147
C9    C     C_1   0.644069 0.323810 0.778165 -0.040306
C10   C     C_1   0.651937 0.345322 0.707481 -0.043456
C11   C     C_R   0.632883 0.716088 0.804572 -0.113152
C12   C     C_R   0.634874 0.273129 0.089362 0.570467
C13   C     C_R   0.623098 0.699259 0.726352 -0.117287
C14   C     C_R   0.670400 0.822658 0.664813 0.036477
C15   C     C_R   0.734827 0.964040 0.681305 -0.158844
C16   C     C_R   0.741961 0.980843 0.760073 -0.144834
C17   C     C_R   0.686635 0.856017 0.821693 0.049751
C18   C     C_R   0.065793 0.886593 0.794829 0.209014
C19   C     C_R   0.031891 0.872455 0.716653 -0.146610
C20   C     C_R   0.049164 0.772977 0.681174 -0.065234
C21   C     C_R   0.081768 0.672555 0.727274 -0.078931
C22   C     C_R   0.114725 0.683194 0.805771 0.185252
C23   C     C_R   0.601459 0.882227 0.130933 0.545377
C24   C     C_R   0.122015 0.801383 0.837112 0.042038
C25   C     C_R   0.683412 0.813214 0.358512 0.562076
C26   C     C_R   0.681256 0.384342 0.399522 0.534984
C27   C     C_R   0.104113 0.810689 0.359268 0.558609
C28   C     C_R   0.677860 0.800966 0.585022 0.526235
C29   C     C_R   0.679034 0.382431 0.624376 0.535955
C30   C     C_R   0.028216 0.773791 0.596623 0.560930
C31   C     C_R   0.211867 0.856116 0.903222 0.567917
C32   C     C_R   0.637503 0.285104 0.861088 0.543283
C33   C     C_R   0.646575 0.867181 0.899263 0.576766
C34   C     C_R   0.559731 0.358698 0.196831 0.229385
C35   C     C_R   0.557525 0.367067 0.277419 -0.129622
C36   C     C_R   0.636326 0.320034 0.328976 -0.041554
Cr1   Cr    Cr6+3 0.402240 0.783890 0.019450 1.061838
Cr2   Cr    Cr6+3 0.382360 0.097900 0.991800 1.097574
Cr3   Cr    Cr6+3 0.715380 0.118170 0.988700 1.055820
Cr4   Cr    Cr6+3 0.936650 0.882420 0.465510 1.068109
Cr5   Cr    Cr6+3 0.605770 0.565620 0.493360 1.031190
Cr6   Cr    Cr6+3 0.921340 0.550490 0.496380 1.035750
H1    H     H_    0.996817 0.943067 0.682364 0.137231
H2    H     H_    0.085000 0.587452 0.702109 0.176610
H3    H     H_    0.503717 0.420796 0.298114 0.143280
H4    H     H_    0.763943 0.191145 0.201254 0.179459
H5    H     H_    0.590003 0.619283 0.851699 0.143505
H6    H     H_    0.580201 0.589705 0.713915 0.142380
H7    H     H_    0.777150 0.059881 0.633626 0.129850
H8    H     H_    0.782373 0.089961 0.772630 0.150528
O1    O     O_R   0.521780 0.757110 0.108900 -0.487918
O2    O     O_R   0.513330 0.228330 0.898660 -0.490684
O3    O     O_R   0.739230 0.266130 0.888050 -0.502403
O4    O     O_R   0.712580 0.991850 0.918770 -0.491584
O5    O     O_3   0.499990 0.999980 0.999980 -0.304809
O6    O     O_R   0.083770 0.911170 0.376030 -0.485386
O7    O     O_R   0.808770 0.880340 0.383890 -0.448079
O8    O     O_R   0.584340 0.689460 0.394160 -0.519670
O9    O     O_R   0.614320 0.443940 0.423590 -0.498306
O10   O     O_R   0.805020 0.410040 0.421340 -0.508670
O11   O     O_R   0.049240 0.685450 0.403290 -0.485845
O12   O     O_R   0.275160 0.783810 0.101120 -0.518124
O13   O     O_R   0.077520 0.903010 0.551800 -0.503367
O14   O     O_R   0.802980 0.872780 0.546830 -0.526877
O15   O     O_R   0.578090 0.681300 0.569920 -0.511678
O16   O     O_R   0.608530 0.436370 0.586530 -0.499593
O17   O     O_R   0.798770 0.401880 0.597100 -0.528865
O18   O     O_R   0.043450 0.677890 0.566230 -0.502859
O19   O     O_3   0.821250 0.666180 0.485090 -0.285648
O20   O     O_R   0.237900 0.972600 0.090980 -0.491204
O21   O     O_R   0.511190 0.220540 0.061620 -0.454050
O22   O     O_R   0.736920 0.257720 0.063840 -0.542855
O23   O     O_R   0.710450 0.984050 0.081720 -0.483043
O24   O     O_R   0.524090 0.765520 0.933110 -0.486306
O25   O     O_R   0.277300 0.791600 0.938160 -0.501071
O26   O     O_R   0.240210 0.981010 0.915190 -0.437899
O27   O     O_3   0.488140 0.409241 0.144126 -0.662604
H9    H     H_    0.435924 0.444832 0.173761 0.336617
O28   O     O_3   0.144330 0.580272 0.848277 -0.668905
H10   H     H_    0.109455 0.562695 0.904953 0.339840
C37   C     C_2   0.775307 0.182873 0.356454 0.251461
H11   H     H_    0.738779 0.145046 0.419664 0.111112
O29   O     O_2   0.877092 0.173289 0.331217 -0.494144
O30   O     O_3   0.051192 0.987530 0.829383 -0.662475
H12   H     H_    0.023252 0.046166 0.789342 0.324861

loop_
_geom_bond_atom_site_label_1
_geom_bond_atom_site_label_2
_ccdc_geom_bond_type
Cr1   O24   S    
Cr2   O20   S    
C11   H5    S    
C19   C20   A    
C1    O12   A    
C37   H11   S    
C7    C8    T    
Cr2   O26   S    
O27   H9    S    
Cr4   O13   S    
C25   O7    A    
C18   C24   A    
C21   C22   A    
Cr3   O4    S    
C16   H8    S    
C22   O28   S    
C34   C35   A    
C34   O27   S    
C5    C6    T    
Cr1   O1    S    
C6    C25   S    
Cr2   O2    S    
C15   C16   A    
C18   C19   A    
C32   O2    A    
C27   O11   A    
C9    C32   S    
C29   O17   A    
C31   O25   A    
Cr3   O5    S    
Cr2   O5    S    
C35   C36   A    
C16   C17   A    
Cr4   O6    S    
C18   O30   S    
Cr3   O22   S    
C4    C12   S    
C26   O9    A    
Cr3   O23   S    
C12   O22   A    
C13   C14   A    
Cr6   O18   S    
C17   C33   S    
C23   O23   A    
C37   O29   D    
C19   H1    S    
Cr1   O12   S    
C4    C34   A    
Cr4   O19   S    
O30   H12   S    
Cr5   O9    S    
Cr6   O10   S    
C27   O6    A    
Cr5   O15   S    
Cr6   O19   S    
C29   O16   A    
C21   H2    S    
C23   O1    A    
C5    C23   S    
Cr6   O11   S    
C28   O14   A    
C26   C36   S    
C12   O21   A    
Cr6   O17   S    
C22   C24   A    
C25   O8    A    
C3    C4    A    
C35   H3    S    
C32   O3    A    
Cr5   O19   S    
C9    C10   T    
C2    C36   A    
C33   O4    A    
Cr2   O21   S    
C11   C17   A    
Cr4   O7    S    
C1    C7    S    
Cr5   O8    S    
C13   H6    S    
Cr5   O16   S    
C3    H4    S    
C1    O20   A    
Cr4   O14   S    
C2    C3    A    
C24   C31   S    
C20   C30   S    
C11   C13   A    
C10   C29   S    
C31   O26   A    
Cr3   O3    S    
C28   O15   A    
C15   H7    S    
Cr1   O25   S    
O28   H10   S    
Cr1   O5    S    
C33   O24   A    
C20   C21   A    
C8    C27   S    
C14   C15   A    
C2    C37   S    
C14   C28   S    
C30   O13   A    
C26   O10   A    
C30   O18   A    
