data_mof_unit_37370.cif
_audit_creation_date              2012-12-10T18:54:24-0500
_audit_creation_method            fapswitch 2.2
_symmetry_space_group_name_H-M    P1
_symmetry_Int_Tables_number       1
_space_group_crystal_system       triclinic
_cell_length_a                    10.71488
_cell_length_b                    9.821286
_cell_length_c                    23.404523
_cell_angle_alpha                 89.816443
_cell_angle_beta                  89.593532
_cell_angle_gamma                 90.0234
_cell_volume                      2462.8744099

loop_
_atom_site_label
_atom_site_type_symbol
_atom_type_description
_atom_site_fract_x
_atom_site_fract_y
_atom_site_fract_z
_atom_type_partial_charge
C1    C     C_R   0.259815 0.499982 0.499990 0.875385
C2    C     C_R   0.740185 0.500019 0.500019 0.875444
C3    C     C_R   0.518218 0.383288 0.236691 -0.090824
C4    C     C_R   0.481714 0.624896 0.761751 -0.123687
C5    C     C_R   0.512404 0.379967 0.296042 -0.217602
C6    C     C_R   0.485300 0.624076 0.702526 -0.213801
C7    C     C_R   0.506803 0.502252 0.326903 -0.042150
C8    C     C_R   0.494433 0.500065 0.673100 -0.041045
C9    C     C_R   0.508424 0.627508 0.297769 -0.210116
C10   C     C_R   0.498383 0.376875 0.703694 -0.220414
C11   C     C_R   0.514192 0.630367 0.238603 -0.125662
C12   C     C_R   0.495030 0.378155 0.763055 -0.100465
C13   C     C_R   0.518596 0.508521 0.208203 0.335601
C14   C     C_R   0.487240 0.502204 0.791868 0.341917
C15   C     C_R   0.063694 0.378441 0.510948 -0.188421
C16   C     C_R   0.936305 0.621570 0.489089 -0.188274
C17   C     C_R   0.935866 0.378478 0.510998 -0.186707
C18   C     C_R   0.064132 0.621533 0.489039 -0.186790
C19   C     C_R   0.872590 0.500036 0.500050 -0.014575
C20   C     C_R   0.127409 0.499972 0.499979 -0.014559
C21   C     C_R   0.577845 0.071791 0.535145 -0.075831
C22   C     C_R   0.422157 0.928208 0.464854 -0.076165
C23   C     C_R   0.422154 0.072246 0.464856 -0.074757
C24   C     C_R   0.577843 0.927752 0.535145 -0.075893
C25   C     C_R   0.501181 0.500342 0.389203 0.877353
C26   C     C_R   0.498914 0.499850 0.610792 0.875819
C27   C     C_R   0.607117 0.506347 0.877768 0.482704
C28   C     C_R   0.401756 0.512923 0.121502 0.488029
C29   C     C_R   0.384417 0.513281 0.882902 0.505290
C30   C     C_R   0.624400 0.520636 0.117653 0.509063
C31   C     C_R   0.387792 0.523067 0.942232 -0.036120
C32   C     C_R   0.622503 0.524542 0.058059 -0.030499
C33   C     C_R   0.504144 0.524375 0.969909 -0.047713
C34   C     C_R   0.506780 0.528035 0.030011 -0.044757
C35   C     C_R   0.617094 0.520023 0.937662 -0.042813
C36   C     C_R   0.393804 0.533619 0.062087 -0.046871
C37   C     C_R   0.277294 0.537799 0.973798 -0.193179
C38   C     C_R   0.733783 0.527174 0.026513 -0.206653
C39   C     C_R   0.279150 0.555076 0.033015 0.118341
C40   C     C_R   0.733632 0.529548 0.966746 0.100890
H1    H     H_    0.188585 0.542233 0.952065 0.175925
H2    H     H_    0.822108 0.528601 0.048717 0.179977
H3    H     H_    0.520606 0.289102 0.212781 0.134261
H4    H     H_    0.476648 0.720744 0.784404 0.127606
H5    H     H_    0.511645 0.282256 0.317626 0.160365
H6    H     H_    0.481662 0.720368 0.679913 0.161368
H7    H     H_    0.504467 0.723241 0.320556 0.161410
H8    H     H_    0.505233 0.280036 0.681888 0.159021
H9    H     H_    0.513445 0.727025 0.216200 0.130467
H10   H     H_    0.500218 0.283418 0.786715 0.131517
H11   H     H_    0.112213 0.283997 0.519816 0.157896
H12   H     H_    0.887787 0.716015 0.480221 0.158228
H13   H     H_    0.886992 0.284057 0.519911 0.154055
H14   H     H_    0.113005 0.715956 0.480127 0.154260
H15   H     H_    0.640012 0.126336 0.563212 0.124772
H16   H     H_    0.359993 0.873662 0.436786 0.125545
H17   H     H_    0.359986 0.127154 0.436788 0.129807
H18   H     H_    0.640007 0.872843 0.563215 0.128874
N1    N     N_R   0.492746 0.505003 0.852507 -0.353036
N2    N     N_R   0.515212 0.512855 0.147558 -0.354139
N3    N     N_R   0.500000 0.857200 0.500000 -0.079899
N4    N     N_R   0.500000 0.142800 0.500000 -0.079870
O1    O     O_R   0.316770 0.614620 0.500000 -0.626233
O2    O     O_R   0.683230 0.385380 0.500000 -0.625886
O3    O     O_R   0.683230 0.614620 0.500000 -0.626918
O4    O     O_R   0.316770 0.385380 0.500000 -0.626850
O5    O     O_R   0.499970 0.614690 0.416160 -0.623534
O6    O     O_R   0.500030 0.385310 0.583840 -0.622641
O7    O     O_R   0.500030 0.614690 0.583840 -0.621662
O8    O     O_R   0.499970 0.385310 0.416160 -0.619975
O9    O     O_2   0.709265 0.492826 0.844397 -0.576237
O10   O     O_2   0.299104 0.485004 0.153021 -0.572119
O11   O     O_2   0.273979 0.512413 0.855466 -0.577555
O12   O     O_2   0.734090 0.522447 0.145682 -0.560319
Zn1   Zn    Zn3+2 0.500000 0.653120 0.500000 0.950607
Zn2   Zn    Zn3+2 0.500000 0.346880 0.500000 0.951628
C41   C     C_3   0.160066 0.609273 0.060935 -0.366304
C42   C     C_3   0.124341 0.749288 0.036239 -0.418631
C43   C     C_3   0.010296 0.808830 0.066584 -0.828338
H19   H     H_    0.928642 0.740576 0.061660 0.265510
H20   H     H_    0.029449 0.823129 0.112754 0.274060
H21   H     H_    0.987271 0.909324 0.047526 0.250026
H22   H     H_    0.203944 0.820901 0.041138 0.240153
H23   H     H_    0.103019 0.741156 0.990097 0.228838
H24   H     H_    0.083036 0.535404 0.054080 0.199587
H25   H     H_    0.168925 0.625205 0.107260 0.269835
C44   C     C_3   0.859223 0.548843 0.937025 -0.344100
C45   C     C_3   0.869145 0.691372 0.909841 -0.336347
C46   C     C_3   0.979217 0.701062 0.868316 -0.778200
H26   H     H_    0.068105 0.680516 0.890627 0.259417
H27   H     H_    0.967976 0.626865 0.833003 0.294472
H28   H     H_    0.983571 0.805168 0.849773 0.238224
H29   H     H_    0.782837 0.717992 0.886348 0.247058
H30   H     H_    0.880881 0.768287 0.944133 0.209629
H31   H     H_    0.937025 0.539062 0.967951 0.161284
H32   H     H_    0.876648 0.466048 0.905906 0.253620

loop_
_geom_bond_atom_site_label_1
_geom_bond_atom_site_label_2
_ccdc_geom_bond_type
C38   C40   A    
C44   C45   S    
C8    C10   A    
C24   N3    A    
C8    C26   S    
C25   O5    A    
C2    O3    A    
C13   N2    S    
C41   C42   S    
N3    Zn1   S    
C14   N1    S    
C3    H3    S    
C39   C41   S    
C40   C44   S    
C38   H2    S    
C30   O12   S    
C29   O11   S    
C23   H17   S    
C33   C35   A    
C42   H22   S    
C23   N4    A    
C29   N1    A    
C30   N2    A    
C31   C33   A    
C32   C38   A    
C46   H27   S    
C18   C20   A    
C3    C13   A    
C41   H24   S    
C4    C14   A    
N4    Zn2   S    
C28   O10   S    
C1    O1    A    
C2    O2    A    
C1    O4    A    
C5    C7    A    
C28   N2    A    
C15   C20   A    
C45   H30   S    
C4    C6    A    
C43   H20   S    
C42   C43   S    
C22   H16   S    
C4    H4    S    
C27   C35   A    
C5    H5    S    
C31   C37   A    
C44   H31   S    
C32   C34   A    
C11   H9    S    
C12   H10   S    
C29   C31   A    
O4    Zn2   S    
C44   H32   S    
C33   C34   A    
O2    Zn2   S    
C46   H28   S    
C9    C11   A    
C21   N4    A    
C10   C12   A    
C24   H18   S    
C12   C14   A    
C41   H25   S    
C9    H7    S    
C15   H11   S    
C10   H8    S    
O5    Zn1   S    
O8    Zn2   S    
C17   H13   S    
C27   O9    S    
C21   H15   S    
C7    C9    A    
C45   H29   S    
C1    C20   S    
C6    H6    S    
C2    C19   S    
C36   C39   A    
C16   H12   S    
C3    C5    A    
C7    C25   S    
C43   H21   S    
C6    C8    A    
C15   C17   A    
O6    Zn2   S    
O3    Zn1   S    
C26   O6    A    
C35   C40   A    
C37   C39   A    
C27   N1    A    
C22   N3    A    
C30   C32   A    
C11   C13   A    
O1    Zn1   S    
C16   C19   A    
C17   C19   A    
O7    Zn1   S    
C34   C36   A    
C37   H1    S    
C18   H14   S    
C43   H19   S    
C42   H23   S    
C45   C46   S    
C28   C36   A    
C16   C18   A    
C21   C24   A    
C26   O7    A    
C22   C23   A    
C25   O8    A    
C46   H26   S    
