data_mof_unit_17506.cif
_audit_creation_date              2012-12-10T16:49:28-0500
_audit_creation_method            fapswitch 2.2
_symmetry_space_group_name_H-M    P1
_symmetry_Int_Tables_number       1
_space_group_crystal_system       triclinic
_cell_length_a                    7.831289
_cell_length_b                    8.665281
_cell_length_c                    12.858733
_cell_angle_alpha                 87.91771
_cell_angle_beta                  89.597633
_cell_angle_gamma                 94.31473
_cell_volume                      869.50839582

loop_
_atom_site_label
_atom_site_type_symbol
_atom_type_description
_atom_site_fract_x
_atom_site_fract_y
_atom_site_fract_z
_atom_type_partial_charge
C1    C     C_R   0.454802 0.205941 0.498315 0.848005
C2    C     C_R   0.688073 0.421011 0.146637 -0.219270
C3    C     C_R   0.576040 0.449752 0.871875 -0.297537
C4    C     C_R   0.423954 0.550234 0.128125 -0.297538
C5    C     C_R   0.568834 0.463867 0.977840 0.196682
C6    C     C_R   0.431159 0.536116 0.022161 0.196677
C7    C     C_2   0.430987 0.042683 0.506100 0.121555
C8    C     C_2   0.569018 0.957317 0.493909 0.121536
C9    C     C_3   0.072324 0.654902 0.314477 0.244131
C10   C     C_3   0.976897 0.742030 0.231150 -0.949359
C11   C     C_3   0.927654 0.345076 0.685514 0.244134
C12   C     C_R   0.545199 0.794059 0.501686 0.847995
C13   C     C_3   0.023042 0.257898 0.768832 -0.949338
C14   C     C_3   0.243698 0.955390 0.635105 0.153515
C15   C     C_3   0.070122 0.869062 0.657391 -0.711848
C16   C     C_3   0.756353 0.044583 0.364921 0.153453
C17   C     C_3   0.929980 0.130820 0.342649 -0.711731
C18   C     C_R   0.467991 0.503174 0.699313 0.833929
C19   C     C_R   0.532008 0.496822 0.300687 0.833902
C20   C     C_R   0.549895 0.490527 0.190211 -0.043721
C21   C     C_R   0.450100 0.509462 0.809789 -0.043726
C22   C     C_R   0.302377 0.592281 0.959970 -0.229660
C23   C     C_R   0.697616 0.407702 0.040031 -0.229671
C24   C     C_R   0.311920 0.578973 0.853364 -0.219277
H1    H     H_    0.319978 0.607322 0.162051 0.137218
H2    H     H_    0.999164 0.868191 0.240570 0.245751
H3    H     H_    0.025503 0.716031 0.152903 0.210613
H4    H     H_    0.801822 0.279937 0.674826 0.174118
H5    H     H_    0.913896 0.463085 0.714736 0.132909
H6    H     H_    0.162155 0.292161 0.764943 0.277039
H7    H     H_    0.974332 0.283778 0.847078 0.210581
H8    H     H_    0.000847 0.131747 0.759337 0.245816
H9    H     H_    0.249767 0.068568 0.673153 0.136979
H10   H     H_    0.343665 0.884803 0.669749 0.101486
H11   H     H_    0.065938 0.752671 0.624019 0.263130
H12   H     H_    0.680016 0.392665 0.837949 0.137212
H13   H     H_    0.048285 0.854777 0.742708 0.155105
H14   H     H_    0.966711 0.934409 0.622577 0.292760
H15   H     H_    0.656441 0.115217 0.330264 0.101525
H16   H     H_    0.750236 0.931401 0.326876 0.136972
H17   H     H_    0.033340 0.065353 0.377410 0.292721
H18   H     H_    0.951791 0.145185 0.257332 0.155079
H19   H     H_    0.934280 0.247172 0.376086 0.263194
H20   H     H_    0.786571 0.375210 0.194875 0.163081
H21   H     H_    0.213421 0.624773 0.805127 0.163078
H22   H     H_    0.195961 0.647014 0.993475 0.137984
H23   H     H_    0.804032 0.352969 0.006526 0.137983
H24   H     H_    0.086097 0.536883 0.285275 0.132914
H25   H     H_    0.198152 0.720059 0.325146 0.174072
H26   H     H_    0.837775 0.707827 0.235101 0.277060
N1    N     N_2   0.054030 0.541640 0.471970 0.141627
N2    N     N_2   0.945970 0.458360 0.528030 0.141616
O1    O     O_R   0.609680 0.261530 0.506880 -0.605046
O2    O     O_3   0.019973 0.355806 0.591348 -0.506265
O3    O     O_3   0.265755 0.978319 0.526399 -0.578944
O4    O     O_3   0.734255 0.021680 0.473625 -0.578937
O5    O     O_R   0.390320 0.738470 0.493120 -0.605025
O6    O     O_R   0.323330 0.288220 0.488910 -0.554711
O7    O     O_R   0.676670 0.711780 0.511090 -0.554710
O8    O     O_R   0.619510 0.488830 0.661140 -0.682930
O9    O     O_R   0.380490 0.511170 0.338860 -0.682928
O10   O     O_R   0.333160 0.515520 0.643180 -0.599236
O11   O     O_R   0.666840 0.484480 0.356820 -0.599219
O12   O     O_3   0.980027 0.644196 0.408653 -0.506249
Zn1   Zn    Zn3+2 0.691200 0.482180 0.511990 1.010873
Zn2   Zn    Zn3+2 0.308800 0.517820 0.488010 1.010865

loop_
_geom_bond_atom_site_label_1
_geom_bond_atom_site_label_2
_ccdc_geom_bond_type
C10   H3    S    
C14   H10   S    
C17   H19   S    
C15   H14   S    
C4    C20   A    
C9    O12   S    
O1    Zn1   S    
C9    C10   S    
C13   H8    S    
C19   C20   S    
C5    C23   A    
C7    O3    S    
O5    Zn2   S    
C8    C12   S    
O11   Zn1   S    
C8    O4    S    
C14   H9    S    
C16   O4    S    
C14   O3    S    
C7    C8    D    
C1    O6    A    
O7    Zn1   S    
C11   C13   S    
C10   H2    S    
C11   O2    S    
C19   O11   A    
C11   H4    S    
C19   O9    A    
C24   H21   S    
C3    H12   S    
C18   O8    A    
C22   H22   S    
N2    O2    S    
O8    Zn1   S    
C4    H1    S    
C22   C24   A    
C5    C6    A    
C13   H7    S    
C17   H17   S    
C3    C21   A    
C23   H23   S    
C12   O5    A    
C16   H15   S    
C2    C20   A    
N1    N2    D    
C18   C21   S    
C13   H6    S    
C17   H18   S    
C9    H25   S    
C16   H16   S    
C11   H5    S    
C9    H24   S    
C4    C6    A    
C21   C24   A    
C15   H11   S    
C2    C23   A    
N2    Zn1   S    
O10   Zn2   S    
C14   C15   S    
C15   H13   S    
C1    O1    A    
C6    C22   A    
C1    C7    S    
C12   O7    A    
O9    Zn2   S    
O6    Zn2   S    
C18   O10   A    
N1    O12   S    
C2    H20   S    
C16   C17   S    
C3    C5    A    
N1    Zn2   S    
C10   H26   S    
