data_mof_unit_49680.cif
_audit_creation_date              2012-12-10T20:39:59-0500
_audit_creation_method            fapswitch 2.2
_symmetry_space_group_name_H-M    P1
_symmetry_Int_Tables_number       1
_space_group_crystal_system       triclinic
_cell_length_a                    23.409337
_cell_length_b                    10.672044
_cell_length_c                    9.904454
_cell_angle_alpha                 89.736199
_cell_angle_beta                  91.438851
_cell_angle_gamma                 90.394204
_cell_volume                      2473.52187971

loop_
_atom_site_label
_atom_site_type_symbol
_atom_type_description
_atom_site_fract_x
_atom_site_fract_y
_atom_site_fract_z
_atom_type_partial_charge
C1    C     C_R   0.502222 0.260485 0.500744 0.965898
C2    C     C_R   0.972860 0.365018 0.684903 -0.128339
C3    C     C_R   0.032199 0.366011 0.683220 -0.116737
C4    C     C_R   0.060917 0.441924 0.590531 0.016787
C5    C     C_R   0.029642 0.517710 0.498452 -0.086946
C6    C     C_R   0.058313 0.594786 0.405440 -0.291797
C7    C     C_R   0.026434 0.669278 0.313632 0.602896
C8    C     C_R   0.966923 0.667082 0.314168 0.596552
C9    C     C_R   0.120431 0.444039 0.587438 0.580000
C10   C     C_R   0.118217 0.594548 0.407651 0.682916
C11   C     C_R   0.240363 0.586857 0.595603 -0.001777
C12   C     C_R   0.389399 0.500761 0.498983 1.017461
C13   C     C_R   0.299854 0.578137 0.596744 0.547018
C14   C     C_R   0.327171 0.507191 0.498210 -0.443584
C15   C     C_R   0.294615 0.441521 0.401137 0.469237
C16   C     C_R   0.235471 0.448006 0.400692 0.619157
C17   C     C_R   0.208286 0.520228 0.497053 -0.022535
C18   C     C_R   0.761123 0.416743 0.426852 0.042387
C19   C     C_R   0.701467 0.414509 0.427495 0.563692
C20   C     C_R   0.672201 0.502410 0.503514 -0.375070
C21   C     C_R   0.701862 0.594284 0.577700 0.501763
C22   C     C_R   0.761420 0.597433 0.579362 0.057084
C23   C     C_R   0.502758 0.739659 0.499556 0.920177
C24   C     C_R   0.790948 0.508233 0.503486 0.137221
C25   C     C_R   0.490295 0.062802 0.614863 -0.126787
C26   C     C_R   0.510661 0.129395 0.505315 -0.322547
C27   C     C_R   0.541344 0.068374 0.405240 0.700040
C28   C     C_R   0.542211 0.937348 0.403197 0.043492
C29   C     C_R   0.509967 0.871867 0.500566 -0.204778
C30   C     C_R   0.487886 0.935600 0.609179 -0.041035
C31   C     C_3   0.430061 0.930256 0.670963 0.651097
C32   C     C_3   0.434274 0.072092 0.683395 0.552757
C33   C     C_R   0.464821 0.420587 0.068909 0.072884
C34   C     C_R   0.610350 0.500733 0.501294 1.014270
C35   C     C_R   0.539101 0.567063 0.075667 -0.068210
C36   C     C_R   0.539883 0.566955 0.932215 0.158464
C37   C     C_R   0.464041 0.422594 0.926692 0.103284
C38   C     C_3   0.400431 0.423554 0.919063 0.394088
C39   C     C_3   0.401330 0.414711 0.072028 0.477323
C40   C     C_R   0.878185 0.586111 0.410196 0.608044
C41   C     C_R   0.881652 0.439139 0.593309 0.529105
C42   C     C_R   0.941224 0.439439 0.593473 0.029127
C43   C     C_R   0.969567 0.516041 0.499522 -0.082802
C44   C     C_R   0.937975 0.590698 0.406859 -0.279318
H1    H     H_    0.951903 0.305547 0.757750 0.200845
H2    H     H_    0.401539 0.126765 0.625407 0.059132
H3    H     H_    0.570167 0.621242 0.133741 0.149984
H4    H     H_    0.055449 0.307313 0.754864 0.206742
H5    H     H_    0.382539 0.512674 0.878872 0.119189
H6    H     H_    0.381514 0.495542 0.122948 0.068299
N1    N     N_R   0.851809 0.511229 0.502297 -0.338675
N2    N     N_R   0.147468 0.520066 0.497664 -0.324232
N3    N     N_R   0.499610 0.499140 0.142800 -0.153428
N4    N     N_R   0.499610 0.499180 0.857150 -0.135319
O1    O     O_R   0.500010 0.316790 0.614690 -0.594090
O2    O     O_2   0.853512 0.367507 0.682933 -0.533547
O3    O     O_2   0.151295 0.371068 0.673326 -0.501149
O4    O     O_2   0.147308 0.667819 0.321399 -0.433086
O5    O     O_R   0.500000 0.316760 0.385350 -0.529592
O6    O     O_R   0.416160 0.499980 0.614700 -0.566028
O7    O     O_R   0.416150 0.499940 0.385360 -0.605302
O8    O     O_R   0.500000 0.683240 0.614650 -0.596171
O9    O     O_R   0.499990 0.683210 0.385310 -0.643832
O10   O     O_R   0.583850 0.500060 0.614640 -0.622191
O11   O     O_R   0.583840 0.500020 0.385300 -0.588007
O12   O     O_2   0.846333 0.655413 0.322840 -0.456546
Zn1   Zn    Zn3+2 0.500000 0.500020 0.653130 1.050048
Zn2   Zn    Zn3+2 0.500000 0.499980 0.346870 1.045318
F1    F     F_    0.671676 0.326296 0.355772 -0.600718
F2    F     F_    0.672790 0.684124 0.643625 -0.673457
C45   C     C_3   0.792016 0.697134 0.661530 -0.628115
H7    H     H_    0.839174 0.690338 0.658135 0.211933
H8    H     H_    0.779538 0.791165 0.622990 0.258321
H9    H     H_    0.779793 0.688740 0.768820 0.255706
F3    F     F_    0.567863 0.135649 0.307812 -0.590004
C46   C     C_3   0.575335 0.870978 0.296289 -0.698878
H10   H     H_    0.601434 0.795001 0.343003 0.221271
H11   H     H_    0.545328 0.831409 0.218937 0.243243
H12   H     H_    0.605141 0.935165 0.244091 0.281766
C47   C     C_3   0.381737 0.885991 0.574921 -0.857385
H13   H     H_    0.387448 0.785835 0.550136 0.265052
H14   H     H_    0.339960 0.897689 0.623804 0.290174
H15   H     H_    0.381457 0.940572 0.479037 0.202635
F4    F     F_    0.431047 0.868161 0.794144 -0.544071
F5    F     F_    0.442118 0.110513 0.815892 -0.506757
C48   C     C_3   0.587069 0.639123 0.867313 -0.610095
H16   H     H_    0.570727 0.700400 0.785575 0.283019
H17   H     H_    0.609751 0.701380 0.940885 0.196494
H18   H     H_    0.619188 0.572582 0.830713 0.266558
F6    F     F_    0.378171 0.317615 0.856722 -0.521310
F7    F     F_    0.383361 0.298366 0.117157 -0.471848
F8    F     F_    0.052410 0.744509 0.222418 -0.546741
F9    F     F_    0.938057 0.740331 0.223483 -0.556372
C49   C     C_3   0.212643 0.667311 0.699858 -0.566958
H19   H     H_    0.229739 0.764424 0.693365 0.248008
H20   H     H_    0.165578 0.672220 0.685981 0.204923
H21   H     H_    0.222410 0.629211 0.802299 0.269601
F10   F     F_    0.330886 0.640041 0.693426 -0.639633
F11   F     F_    0.319825 0.365656 0.311635 -0.547440
F12   F     F_    0.204149 0.381651 0.308226 -0.562460
C50   C     C_3   0.793221 0.322886 0.344854 -0.678874
H22   H     H_    0.819810 0.372727 0.270168 0.234659
H23   H     H_    0.821362 0.265954 0.412525 0.240410
H24   H     H_    0.764222 0.257808 0.288655 0.287018

loop_
_geom_bond_atom_site_label_1
_geom_bond_atom_site_label_2
_ccdc_geom_bond_type
C50   H22   S    
C35   N3    A    
C41   C42   A    
C19   C20   A    
C46   H12   S    
C10   N2    A    
C7    C8    A    
C38   H5    S    
C26   C27   A    
C33   C39   S    
O8    Zn1   S    
C18   C24   A    
C23   C29   S    
C28   C29   A    
C10   O4    S    
C37   C38   S    
C46   H11   S    
C1    O5    A    
C30   C31   S    
C47   H13   S    
C48   H17   S    
C32   F5    S    
C15   C16   A    
C3    H4    S    
C34   O11   A    
C18   C19   A    
C13   F10   S    
N3    Zn2   S    
C23   O8    A    
C35   C36   A    
O6    Zn1   S    
C16   C17   A    
C20   C34   S    
C24   N1    S    
C23   O9    A    
C5    C43   A    
C35   H3    S    
C50   H23   S    
C40   O12   S    
C21   C22   A    
C9    N2    A    
C47   H15   S    
C27   F3    S    
C17   N2    S    
C39   F7    S    
C2    H1    S    
C33   N3    A    
C38   C39   S    
O10   Zn1   S    
C31   C47   S    
C46   H10   S    
C47   H14   S    
C45   H8    S    
C48   H16   S    
C16   F12   S    
N4    Zn1   S    
C49   H21   S    
C36   C48   S    
C25   C26   A    
C33   C37   A    
C31   F4    S    
C18   C50   S    
C43   C44   A    
C41   O2    S    
C29   C30   A    
O5    Zn2   S    
C31   C32   S    
O11   Zn2   S    
C34   O10   A    
C49   H20   S    
C37   N4    A    
C11   C49   S    
C12   C14   S    
C50   H24   S    
C1    C26   S    
C22   C24   A    
C19   F1    S    
C42   C43   A    
C3    C4    A    
C28   C46   S    
C22   C45   S    
C25   C30   A    
O9    Zn2   S    
C11   C17   A    
C32   H2    S    
C8    F9    S    
C8    C44   A    
C15   F11   S    
C4    C5    A    
C48   H18   S    
C6    C10   A    
C45   H9    S    
O1    Zn1   S    
C6    C7    A    
C40   N1    A    
C38   F6    S    
C21   F2    S    
C2    C3    A    
C1    O1    A    
C45   H7    S    
C12   O7    A    
C11   C13   A    
O7    Zn2   S    
C5    C6    A    
C2    C42   A    
C7    F8    S    
C9    O3    S    
C49   H19   S    
C36   N4    A    
C12   O6    A    
C40   C44   A    
C39   H6    S    
C20   C21   A    
C27   C28   A    
C14   C15   A    
C4    C9    A    
C13   C14   A    
C41   N1    A    
C25   C32   S    
