data_mof_unit_51791.cif
_audit_creation_date              2012-10-26T19:04:40-0400
_audit_creation_method            fapswitch 2.2
_symmetry_space_group_name_H-M    P1
_symmetry_Int_Tables_number       1
_space_group_crystal_system       triclinic
_cell_length_a                    9.665031
_cell_length_b                    10.868807
_cell_length_c                    13.499685
_cell_angle_alpha                 95.918507
_cell_angle_beta                  71.399449
_cell_angle_gamma                 88.019763
_cell_volume                      1333.44192199

loop_
_atom_site_label
_atom_site_type_symbol
_atom_type_description
_atom_site_fract_x
_atom_site_fract_y
_atom_site_fract_z
_atom_type_partial_charge
C1    C     C_R   0.495532 0.739145 0.503093 0.536324
C2    C     C_R   0.377174 0.482405 0.814361 -0.005657
C3    C     C_R   0.215391 0.907713 0.542853 -0.116508
C4    C     C_R   0.422032 0.492341 0.699508 0.516329
C5    C     C_R   0.085185 0.980691 0.592373 -0.141109
C6    C     C_R   0.087482 0.102241 0.634074 -0.125675
C7    C     C_R   0.220589 0.154022 0.619353 -0.087841
C8    C     C_R   0.353773 0.082522 0.566415 0.017006
C9    C     C_R   0.351841 0.953153 0.539965 0.021906
C10   C     C_R   0.485014 0.876995 0.515492 -0.031043
C11   C     C_R   0.611169 0.933783 0.520493 -0.146333
C12   C     C_R   0.438063 0.485325 0.978450 0.033281
C13   C     C_R   0.614826 0.062086 0.536287 -0.015100
C14   C     C_R   0.488790 0.137207 0.542915 -0.026518
C15   C     C_R   0.945307 0.349363 0.329376 0.288310
C16   C     C_R   0.495838 0.266204 0.515531 0.538840
C17   C     C_R   0.071210 0.309868 0.241219 -0.168219
C18   C     C_R   0.206953 0.302264 0.252083 -0.223265
C19   C     C_R   0.223633 0.347745 0.345719 -0.097867
C20   C     C_R   0.113173 0.424528 0.423038 0.106077
C21   C     C_R   0.964982 0.425052 0.419468 0.144368
C22   C     C_R   0.888808 0.572750 0.571888 0.002260
C23   C     C_R   0.479931 0.457162 0.867035 0.030909
C24   C     C_R   0.034816 0.573250 0.573691 0.104935
C25   C     C_R   0.578975 0.503247 0.300205 0.555267
C26   C     C_R   0.804821 0.441123 0.013723 -0.150141
C27   C     C_R   0.624551 0.499072 0.184878 -0.008874
C28   C     C_R   0.230657 0.511266 0.874381 -0.148574
C29   C     C_R   0.186809 0.529553 0.983290 -0.151510
C30   C     C_R   0.288820 0.519884 0.035126 -0.121644
C31   C     C_3   0.749277 0.110595 0.557500 -0.255267
C32   C     C_3   0.886048 0.082554 0.461083 -0.409377
C33   C     C_3   0.809727 0.219733 0.244863 -0.022223
C34   C     C_R   0.547378 0.478467 0.028368 0.027526
C35   C     C_3   0.660458 0.168411 0.263179 -0.356346
C36   C     C_3   0.056355 0.662848 0.659776 -0.259995
C37   C     C_3   0.962743 0.636456 0.769279 -0.455170
C38   C     C_R   0.693994 0.439259 0.967280 0.052835
C39   C     C_R   0.727764 0.395634 0.861141 -0.153886
C40   C     C_R   0.621910 0.402078 0.812321 -0.128031
C41   C     C_R   0.515745 0.508009 0.137373 -0.141679
C42   C     C_R   0.770710 0.474856 0.121718 -0.150995
Cu1   Cu    Cu3+1 0.359340 0.500010 0.500010 0.893984
Cu2   Cu    Cu3+1 0.640660 0.499990 0.499990 0.965441
H1    H     H_    0.857234 0.473661 0.156542 0.127325
H2    H     H_    0.836675 0.355821 0.815468 0.093537
H3    H     H_    0.917292 0.413470 0.966686 0.102040
H4    H     H_    0.406116 0.535331 0.188033 0.130885
H5    H     H_    0.150232 0.522655 0.836693 0.127064
H6    H     H_    0.245789 0.538736 0.119534 0.108675
H7    H     H_    0.073408 0.555967 0.028013 0.115197
H8    H     H_    0.652884 0.360261 0.731822 0.136795
H9    H     H_    0.709199 0.877712 0.514049 0.142944
H10   H     H_    0.925815 0.983545 0.449823 0.125508
H11   H     H_    0.860814 0.100205 0.390232 0.190770
H12   H     H_    0.204108 0.817956 0.506416 0.150951
H13   H     H_    0.974132 0.141694 0.469062 0.155272
H14   H     H_    0.765673 0.064801 0.623120 0.116147
H15   H     H_    0.736997 0.210133 0.586653 0.170530
H16   H     H_    0.890833 0.139334 0.230351 0.103286
H17   H     H_    0.834574 0.265013 0.172273 0.125923
H18   H     H_    0.573986 0.244967 0.284107 0.158130
H19   H     H_    0.658414 0.112269 0.190180 0.091317
H20   H     H_    0.638277 0.107540 0.326568 0.148116
H21   H     H_    0.968981 0.535696 0.775089 0.151443
H22   H     H_    0.000292 0.688342 0.830097 0.139985
H23   H     H_    0.981570 0.942179 0.599090 0.100222
H24   H     H_    0.846187 0.667759 0.785804 0.144497
H25   H     H_    0.171168 0.667584 0.655499 0.215375
H26   H     H_    0.018630 0.756449 0.650675 0.103732
H27   H     H_    0.986106 0.157628 0.674797 0.100880
H28   H     H_    0.218666 0.249114 0.653032 0.140360
H29   H     H_    0.802806 0.633528 0.628996 0.128152
H30   H     H_    0.066115 0.270810 0.165714 0.102465
H31   H     H_    0.299322 0.256220 0.188612 0.129798
H32   H     H_    0.327983 0.324811 0.351515 0.193429
N1    N     N_R   0.852480 0.498790 0.499000 -0.254616
N2    N     N_R   0.148360 0.498710 0.498970 -0.241234
O1    O     O_R   0.381190 0.680360 0.500010 -0.524522
O2    O     O_R   0.618760 0.680340 0.500000 -0.509088
O3    O     O_R   0.323240 0.499990 0.650990 -0.523137
O4    O     O_R   0.560820 0.499960 0.650980 -0.519122
O5    O     O_R   0.381240 0.319660 0.500000 -0.533892
O6    O     O_R   0.618810 0.319640 0.499990 -0.439077
O7    O     O_R   0.439180 0.500040 0.349020 -0.529478
O8    O     O_R   0.676760 0.500010 0.349010 -0.435312
O9    O     O_3   0.809814 0.305570 0.332482 -0.498022

loop_
_geom_bond_atom_site_label_1
_geom_bond_atom_site_label_2
_ccdc_geom_bond_type
C18   H31   S    
Cu1   O5    S    
C19   C20   A    
C5    H23   S    
C7    C8    A    
Cu1   N2    S    
C12   C23   A    
C24   C36   S    
C31   H14   S    
C28   C29   A    
Cu2   O4    S    
C5    C6    A    
Cu1   O1    S    
C23   C40   A    
C37   H24   S    
C16   O6    A    
C18   C19   A    
C3    H12   S    
C31   H15   S    
C4    O3    A    
C8    C9    A    
C37   H21   S    
C36   C37   S    
C35   H20   S    
C9    C10   A    
C32   H11   S    
C11   H9    S    
C30   H6    S    
C13   C14   A    
C19   H32   S    
C34   C41   A    
C32   H13   S    
Cu2   O8    S    
C32   H10   S    
C36   H26   S    
C6    H27   S    
Cu1   O7    S    
Cu2   O2    S    
C39   C40   A    
C26   C38   A    
C3    C5    A    
C40   H8    S    
C16   O5    A    
C42   H1    S    
C2    C4    S    
Cu1   Cu2   S    
C29   C30   A    
C3    C9    A    
C28   H5    S    
C27   C41   A    
C31   C32   S    
C37   H22   S    
C25   O7    A    
C17   C18   A    
C26   H3    S    
C39   H2    S    
C24   N2    A    
C33   H16   S    
C17   H30   S    
Cu1   O3    S    
C22   C24   A    
C12   C34   A    
C7    H28   S    
C36   H25   S    
C26   C42   A    
C15   O9    S    
C29   H7    S    
C15   C17   A    
Cu2   N1    S    
C8    C14   A    
C12   C30   A    
C34   C38   A    
C13   C31   S    
C1    C10   S    
C22   N1    A    
Cu2   O6    S    
C2    C28   A    
C6    C7    A    
C25   C27   S    
C20   N2    A    
C33   O9    S    
C11   C13   A    
C27   C42   A    
C38   C39   A    
C1    O1    A    
C25   O8    A    
C33   C35   S    
C41   H4    S    
C35   H18   S    
C14   C16   S    
C10   C11   A    
C15   C21   A    
C4    O4    A    
C20   C21   A    
C33   H17   S    
C21   N1    A    
C2    C23   A    
C1    O2    A    
C35   H19   S    
C22   H29   S    
