data_mof_unit_65668.cif
_audit_creation_date              2012-12-10T16:43:18-0500
_audit_creation_method            fapswitch 2.2
_symmetry_space_group_name_H-M    P1
_symmetry_Int_Tables_number       1
_space_group_crystal_system       triclinic
_cell_length_a                    18.413511
_cell_length_b                    18.49017
_cell_length_c                    18.495199
_cell_angle_alpha                 119.743707
_cell_angle_beta                  90.380454
_cell_angle_gamma                 119.897465
_cell_volume                      4461.94939276

loop_
_atom_site_label
_atom_site_type_symbol
_atom_type_description
_atom_site_fract_x
_atom_site_fract_y
_atom_site_fract_z
_atom_type_partial_charge
C1    C     C_R   0.361203 0.998271 0.138427 0.891025
C2    C     C_2   0.815829 0.010856 0.702890 -0.215503
C3    C     C_2   0.733581 0.956201 0.789497 -0.197448
C4    C     C_R   0.636728 0.998257 0.859641 0.719070
C5    C     C_2   0.680887 0.987741 0.793213 0.329562
C6    C     C_2   0.283064 0.445475 0.726690 0.515761
C7    C     C_2   0.194615 0.387657 0.685760 -0.275096
C8    C     C_2   0.334218 0.557138 0.773690 -0.384665
C9    C     C_2   0.305897 0.613594 0.824430 -0.171424
C10   C     C_2   0.271006 0.024967 0.328004 -0.371283
C11   C     C_2   0.195749 0.017714 0.309714 -0.167306
C12   C     C_R   0.126486 0.052248 0.817607 0.468010
C13   C     C_2   0.335092 0.040881 0.280472 0.512979
C14   C     C_2   0.304069 0.989261 0.192013 -0.253484
C15   C     C_2   0.782470 0.945552 0.218755 -0.117904
C16   C     C_R   0.638741 0.276984 0.138528 0.852864
C17   C     C_2   0.816549 0.011776 0.306653 -0.199064
C18   C     C_2   0.733418 0.955070 0.166002 -0.206822
C19   C     C_2   0.680591 0.985698 0.194282 0.333076
C20   C     C_2   0.778776 0.556278 0.219281 -0.150059
C21   C     C_2   0.803548 0.612288 0.307861 -0.283732
C22   C     C_2   0.720321 0.443922 0.163033 -0.151641
C23   C     C_R   0.185183 0.025074 0.784091 0.018779
C24   C     C_2   0.696373 0.387688 0.195426 -0.283349
C25   C     C_R   0.138894 0.277152 0.637654 0.895943
C26   C     C_R   0.861191 0.723007 0.361656 0.847520
C27   C     C_R   0.863003 0.001556 0.639997 0.841306
C28   C     C_R   0.361092 0.722798 0.863465 0.817916
C29   C     C_R   0.138798 0.001492 0.361902 0.803439
C30   C     C_R   0.862185 0.001827 0.360555 0.833973
C31   C     C_R   0.140252 0.001284 0.641076 0.894322
C32   C     C_R   0.637496 0.997851 0.139563 0.723001
C33   C     C_R   0.359608 0.001525 0.861795 0.805899
C34   C     C_R   0.235703 0.018399 0.835978 0.004870
C35   C     C_R   0.219807 0.028046 0.913873 -0.213782
C36   C     C_R   0.154720 0.042682 0.940540 -0.029648
C37   C     C_R   0.110264 0.057356 0.893651 -0.292747
C38   C     C_2   0.227933 0.573667 0.853109 0.902011
C39   C     C_2   0.178123 0.048509 0.254848 0.923804
C40   C     C_2   0.134044 0.044185 0.018456 0.936932
C41   C     C_R   0.302878 0.005258 0.810058 -0.130115
C42   C     C_R   0.317889 0.996137 0.733271 -0.176271
C43   C     C_R   0.263978 0.992347 0.677117 0.416298
C44   C     C_R   0.197061 0.006743 0.701828 -0.192397
C45   C     C_2   0.782260 0.946143 0.726558 -0.132593
H1    H     H_    0.369421 0.986065 0.713999 0.179050
H2    H     H_    0.801160 0.593687 0.185683 0.183867
H3    H     H_    0.781003 0.578292 0.343819 0.156040
H4    H     H_    0.697251 0.406721 0.092113 0.184072
H5    H     H_    0.719602 0.421513 0.265297 0.157124
H6    H     H_    0.063034 0.073938 0.916735 0.183837
H7    H     H_    0.793524 0.887038 0.702447 0.173294
H8    H     H_    0.811349 0.075271 0.732328 0.210576
H9    H     H_    0.740466 0.935034 0.833100 0.137918
H10   H     H_    0.618460 0.018276 0.739587 0.350815
H11   H     H_    0.390638 0.455863 0.756068 0.339973
H12   H     H_    0.161353 0.422691 0.686660 0.108668
H13   H     H_    0.124063 0.576746 0.883676 0.348773
H14   H     H_    0.228021 0.148697 0.221882 0.362164
H15   H     H_    0.434391 0.133234 0.389661 0.345365
H16   H     H_    0.616879 0.012892 0.276910 0.356556
H17   H     H_    0.070368 0.072446 0.106179 0.364118
H18   H     H_    0.050403 0.095352 0.810379 0.326174
H19   H     H_    0.224579 0.944453 0.554099 0.321194
H20   H     H_    0.397445 0.593735 0.764052 0.185547
H21   H     H_    0.286017 0.016869 0.379455 0.181277
H22   H     H_    0.232819 0.935184 0.156496 0.127830
H23   H     H_    0.792694 0.885542 0.184523 0.180313
H24   H     H_    0.258093 0.025172 0.955511 0.192571
H25   H     H_    0.812927 0.076900 0.340494 0.201433
H26   H     H_    0.740994 0.935843 0.101988 0.144549
O1    O     O_3   0.500000 0.000000 0.000000 -0.504351
O2    O     O_R   0.054120 0.939900 0.325040 -0.610753
O3    O     O_R   0.884120 0.060070 0.444330 -0.636066
O4    O     O_R   0.325020 0.939940 0.054210 -0.639306
O5    O     O_R   0.175860 0.060090 0.615830 -0.619310
O6    O     O_R   0.884120 0.939900 0.324160 -0.636560
O7    O     O_R   0.055710 0.939940 0.615850 -0.608286
O8    O     O_R   0.885720 0.939940 0.614980 -0.628502
O9    O     O_R   0.174930 0.060060 0.445830 -0.638052
O10   O     O_R   0.054120 0.229160 0.614300 -0.651380
O11   O     O_R   0.885050 0.770830 0.325070 -0.640750
O12   O     O_R   0.614240 0.229150 0.054160 -0.639914
O13   O     O_R   0.614240 0.060060 0.885070 -0.639570
O14   O     O_R   0.614900 0.229170 0.174980 -0.632248
O15   O     O_R   0.445840 0.770840 0.885740 -0.641051
O16   O     O_R   0.615830 0.060100 0.175880 -0.635559
O17   O     O_R   0.324090 0.939910 0.884220 -0.635348
O18   O     O_R   0.615830 0.939930 0.055710 -0.652702
O19   O     O_R   0.444240 0.060060 0.884190 -0.637141
O20   O     O_3   0.663588 0.003223 0.731004 -0.760641
O21   O     O_3   0.326589 0.400856 0.721376 -0.708439
O22   O     O_2   0.212370 0.512597 0.870414 -0.609698
O23   O     O_R   0.325020 0.770840 0.885120 -0.594124
O24   O     O_R   0.174121 0.608592 0.863066 -0.765612
O25   O     O_2   0.101635 0.006776 0.212461 -0.601926
O26   O     O_R   0.248695 0.129615 0.256231 -0.779172
O27   O     O_3   0.425390 0.102228 0.325750 -0.713922
O28   O     O_3   0.661988 0.997770 0.270453 -0.758524
O29   O     O_2   0.163205 0.016687 0.051482 -0.620684
O30   O     O_R   0.079899 0.075346 0.053494 -0.808007
O31   O     O_3   0.088920 0.078697 0.778798 -0.769627
O32   O     O_3   0.278674 0.972825 0.598227 -0.743742
O33   O     O_R   0.445840 0.060100 0.175010 -0.574842
O34   O     O_R   0.614900 0.939900 0.885710 -0.650227
O35   O     O_3   0.999960 0.000000 0.500040 -0.514326
O36   O     O_R   0.174930 0.229160 0.614920 -0.568602
O37   O     O_R   0.885720 0.770850 0.445880 -0.646526
O38   O     O_R   0.885050 0.060100 0.614330 -0.626936
Zn1   Zn    Zn3+2 0.542440 0.085830 0.956610 0.980956
Zn2   Zn    Zn3+2 0.543390 0.085850 0.129220 1.020580
Zn3   Zn    Zn3+2 0.543390 0.914160 0.957530 0.975121
Zn4   Zn    Zn3+2 0.370780 0.914160 0.956640 1.019972
Zn5   Zn    Zn3+2 0.957510 0.914170 0.543430 1.003623
Zn6   Zn    Zn3+2 0.956570 0.085840 0.542520 1.011411
Zn7   Zn    Zn3+2 0.956570 0.914150 0.370820 0.993276
Zn8   Zn    Zn3+2 0.129180 0.085840 0.543400 1.042364

loop_
_geom_bond_atom_site_label_1
_geom_bond_atom_site_label_2
_ccdc_geom_bond_type
C15   C18   S    
C21   C26   S    
O1    Zn3   S    
H19   O32   S    
C41   C42   A    
C35   C36   A    
C43   C44   A    
O7    Zn5   S    
O18   Zn3   S    
O2    Zn7   S    
O35   Zn5   S    
C36   C37   A    
C33   O17   A    
C18   C19   D    
H15   O27   S    
C30   O3    A    
C3    H9    S    
C6    O21   S    
C39   O26   S    
C29   O2    A    
C15   H23   S    
C12   C37   A    
C28   O23   A    
C34   C35   A    
C42   H1    S    
O37   Zn5   S    
C13   O27   S    
H10   O20   S    
C40   O30   S    
C30   O6    A    
C8    C9    D    
C38   O24   S    
C14   H22   S    
C10   C13   S    
C2    C27   S    
O4    Zn4   S    
O6    Zn7   S    
H17   O30   S    
O1    Zn2   S    
C8    H20   S    
C26   O11   A    
C13   C14   D    
C25   O10   A    
C17   C30   S    
H16   O28   S    
C34   C41   A    
H18   O31   S    
C19   C32   S    
C35   H24   S    
O23   Zn4   S    
C10   H21   S    
C2    C45   D    
C24   H5    S    
O1    Zn1   S    
C31   C44   S    
C1    O4    A    
C36   C40   S    
C26   O37   A    
C12   C23   A    
C19   O28   S    
C6    C8    S    
C45   H7    S    
C3    C5    D    
C32   O16   A    
O1    Zn4   S    
C3    C45   S    
C16   O12   A    
O13   Zn1   S    
C23   C44   A    
O35   Zn7   S    
O15   Zn3   S    
H13   O24   S    
C12   O31   S    
C32   O18   A    
C4    O13   A    
C23   C34   A    
O10   Zn6   S    
O12   Zn1   S    
C11   C39   S    
C1    O33   A    
C27   O38   A    
C5    O20   S    
C22   H4    S    
O34   Zn3   S    
C20   C22   S    
O35   Zn8   S    
C28   O15   A    
C16   O14   A    
H14   O26   S    
C22   C24   D    
C42   C43   A    
O19   Zn1   S    
C25   O36   A    
C31   O7    A    
C18   H26   S    
C15   C17   D    
O9    Zn8   S    
C4    C5    S    
O14   Zn2   S    
C2    H8    S    
C40   O29   D    
O33   Zn2   S    
C6    C7    D    
C4    O34   A    
C27   O8    A    
O5    Zn8   S    
C7    C25   S    
O35   Zn6   S    
C33   C41   S    
C21   H3    S    
O11   Zn7   S    
C33   O19   A    
C31   O5    A    
C29   O9    A    
O17   Zn4   S    
C37   H6    S    
O3    Zn6   S    
C38   O22   D    
C9    C38   S    
O36   Zn8   S    
C43   O32   S    
C39   O25   D    
C20   H2    S    
C10   C11   D    
O38   Zn6   S    
H11   O21   S    
O16   Zn2   S    
C20   C21   D    
C11   C29   S    
C16   C24   S    
O8    Zn5   S    
C1    C14   S    
C17   H25   S    
C7    H12   S    
C9    C28   S    
