data_mof_unit_40451.cif
_audit_creation_date              2013-03-05T16:13:54-0500
_audit_creation_method            fapswitch 2.2
_symmetry_space_group_name_H-M    P1
_symmetry_Int_Tables_number       1
_space_group_crystal_system       triclinic
_cell_length_a                    20.262773
_cell_length_b                    22.784921
_cell_length_c                    6.935399
_cell_angle_alpha                 89.869312
_cell_angle_beta                  87.701652
_cell_angle_gamma                 90.072243
_cell_volume                      3199.38734202

loop_
_atom_site_label
_atom_site_type_symbol
_atom_site_description
_atom_site_fract_x
_atom_site_fract_y
_atom_site_fract_z
_atom_type_partial_charge
O1    O     O_R   0.751270 0.447300 0.600030 -0.606266
O2    O     O_R   0.248730 0.947300 0.399970 -0.606844
O3    O     O_R   0.613530 0.440160 0.952150 -0.577819
O4    O     O_R   0.386470 0.940160 0.047850 -0.577029
O5    O     O_R   0.613050 0.552700 0.122560 -0.520695
O6    O     O_R   0.386950 0.052700 0.877440 -0.520314
C1    C     C_R   0.591385 0.425793 0.786225 1.014813
C2    C     C_R   0.408538 0.925735 0.214058 1.015000
O7    O     O_R   0.750780 0.440350 0.929820 -0.617224
O8    O     O_R   0.249220 0.940350 0.070180 -0.616895
O9    O     O_R   0.751280 0.552900 0.100070 -0.549679
O10   O     O_R   0.248720 0.052900 0.899930 -0.553713
C3    C     C_R   0.774018 0.426381 0.758789 0.893697
C4    C     C_R   0.226130 0.925988 0.241641 0.892658
O11   O     O_R   0.613040 0.447100 0.622520 -0.595077
O12   O     O_R   0.386960 0.947100 0.377480 -0.595252
O13   O     O_3   0.682160 0.536920 0.777780 -0.205468
O14   O     O_3   0.317840 0.036920 0.222220 -0.205721
V1    V     V_3+5 0.682160 0.493150 0.052630 1.252749
V2    V     V_3+5 0.317840 0.993150 0.947370 1.250488
O15   O     O_R   0.750790 0.559840 0.429870 -0.624781
O16   O     O_R   0.249210 0.059840 0.570130 -0.625989
C5    C     C_R   0.773270 0.574814 0.258353 0.911984
C6    C     C_R   0.227000 0.075111 0.740995 0.917526
O17   O     O_R   0.613540 0.559650 0.452200 -0.573830
O18   O     O_R   0.386460 0.059650 0.547800 -0.572581
C7    C     C_R   0.594087 0.576929 0.284711 0.963627
C8    C     C_R   0.405988 0.076915 0.714993 0.964034
V3    V     V_3+5 0.682160 0.506850 0.552630 1.240616
V4    V     V_3+5 0.317840 0.006850 0.447370 1.239293
O19   O     O_3   0.682150 0.463080 0.277610 -0.293692
O20   O     O_3   0.317850 0.963080 0.722390 -0.294895
C9    C     C_R   0.582436 0.865610 0.163567 -0.194410
C10   C     C_R   0.417791 0.365014 0.841437 -0.186491
C11   C     C_R   0.464813 0.884793 0.214163 -0.285204
C12   C     C_R   0.535174 0.384740 0.786742 -0.286268
C13   C     C_R   0.479882 0.602691 0.374435 -0.017915
C14   C     C_R   0.519827 0.103224 0.621660 -0.018332
C15   C     C_R   0.429388 0.642381 0.414561 -0.052993
C16   C     C_R   0.570087 0.143193 0.580090 -0.049824
C17   C     C_R   0.437645 0.701538 0.370284 -0.161158
C18   C     C_R   0.561951 0.202176 0.625785 -0.159970
C19   C     C_R   0.496298 0.722522 0.276246 0.101455
C20   C     C_R   0.503737 0.222640 0.722884 0.101373
C21   C     C_R   0.547398 0.681227 0.227411 -0.087262
C22   C     C_R   0.452964 0.181030 0.773344 -0.088731
C23   C     C_R   0.505952 0.783612 0.234293 0.122321
C24   C     C_R   0.494165 0.283537 0.766320 0.121001
C25   C     C_R   0.569596 0.803921 0.170821 -0.138856
C26   C     C_R   0.430795 0.303414 0.832984 -0.141815
C27   C     C_R   0.616810 0.762140 0.102544 0.196654
C28   C     C_R   0.384124 0.261282 0.903305 0.207527
C29   C     C_R   0.603735 0.701654 0.120816 0.138484
C30   C     C_R   0.397226 0.200909 0.883303 0.141832
C31   C     C_R   0.453718 0.824949 0.248060 -0.233699
C32   C     C_R   0.546258 0.325078 0.751158 -0.232482
C33   C     C_R   0.529429 0.905726 0.181595 0.348715
C34   C     C_R   0.470649 0.405363 0.821932 0.348993
C35   C     C_R   0.539561 0.620813 0.284935 -0.143819
C36   C     C_R   0.460554 0.120868 0.714046 -0.143085
H1    H     H_    0.403119 0.811505 0.275314 0.108307
H2    H     H_    0.596784 0.311894 0.721767 0.108794
H3    H     H_    0.473054 0.557374 0.418254 0.165812
H4    H     H_    0.526466 0.058080 0.576688 0.166833
H5    H     H_    0.397896 0.730172 0.417253 0.114990
H6    H     H_    0.601401 0.231108 0.577519 0.115924
H7    H     H_    0.384102 0.627458 0.487137 0.149013
H8    H     H_    0.615031 0.128648 0.505229 0.151289
C37   C     C_R   0.171373 0.881998 0.256910 -0.114275
C38   C     C_R   0.830659 0.384820 0.745045 -0.109859
C39   C     C_R   0.141166 0.861085 0.090733 -0.175554
C40   C     C_R   0.845396 0.347933 0.901079 -0.180689
C41   C     C_R   0.089232 0.820252 0.105307 -0.129841
C42   C     C_R   0.900675 0.310780 0.890470 -0.150224
C43   C     C_R   0.066250 0.799053 0.287461 0.219485
C44   C     C_R   0.942963 0.310569 0.724218 0.248341
C45   C     C_R   0.096731 0.819622 0.452324 -0.150250
C46   C     C_R   0.928415 0.347525 0.569814 -0.135041
C47   C     C_R   0.148373 0.860587 0.437899 -0.167873
C48   C     C_R   0.872513 0.383589 0.578507 -0.185589
C49   C     C_R   0.881661 0.711223 0.348107 -0.064836
C50   C     C_R   0.103146 0.195670 0.607465 -0.067636
C51   C     C_R   0.830613 0.668076 0.373716 -0.161792
C52   C     C_R   0.161762 0.160865 0.603427 -0.198221
C53   C     C_R   0.930248 0.704415 0.195724 0.127638
C54   C     C_R   0.058383 0.193267 0.772072 0.199341
N1    N     N_2   0.013065 0.757892 0.313169 -0.112759
N2    N     N_2   0.002035 0.276594 0.709433 -0.075483
N3    N     N_2   0.984193 0.744427 0.163344 -0.098235
N4    N     N_2   0.999605 0.228290 0.795183 -0.070554
C55   C     C_R   0.826314 0.620735 0.241159 -0.180332
C56   C     C_R   0.172219 0.119431 0.753341 -0.148773
H9    H     H_    0.080008 0.804004 0.593595 0.115346
H10   H     H_    0.960670 0.348288 0.441440 0.139338
H11   H     H_    0.170299 0.875425 0.569035 0.131021
H12   H     H_    0.863093 0.411717 0.456559 0.133853
C57   C     C_R   0.872824 0.617471 0.086188 -0.043210
C58   C     C_R   0.126650 0.117111 0.910839 -0.042683
C59   C     C_R   0.923853 0.658424 0.064618 -0.068397
C60   C     C_R   0.071211 0.153492 0.919992 -0.129325
H13   H     H_    0.870345 0.582276 0.981935 0.116937
H14   H     H_    0.133146 0.085963 0.026766 0.133513
H15   H     H_    0.067302 0.805500 0.974143 0.121414
H16   H     H_    0.911262 0.283497 0.013451 0.145900
H17   H     H_    0.959388 0.653975 0.944660 0.115938
H18   H     H_    0.037221 0.150243 0.044101 0.162107
H19   H     H_    0.157370 0.876525 0.948841 0.129593
H20   H     H_    0.814336 0.347979 0.031855 0.139170
N5    N     N_R   0.541285 0.967900 0.172801 0.237166
O21   O     O_R   0.515332 0.999705 0.039591 -0.383630
O22   O     O_R   0.578096 0.992852 0.298428 -0.398745
N6    N     N_R   0.458726 0.467462 0.831693 0.237701
O23   O     O_R   0.484475 0.498923 0.965788 -0.384974
O24   O     O_R   0.422212 0.492706 0.705731 -0.399384
C61   C     C_2   0.881011 0.766803 0.461619 0.551897
H21   H     H_    0.899776 0.806916 0.394788 0.029144
O25   O     O_2   0.861360 0.768710 0.630025 -0.508117
C62   C     C_2   0.088752 0.232420 0.437079 0.564221
H22   H     H_    0.126039 0.262049 0.376062 0.070333
O26   O     O_2   0.035866 0.228222 0.359744 -0.602729
N7    N     N_R   0.672382 0.780146 0.981558 0.251717
O27   O     O_R   0.732229 0.773644 0.039588 -0.345254
O28   O     O_R   0.663108 0.802156 0.811506 -0.358585
N8    N     N_R   0.329415 0.278757 0.028055 0.246913
O29   O     O_R   0.269087 0.271847 0.974443 -0.361181
O30   O     O_R   0.339983 0.300925 0.196797 -0.374949
C63   C     C_2   0.651147 0.888542 0.148353 0.755274
H23   H     H_    0.689576 0.867054 0.226891 0.018847
O31   O     O_2   0.665674 0.930540 0.045430 -0.505585
C64   C     C_2   0.349029 0.387583 0.859289 0.745635
H24   H     H_    0.310205 0.365708 0.783566 0.017394
O32   O     O_2   0.334905 0.429724 0.961218 -0.511794
N9    N     N_R   0.639969 0.662554 0.995879 0.242660
O33   O     O_R   0.703650 0.658925 0.005081 -0.350274
O34   O     O_R   0.611609 0.641961 0.845162 -0.356252
N10   N     N_R   0.362052 0.161343 0.009990 0.242585
O35   O     O_R   0.298331 0.156992 0.003740 -0.350273
O36   O     O_R   0.391574 0.140587 0.158675 -0.358244
C65   C     C_2   0.778777 0.674237 0.528497 0.760959
H25   H     H_    0.727246 0.677259 0.492250 -0.011142
O37   O     O_2   0.793128 0.672148 0.697509 -0.477575
C66   C     C_2   0.212971 0.168317 0.445403 0.617231
H26   H     H_    0.264937 0.166780 0.477600 0.052880
O38   O     O_2   0.197852 0.174329 0.278045 -0.531099

loop_
_geom_bond_atom_site_label_1
_geom_bond_atom_site_label_2
_geom_bond_distance
_ccdc_geom_bond_type
V4    O20   2.150356 S    
C39   H19   1.082677 S    
O13   V3    1.706634 S    
C1    C12   1.472842 S    
O4    C2    1.294883 A    
V1    O19   1.702684 S    
C51   C65   1.478470 S    
C56   C58   1.402585 A    
C49   C61   1.492451 S    
C23   C25   1.422324 A    
O9    V1    1.989329 S    
C42   C44   1.408715 A    
C34   N6    1.436993 S    
O16   C6    1.298985 A    
N8    O30   1.301193 A    
C44   C46   1.401596 A    
O3    C1    1.294411 A    
N5    O22   1.300777 A    
C46   C48   1.399649 A    
C3    C38   1.489114 S    
C9    C25   1.429541 A    
C61   H21   1.085268 S    
C9    C63   1.486185 S    
C45   H9    1.082995 S    
C37   C39   1.410078 A    
O7    C3    1.298960 A    
C62   H22   1.085090 S    
C57   C59   1.395268 A    
O5    C7    1.298384 A    
O7    V1    2.004989 S    
O6    C8    1.297810 A    
C40   H20   1.083021 S    
C20   C22   1.430716 A    
C61   O25   1.219649 D    
C26   C28   1.418556 A    
O3    V1    1.988609 S    
O14   V4    1.703772 S    
C48   H12   1.083178 S    
C54   C60   1.399669 A    
C44   N2    1.426657 S    
C15   H7    1.082763 S    
C32   H2    1.079018 S    
C24   C26   1.422131 A    
C23   C31   1.418187 A    
C21   C29   1.412686 A    
C2    O12   1.294618 A    
C41   C43   1.412648 A    
O10   V2    1.990718 S    
C18   C20   1.414719 A    
C6    C56   1.501625 S    
N6    O24   1.300796 A    
N6    O23   1.300771 A    
C13   H3    1.082812 S    
C28   C30   1.407413 A    
O11   V3    1.996914 S    
C14   H4    1.082528 S    
C8    C36   1.490651 S    
O17   V3    1.985909 S    
C59   H17   1.083236 S    
C33   N5    1.437291 S    
C10   C26   1.429293 A    
C38   C48   1.405606 A    
C65   O37   1.219803 D    
C18   H6    1.077869 S    
N10   O36   1.301090 A    
C54   N4    1.438280 S    
O8    V2    2.000548 S    
C39   C41   1.404201 A    
C53   N3    1.432926 S    
C17   H5    1.077837 S    
C1    O11   1.293927 A    
C25   C27   1.419070 A    
C50   C54   1.430212 A    
C11   C31   1.399505 A    
C27   C29   1.407549 A    
C2    C11   1.474189 S    
C64   O32   1.221125 D    
C63   O31   1.221140 D    
C47   H11   1.082710 S    
C53   C59   1.398245 A    
C43   C45   1.402429 A    
C57   H13   1.083432 S    
C16   C18   1.389989 A    
C52   C66   1.487995 S    
C30   N10   1.427308 S    
C22   C30   1.412813 A    
O1    V3    1.987405 S    
C45   C47   1.401755 A    
C29   N9    1.427486 S    
C55   C57   1.402902 A    
C10   C34   1.412791 A    
C19   C21   1.431053 A    
N7    O27   1.301465 A    
C13   C35   1.398375 A    
C14   C36   1.398329 A    
C40   C42   1.404559 A    
N2    N4    1.249794 D    
O18   V4    1.985710 S    
C19   C23   1.432918 A    
C50   C52   1.428345 A    
O15   C5    1.301232 A    
O8    C4    1.301263 A    
N9    O33   1.297208 A    
C27   N7    1.435904 S    
C4    C37   1.494708 S    
C5    C55   1.500180 S    
C37   C47   1.407306 A    
O1    C3    1.300319 A    
C50   C62   1.485389 S    
C63   H23   1.084667 S    
C66   O38   1.219725 D    
C51   C55   1.423704 A    
C42   H16   1.082834 S    
V2    O20   1.705546 S    
C43   N1    1.433189 S    
C24   C32   1.417472 A    
C21   C35   1.439108 A    
C9    C33   1.413131 A    
O16   V4    2.007594 S    
C22   C36   1.438705 A    
O18   C8    1.301678 A    
C17   C19   1.414722 A    
N10   O35   1.297297 A    
C49   C51   1.431755 A    
C38   C40   1.410322 A    
C65   H25   1.085985 S    
O5    V1    1.997639 S    
C60   H18   1.082938 S    
O17   C7    1.301806 A    
C15   C17   1.390129 A    
O6    V2    1.993738 S    
O10   C6    1.304503 A    
C12   C34   1.402232 A    
O2    V4    1.986016 S    
C11   C33   1.402497 A    
N1    N3    1.251334 D    
C64   H24   1.084635 S    
C13   C15   1.386644 A    
C58   H14   1.083302 S    
N5    O21   1.300810 A    
C14   C16   1.386549 A    
C28   N8    1.435879 S    
O15   V3    2.003144 S    
C46   H10   1.083234 S    
C31   H1    1.078962 S    
O9    C5    1.301578 A    
C12   C32   1.398984 A    
O13   V1    2.149305 S    
O14   V2    2.153336 S    
O2    C4    1.301336 A    
C58   C60   1.396394 A    
C62   O26   1.221182 D    
N7    O28   1.301179 A    
O4    V2    1.988809 S    
C41   H15   1.082300 S    
C10   C64   1.486389 S    
V3    O19   2.154387 S    
C16   H8    1.082761 S    
N9    O34   1.301050 A    
C66   H26   1.085709 S    
C7    C35   1.491036 S    
C52   C56   1.425077 A    
O12   V4    2.000827 S    
C49   C53   1.424040 A    
C20   C24   1.432313 A    
N8    O29   1.301370 A    
