data_mof_unit_31005.cif
_audit_creation_date              2012-12-11T18:37:26-0500
_audit_creation_method            fapswitch 2.2
_symmetry_space_group_name_H-M    P1
_symmetry_Int_Tables_number       1
_space_group_crystal_system       triclinic
_cell_length_a                    8.238947
_cell_length_b                    14.394533
_cell_length_c                    27.223591
_cell_angle_alpha                 95.524844
_cell_angle_beta                  91.386016
_cell_angle_gamma                 89.095373
_cell_volume                      3212.37094619

loop_
_atom_site_label
_atom_site_type_symbol
_atom_type_description
_atom_site_fract_x
_atom_site_fract_y
_atom_site_fract_z
_atom_type_partial_charge
Ba1   Ba    Ba6+2 0.849670 0.455410 0.524690 1.703566
Ba2   Ba    Ba6+2 0.340150 0.544510 0.475310 1.740086
C1    C     C_3   0.585571 0.132206 0.664925 -0.366820
C2    C     C_3   0.610105 0.224140 0.643107 0.344074
C3    C     C_3   0.628108 0.696842 0.623456 0.364673
C4    C     C_3   0.647540 0.732554 0.677716 -0.384848
C5    C     C_3   0.097244 0.728241 0.331280 0.322016
C6    C     C_3   0.123548 0.744796 0.277736 -0.288447
C7    C     C_3   0.564871 0.787028 0.351065 0.355843
C8    C     C_3   0.526517 0.879012 0.329821 -0.352333
C9    C     C_R   0.032686 0.426970 0.178813 0.599786
C10   C     C_R   0.931475 0.583632 0.177751 0.567841
C11   C     C_2   0.775130 0.547884 0.271128 -0.077280
C12   C     C_3   0.117700 0.252151 0.663725 0.289411
C13   C     C_3   0.757674 0.582733 0.324650 -0.043280
C14   C     C_1   0.986055 0.480727 0.343308 0.028026
C15   C     C_2   0.030609 0.474472 0.295811 -0.113701
C16   C     C_2   0.917895 0.508277 0.255968 0.192262
C17   C     C_R   0.035254 0.502663 0.101599 -0.079109
C18   C     C_R   0.071105 0.424809 0.127867 -0.037570
C19   C     C_R   0.142951 0.345925 0.102411 -0.060682
C20   C     C_R   0.964939 0.582317 0.126974 -0.023419
C21   C     C_2   0.855691 0.527985 0.359341 -0.298010
C22   C     C_2   0.344653 0.480685 0.641110 -0.252391
C23   C     C_3   0.085713 0.231311 0.716244 -0.339404
C24   C     C_R   0.184145 0.421364 0.973742 0.019422
C25   C     C_R   0.056797 0.577202 0.972196 0.020261
C26   C     C_R   0.137655 0.498862 0.947483 0.049870
C27   C     C_R   0.268863 0.346590 0.947550 -0.100342
C28   C     C_R   0.304575 0.347458 0.897689 -0.061389
C29   C     C_R   0.257255 0.422647 0.871188 -0.031891
C30   C     C_R   0.172786 0.498253 0.895966 -0.077847
C31   C     C_R   0.124231 0.573576 0.869280 -0.029502
C32   C     C_R   0.161622 0.572859 0.818617 0.589472
C33   C     C_R   0.293805 0.423833 0.820501 0.575818
C34   C     C_3   0.164151 0.260289 0.421689 0.308978
C35   C     C_2   0.445867 0.488920 0.728620 -0.069830
C36   C     C_3   0.492131 0.492770 0.675094 -0.041168
C37   C     C_1   0.206107 0.518808 0.655924 -0.017420
C38   C     C_2   0.163176 0.517925 0.702924 -0.139991
C39   C     C_2   0.289024 0.500560 0.742509 0.215718
C40   C     C_R   0.145540 0.421365 0.024960 0.019384
C41   C     C_R   0.069718 0.501162 0.049980 0.049929
C42   C     C_R   0.028025 0.579723 0.023984 0.019958
C43   C     C_R   0.179676 0.344174 0.052408 -0.099265
C44   C     C_R   0.929652 0.660188 0.101219 -0.060528
C45   C     C_3   0.164225 0.154680 0.410224 -0.382180
C46   C     C_R   0.006526 0.650541 0.943870 -0.101241
C47   C     C_R   0.039726 0.648684 0.893837 -0.063654
C48   C     C_R   0.960088 0.659064 0.051130 -0.103283
C49   C     C_R   0.668729 0.062947 0.462514 -0.033187
C50   C     C_R   0.502055 0.198023 0.498070 0.042517
C51   C     C_R   0.366549 0.229698 0.524856 -0.287028
C52   C     C_R   0.264099 0.167147 0.544346 0.015036
C53   C     C_R   0.304362 0.072711 0.541493 -0.145920
C54   C     C_R   0.442979 0.039380 0.516157 -0.007215
C55   C     C_R   0.539174 0.100839 0.491738 -0.025477
C56   C     C_3   0.198791 0.735308 0.651903 0.352626
C57   C     C_R   0.622545 0.909192 0.490254 -0.056422
C58   C     C_R   0.713283 0.968157 0.462169 0.008462
C59   C     C_R   0.682629 0.818796 0.496452 -0.063796
C60   C     C_R   0.844481 0.802354 0.485013 0.158223
C61   C     C_R   0.919946 0.845636 0.448672 -0.018196
C62   C     C_R   0.854496 0.932045 0.437371 -0.203127
C63   C     C_R   0.486012 0.945261 0.515544 -0.010780
C64   C     C_3   0.123563 0.772681 0.700428 -0.382277
C65   C     C_3   0.659034 0.337532 0.380780 0.299011
C66   C     C_3   0.673141 0.310339 0.325647 -0.371532
H1    H     H_    0.724763 0.218677 0.622309 0.101651
H2    H     H_    0.250412 0.133487 0.380314 0.126163
H3    H     H_    0.200965 0.119880 0.443344 0.066848
H4    H     H_    0.040448 0.131225 0.398274 0.118090
H5    H     H_    0.255060 0.794455 0.635583 0.099681
H6    H     H_    0.298612 0.685715 0.658863 -0.112886
H7    H     H_    0.041513 0.832726 0.694480 0.122018
H8    H     H_    0.220411 0.796140 0.727681 0.103545
H9    H     H_    0.052048 0.717374 0.715171 0.147031
H10   H     H_    0.776608 0.364564 0.395825 0.008109
H11   H     H_    0.563931 0.392649 0.386358 0.081121
H12   H     H_    0.689390 0.117961 0.690019 0.132698
H13   H     H_    0.775097 0.259724 0.318753 0.132474
H14   H     H_    0.695587 0.372850 0.306191 0.070147
H15   H     H_    0.558488 0.278121 0.310595 0.132847
H16   H     H_    0.506139 0.235449 0.617626 -0.034629
H17   H     H_    0.577657 0.074545 0.634788 0.075632
H18   H     H_    0.545786 0.636247 0.619205 -0.057678
H19   H     H_    0.749368 0.675637 0.610390 0.139618
H20   H     H_    0.530216 0.759210 0.692835 0.101524
H21   H     H_    0.692712 0.675106 0.699101 0.065986
H22   H     H_    0.736499 0.790075 0.682014 0.143163
H23   H     H_    0.471427 0.135154 0.685936 0.125815
H24   H     H_    0.137399 0.287179 0.742571 0.127158
H25   H     H_    0.172283 0.666878 0.339985 0.091039
H26   H     H_    0.967241 0.714256 0.335846 -0.057906
H27   H     H_    0.240775 0.779774 0.273697 0.144000
H28   H     H_    0.126742 0.676941 0.254812 0.106447
H29   H     H_    0.024153 0.789589 0.264354 0.131801
H30   H     H_    0.698086 0.774541 0.348582 -0.068279
H31   H     H_    0.530232 0.794026 0.390474 0.052318
H32   H     H_    0.599145 0.935558 0.349904 0.068735
H33   H     H_    0.395901 0.897259 0.333790 0.150262
H34   H     H_    0.067720 0.322868 0.659100 0.084995
H35   H     H_    0.557070 0.873637 0.290130 0.123035
H36   H     H_    0.149932 0.446984 0.285899 0.137996
H37   H     H_    0.171569 0.284489 0.121196 0.121076
H38   H     H_    0.541359 0.480905 0.756143 0.099604
H39   H     H_    0.370374 0.288267 0.879855 0.120987
H40   H     H_    0.312014 0.286268 0.964699 0.068453
H41   H     H_    0.233172 0.280094 0.036167 0.068497
H42   H     H_    0.684854 0.569459 0.244685 0.118553
H43   H     H_    0.877236 0.723174 0.119804 0.122343
H44   H     H_    0.938528 0.710581 0.959005 0.068352
H45   H     H_    0.250853 0.251212 0.658217 -0.013086
H46   H     H_    0.998583 0.707188 0.874336 0.119175
H47   H     H_    0.039004 0.533744 0.713306 0.127500
H48   H     H_    0.931065 0.722871 0.035050 0.068644
H49   H     H_    0.838338 0.545410 0.398576 0.078591
H50   H     H_    0.353998 0.444547 0.604345 0.053816
H51   H     H_    0.335727 0.303335 0.528174 0.062115
H52   H     H_    0.226162 0.025292 0.558198 0.103645
H53   H     H_    0.919099 0.973288 0.413177 0.085451
H54   H     H_    0.741068 0.106914 0.441904 0.096539
H55   H     H_    0.952881 0.228617 0.721960 0.137782
H56   H     H_    0.416733 0.901992 0.537358 0.128844
H57   H     H_    0.142494 0.163329 0.723474 0.119162
H58   H     H_    0.289300 0.283417 0.431044 -0.000597
H59   H     H_    0.084321 0.278921 0.453504 0.064936
N1    N     N_R   0.962497 0.505911 0.203588 -0.421813
N2    N     N_R   0.245822 0.498513 0.794464 -0.423253
O1    O     O_2   0.918080 0.549800 0.616640 -0.485723
O2    O     O_3   0.617747 0.258364 0.403515 -0.644093
O3    O     O_3   0.041260 0.184459 0.630854 -0.604095
O4    O     O_2   0.271610 0.450170 0.383330 -0.463010
O5    O     O_3   0.039630 0.450200 0.443530 -0.487300
O6    O     O_3   0.531440 0.620360 0.408460 -0.492156
O7    O     O_3   0.107567 0.300638 0.379709 -0.625935
O8    O     O_3   0.643350 0.612530 0.521650 -0.465506
O9    O     O_3   0.127390 0.668260 0.431510 -0.451529
O10   O     O_2   0.262575 0.834707 0.449634 -0.447250
O11   O     O_3   0.142723 0.808019 0.361591 -0.619053
O12   O     O_3   0.150070 0.549720 0.556460 -0.412227
O13   O     O_3   0.546340 0.387390 0.478340 -0.500261
O14   O     O_2   0.398940 0.728800 0.517420 -0.394517
O15   O     O_3   0.566464 0.768174 0.596642 -0.624845
O16   O     O_2   0.424402 0.535017 0.322269 -0.498958
O17   O     O_3   0.477249 0.714653 0.324422 -0.592704
O18   O     O_2   0.059508 0.357885 0.200647 -0.595819
O19   O     O_2   0.368161 0.357965 0.799583 -0.596713
O20   O     O_2   0.875265 0.655143 0.199028 -0.622497
O21   O     O_2   0.121768 0.639613 0.796353 -0.622647
O22   O     O_3   0.658250 0.379560 0.591530 -0.492145
O23   O     O_2   0.819677 0.431365 0.674558 -0.505207
O24   O     O_3   0.076114 0.698895 0.619052 -0.504534
O25   O     O_3   0.617751 0.297088 0.681252 -0.585741
O26   O     O_2   0.790750 0.271170 0.482550 -0.464374
O27   O     O_3   0.062300 0.331660 0.568480 -0.503175
O28   O     O_2   0.926906 0.167831 0.540211 -0.481499
P1    P     P_3+3 0.090020 0.577590 0.608380 1.116249
P2    P     P_3+3 0.614340 0.285150 0.467650 0.968837
P3    P     P_3+3 0.072722 0.211166 0.570523 0.938949
P4    P     P_3+3 0.099670 0.422330 0.391610 0.992886
P5    P     P_3+3 0.111520 0.789188 0.423108 1.031403
P6    P     P_3+3 0.647790 0.402554 0.655561 0.962953
P7    P     P_3+3 0.582215 0.732512 0.533486 1.052357
P8    P     P_3+3 0.546498 0.608988 0.344461 0.935253
S1    S     S_3+6 0.964690 0.777514 0.534222 -0.092630
O29   O     O_2   0.969790 0.673734 0.527998 -0.276562
O30   O     O_2   0.131467 0.816983 0.534287 -0.309666
O31   O     O_3   0.878686 0.820820 0.587159 -0.561574
H60   H     H_    0.877951 0.889462 0.586154 0.318694

loop_
_geom_bond_atom_site_label_1
_geom_bond_atom_site_label_2
_ccdc_geom_bond_type
C25   C46   A    
C61   P5    S    
C2    O25   S    
C53   C54   A    
C38   C39   S    
C7    H30   S    
C28   H39   S    
C1    H17   S    
C59   P7    S    
O31   H60   S    
C17   C18   A    
C6    H28   S    
O13   P2    S    
C6    H29   S    
C32   O21   D    
C5    C6    S    
C12   O3    S    
C51   C52   A    
C65   H10   S    
C24   C40   A    
Ba2   O5    S    
C11   C16   D    
C66   H13   S    
Ba1   P2    S    
C8    H35   S    
C15   H36   S    
C8    H33   S    
C3    C4    S    
C43   H41   S    
C12   H34   S    
C38   H47   S    
O11   P5    S    
C54   C63   A    
C10   C20   A    
C7    O17   S    
C22   C37   D    
C4    H20   S    
C54   C55   A    
C34   C45   S    
C1    H23   S    
Ba1   Ba2   S    
C63   H56   S    
O24   P1    S    
Ba1   O26   S    
C23   H57   S    
Ba1   O13   S    
C16   N1    S    
C25   C42   A    
C56   C64   S    
C32   N2    Am   
C14   C15   D    
C22   C36   S    
C27   H40   S    
C49   C55   A    
C7    C8    S    
C33   N2    Am   
C53   H52   S    
C50   P2    S    
C13   C21   S    
C47   H46   S    
C57   C58   A    
C7    H31   S    
C44   H43   S    
O15   P7    S    
S1    O30   D    
Ba2   O14   S    
C66   H15   S    
C6    H27   S    
C1    H12   S    
C34   O7    S    
Ba2   P4    S    
C2    H1    S    
C17   C41   A    
C62   H53   S    
C15   C16   S    
C19   C43   A    
O7    P4    S    
C60   S1    S    
C5    H25   S    
C65   O2    S    
C9    C18   A    
C57   C59   A    
Ba2   O4    S    
O26   P2    D    
C65   C66   S    
Ba2   O9    S    
O25   P6    S    
C26   C30   A    
C17   C20   A    
C65   H11   S    
Ba1   O1    S    
C37   C38   D    
C3    O15   S    
O16   P8    D    
C4    H22   S    
C40   C43   A    
C35   C36   S    
Ba1   O27   S    
O2    P2    S    
C41   C42   A    
C45   H2    S    
C27   C28   A    
C56   O24   S    
C29   C30   A    
C2    H16   S    
O27   P3    S    
C28   C29   A    
C64   H8    S    
C60   C61   A    
C31   C32   A    
O6    P8    S    
O9    P5    S    
O3    P3    S    
C8    H32   S    
C23   H55   S    
C11   H42   S    
C45   H3    S    
S1    O31   S    
C3    H18   S    
C36   P6    S    
C20   C44   A    
O17   P8    S    
O28   P3    D    
O22   P6    S    
C11   C13   S    
C37   P1    S    
S1    O29   D    
Ba2   O13   S    
C29   C33   A    
C34   H59   S    
C40   C41   A    
Ba1   O5    S    
C4    H21   S    
O14   P7    D    
Ba1   O8    S    
C50   C51   A    
C56   H6    S    
C42   C48   A    
C49   H54   S    
C64   H9    S    
C52   C53   A    
Ba1   P1    S    
C23   H24   S    
C46   H44   S    
Ba2   O8    S    
C24   C26   A    
C10   O20   D    
O10   P5    D    
C34   H58   S    
C5    H26   S    
O4    P4    D    
C21   H49   S    
O8    P7    S    
C51   H51   S    
C10   N1    Am   
C14   P4    S    
C14   C21   D    
C12   H45   S    
C44   C48   A    
C22   H50   S    
Ba2   O6    S    
O5    P4    S    
C58   C62   A    
O1    P1    D    
C66   H14   S    
C30   C31   A    
C9    N1    Am   
C35   H38   S    
C57   C63   A    
C39   N2    S    
C9    O18   D    
C5    O11   S    
C46   C47   A    
C64   H7    S    
Ba1   O22   S    
C48   H48   S    
C33   O19   D    
C12   C23   S    
C35   C39   D    
C59   C60   A    
C45   H4    S    
O23   P6    D    
Ba1   O12   S    
C50   C55   A    
C52   P3    S    
C61   C62   A    
C3    H19   S    
O12   P1    S    
C18   C19   A    
C24   C27   A    
C25   C26   A    
Ba2   O12   S    
C13   P8    S    
C49   C58   A    
C31   C47   A    
C19   H37   S    
C1    C2    S    
C56   H5    S    
