data_mof_unit_15041.cif
_audit_creation_date              2012-12-10T20:31:01-0500
_audit_creation_method            fapswitch 2.2
_symmetry_space_group_name_H-M    P1
_symmetry_Int_Tables_number       1
_space_group_crystal_system       triclinic
_cell_length_a                    14.949838
_cell_length_b                    10.649194
_cell_length_c                    9.88996
_cell_angle_alpha                 90.19514
_cell_angle_beta                  89.928486
_cell_angle_gamma                 90.126997
_cell_volume                      1574.504262

loop_
_atom_site_label
_atom_site_type_symbol
_atom_type_description
_atom_site_fract_x
_atom_site_fract_y
_atom_site_fract_z
_atom_type_partial_charge
C1    C     C_R   0.498046 0.260548 0.499734 0.964963
C2    C     C_R   0.907102 0.562384 0.395334 0.117771
C3    C     C_R   0.953196 0.376033 0.706915 -0.210893
C4    C     C_R   0.046156 0.374657 0.705893 -0.179987
C5    C     C_R   0.092889 0.436870 0.603208 0.116110
C6    C     C_R   0.046529 0.500798 0.500110 0.052845
C7    C     C_R   0.093292 0.564544 0.396884 0.111046
C8    C     C_R   0.046906 0.626332 0.293924 -0.156893
C9    C     C_R   0.953924 0.624789 0.292821 -0.213968
C10   C     C_R   0.185402 0.435994 0.601259 -0.226827
C11   C     C_R   0.231171 0.500609 0.500090 -0.048014
C12   C     C_R   0.326846 0.500146 0.500046 0.946798
C13   C     C_R   0.185842 0.565130 0.398651 -0.139588
C14   C     C_R   0.563753 0.064339 0.562372 0.058407
C15   C     C_R   0.495776 0.128610 0.497244 -0.258965
C16   C     C_R   0.431466 0.064702 0.419100 0.321410
C17   C     C_R   0.431480 0.933970 0.419050 0.314079
C18   C     C_R   0.495491 0.871181 0.497980 -0.244036
C19   C     C_R   0.563582 0.936295 0.562783 0.055013
C20   C     C_3   0.594360 0.929899 0.706290 -0.435433
C21   C     C_3   0.594574 0.072335 0.705862 -0.428085
C22   C     C_R   0.428575 0.452624 0.071039 0.243483
C23   C     C_R   0.498033 0.739383 0.500013 0.957790
C24   C     C_R   0.573488 0.536229 0.071830 -0.130190
C25   C     C_R   0.573532 0.536058 0.928152 -0.131548
C26   C     C_R   0.428501 0.453785 0.928561 0.161908
C27   C     C_3   0.335650 0.503478 0.922771 -0.536576
C28   C     C_3   0.334830 0.500818 0.075952 0.171923
C29   C     C_R   0.673152 0.500119 0.499916 0.874232
C30   C     C_R   0.814522 0.560684 0.395401 -0.254082
C31   C     C_R   0.768831 0.500186 0.499800 -0.057125
C32   C     C_R   0.814197 0.439809 0.604216 -0.262014
C33   C     C_R   0.906751 0.438514 0.604471 0.117004
C34   C     C_R   0.953469 0.500614 0.500000 0.067952
H1    H     H_    0.777942 0.607948 0.315766 0.147919
H2    H     H_    0.543280 0.889005 0.775250 0.223448
H3    H     H_    0.662368 0.888741 0.715004 0.196888
H4    H     H_    0.543630 0.113943 0.774636 0.225090
H5    H     H_    0.662707 0.113630 0.714319 0.194792
H6    H     H_    0.632103 0.568738 0.125602 0.151286
H7    H     H_    0.632208 0.568375 0.874411 0.153403
H8    H     H_    0.332627 0.600034 0.880549 0.201646
H9    H     H_    0.289018 0.435306 0.875482 0.232686
H10   H     H_    0.329083 0.595107 0.123731 0.148996
H11   H     H_    0.777373 0.392319 0.683750 0.152652
H12   H     H_    0.917666 0.328015 0.787204 0.154294
H13   H     H_    0.081468 0.325618 0.785405 0.172800
H14   H     H_    0.221820 0.383349 0.676624 0.155124
H15   H     H_    0.222660 0.615656 0.321493 0.187836
H16   H     H_    0.082504 0.675163 0.214266 0.170195
H17   H     H_    0.918671 0.672496 0.212325 0.151408
N1    N     N_R   0.499390 0.499140 0.142800 -0.133434
N2    N     N_R   0.499390 0.499180 0.857150 -0.108471
O1    O     O_R   0.500010 0.316790 0.614690 -0.623904
O2    O     O_R   0.500000 0.316760 0.385350 -0.576737
O3    O     O_R   0.367850 0.499990 0.614680 -0.637820
O4    O     O_R   0.367840 0.499950 0.385340 -0.576528
O5    O     O_R   0.500000 0.683240 0.614650 -0.624126
O6    O     O_R   0.499990 0.683210 0.385310 -0.593982
O7    O     O_R   0.632160 0.500050 0.614660 -0.636082
O8    O     O_R   0.632150 0.500010 0.385320 -0.636444
Zn1   Zn    Zn3+2 0.500010 0.500020 0.653130 0.953572
Zn2   Zn    Zn3+2 0.499990 0.499980 0.346870 1.012729
Cl1   Cl    Cl    0.346540 0.850708 0.331672 -0.586719
Cl2   Cl    Cl    0.258581 0.385937 0.139335 -0.528918
Cl3   Cl    Cl    0.345707 0.146493 0.333829 -0.462108

loop_
_geom_bond_atom_site_label_1
_geom_bond_atom_site_label_2
_ccdc_geom_bond_type
C24   N1    A    
C23   O5    A    
C11   C12   S    
O5    Zn1   S    
C6    C7    A    
C1    C15   S    
C27   H9    S    
N2    Zn1   S    
C3    H12   S    
O6    Zn2   S    
C19   C20   S    
C21   H5    S    
C29   O7    A    
C7    C13   A    
C30   C31   A    
C2    C30   A    
C6    C34   A    
C32   C33   A    
C2    C34   A    
C17   C18   A    
C1    O2    A    
C5    C10   A    
C29   C31   S    
C32   H11   S    
C22   C28   S    
C4    C5    A    
C24   C25   A    
C23   O6    A    
C20   H3    S    
C11   C13   A    
C27   H8    S    
C26   C27   S    
C12   O3    A    
O2    Zn2   S    
C30   H1    S    
C1    O1    A    
C13   H15   S    
C12   O4    A    
C14   C21   S    
O7    Zn1   S    
C24   H6    S    
C33   C34   A    
C28   Cl2   S    
O3    Zn1   S    
C21   H4    S    
C17   Cl1   S    
C10   H14   S    
C5    C6    A    
C29   O8    A    
C16   Cl3   S    
C10   C11   A    
C3    C33   A    
C18   C23   S    
C20   H2    S    
C26   N2    A    
C8    H16   S    
C7    C8    A    
C20   C21   S    
C22   N1    A    
C18   C19   A    
C22   C26   A    
C25   H7    S    
C27   C28   S    
O8    Zn2   S    
C14   C15   A    
C16   C17   A    
C4    H13   S    
O1    Zn1   S    
C2    C9    A    
C14   C19   A    
C28   H10   S    
C31   C32   A    
C3    C4    A    
C15   C16   A    
O4    Zn2   S    
C25   N2    A    
C8    C9    A    
N1    Zn2   S    
C9    H17   S    
