data_mof_unit_20392.cif
_audit_creation_date              2012-12-11T16:19:01-0500
_audit_creation_method            fapswitch 2.2
_symmetry_space_group_name_H-M    P1
_symmetry_Int_Tables_number       1
_space_group_crystal_system       triclinic
_cell_length_a                    6.936818
_cell_length_b                    32.968483
_cell_length_c                    33.43303
_cell_angle_alpha                 89.998601
_cell_angle_beta                  89.998787
_cell_angle_gamma                 89.645344
_cell_volume                      7645.86599347

loop_
_atom_site_label
_atom_site_type_symbol
_atom_type_description
_atom_site_fract_x
_atom_site_fract_y
_atom_site_fract_z
_atom_type_partial_charge
O1    O     O_R   0.417270 0.211480 0.210950 -0.527389
O2    O     O_R   0.582730 0.788520 0.789050 -0.538156
O3    O     O_R   0.582730 0.788520 0.710950 -0.527413
O4    O     O_R   0.417270 0.211480 0.289050 -0.538146
O5    O     O_R   0.917270 0.288520 0.289050 -0.524375
O6    O     O_R   0.082730 0.711480 0.710950 -0.538362
O7    O     O_R   0.082730 0.711480 0.789050 -0.524401
O8    O     O_R   0.917270 0.288520 0.210950 -0.538343
O9    O     O_R   0.746940 0.206370 0.288750 -0.499543
O10   O     O_R   0.253060 0.793630 0.711250 -0.536757
O11   O     O_R   0.253060 0.793630 0.788750 -0.499566
O12   O     O_R   0.746940 0.206370 0.211250 -0.536750
O13   O     O_R   0.246940 0.293630 0.211250 -0.491604
O14   O     O_R   0.753060 0.706370 0.788750 -0.533760
O15   O     O_R   0.753060 0.706370 0.711250 -0.491499
O16   O     O_R   0.246940 0.293630 0.288750 -0.533898
C1    C     C_R   0.576233 0.193884 0.299894 0.854590
C2    C     C_R   0.420753 0.804872 0.698742 0.869681
C3    C     C_R   0.423764 0.806117 0.799893 0.854647
C4    C     C_R   0.579249 0.195129 0.198742 0.869711
C5    C     C_R   0.075623 0.305354 0.199170 0.828445
C6    C     C_R   0.921491 0.694784 0.801233 0.869182
C7    C     C_R   0.924382 0.694648 0.699170 0.828738
C8    C     C_R   0.078506 0.305210 0.301234 0.868804
O17   O     O_3   0.583760 0.276950 0.250000 -0.358281
O18   O     O_3   0.416240 0.723050 0.750000 -0.358166
O19   O     O_3   0.083760 0.223050 0.250000 -0.364411
O20   O     O_3   0.916240 0.776950 0.750000 -0.364465
V1    V     V_3+5 0.858600 0.245000 0.250000 1.768886
V2    V     V_3+5 0.141400 0.755000 0.750000 1.768914
V3    V     V_3+5 0.358600 0.255000 0.250000 1.774210
V4    V     V_3+5 0.641400 0.745000 0.750000 1.774419
C9    C     C_R   0.114325 0.585634 0.542783 0.788762
C10   C     C_R   0.160623 0.424076 0.452489 0.783256
C11   C     C_R   0.885678 0.414327 0.042764 0.788625
C12   C     C_R   0.839189 0.575840 0.952376 0.782738
C13   C     C_R   0.598663 0.920169 0.951784 0.786242
C14   C     C_R   0.626078 0.083438 0.039394 0.782801
C15   C     C_R   0.401193 0.079831 0.451778 0.786247
C16   C     C_R   0.373829 0.916563 0.539397 0.782783
N1    N     N_R   0.075791 0.570221 0.579980 -0.531859
N2    N     N_R   0.121639 0.438471 0.414858 -0.536392
N3    N     N_R   0.924223 0.429761 0.079951 -0.531884
N4    N     N_R   0.878178 0.561422 0.914751 -0.536794
N5    N     N_R   0.558253 0.934939 0.914416 -0.531652
N6    N     N_R   0.604259 0.069058 0.077667 -0.538825
N7    N     N_R   0.441622 0.065061 0.414412 -0.531654
N8    N     N_R   0.395674 0.930944 0.577668 -0.538849
C17   C     C_R   0.064286 0.529140 0.585459 0.812656
C18   C     C_R   0.095711 0.479258 0.409052 0.803146
C19   C     C_R   0.935689 0.470845 0.085408 0.812669
C20   C     C_R   0.903831 0.520624 0.908964 0.805040
C21   C     C_R   0.540606 0.975818 0.908265 0.816495
C22   C     C_R   0.587436 0.028172 0.084068 0.811123
C23   C     C_R   0.459271 0.024182 0.408262 0.816494
C24   C     C_R   0.412490 0.971829 0.584066 0.811174
C25   C     C_R   0.107390 0.501935 0.553587 -0.213301
C26   C     C_R   0.119082 0.507064 0.441358 -0.214354
C27   C     C_R   0.892530 0.498035 0.053522 -0.213375
C28   C     C_R   0.880499 0.492845 0.941298 -0.215968
C29   C     C_R   0.579876 0.003655 0.939671 -0.214666
C30   C     C_R   0.606577 0.000125 0.051862 -0.217875
C31   C     C_R   0.419995 0.996345 0.439670 -0.214677
C32   C     C_R   0.393317 0.999876 0.551860 -0.217897
C33   C     C_R   0.112416 0.517873 0.514181 -0.085981
C34   C     C_R   0.121299 0.491295 0.480833 -0.085451
C35   C     C_R   0.887425 0.482077 0.014126 -0.085866
C36   C     C_R   0.878468 0.508637 0.980762 -0.085440
C37   C     C_R   0.590253 0.988361 0.979276 -0.085743
C38   C     C_R   0.598587 0.015437 0.012231 -0.086498
C39   C     C_R   0.409615 0.011640 0.479273 -0.085736
C40   C     C_R   0.401295 0.984563 0.512230 -0.086496
C41   C     C_R   0.107738 0.560470 0.508274 -0.190079
C42   C     C_R   0.133430 0.448831 0.486776 -0.195184
C43   C     C_R   0.892105 0.439477 0.008243 -0.189981
C44   C     C_R   0.866377 0.551104 0.986679 -0.195049
C45   C     C_R   0.591402 0.945877 0.985795 -0.186926
C46   C     C_R   0.599788 0.057883 0.005658 -0.195690
C47   C     C_R   0.408455 0.054124 0.485791 -0.186913
C48   C     C_R   0.400100 0.942118 0.505658 -0.195690
C49   C     C_R   0.136004 0.459543 0.559588 0.259463
C50   C     C_R   0.132020 0.549722 0.435623 0.254805
C51   C     C_R   0.863901 0.540431 0.059499 0.259423
C52   C     C_R   0.867396 0.450188 0.935599 0.254213
C53   C     C_R   0.599661 0.046022 0.933009 0.259117
C54   C     C_R   0.624827 0.957506 0.057925 0.258687
C55   C     C_R   0.400211 0.953978 0.433009 0.259115
C56   C     C_R   0.375048 0.042494 0.557922 0.258618
C57   C     C_R   0.125917 0.432751 0.526418 0.333280
C58   C     C_R   0.102219 0.576279 0.468509 0.338254
C59   C     C_R   0.873921 0.567205 0.026311 0.333301
C60   C     C_R   0.897420 0.423651 0.968487 0.338348
C61   C     C_R   0.584350 0.073192 0.965752 0.334610
C62   C     C_R   0.590791 0.930645 0.025677 0.341849
C63   C     C_R   0.415526 0.926809 0.465753 0.334617
C64   C     C_R   0.409064 0.069356 0.525672 0.341852
O21   O     O_2   0.160986 0.625103 0.539625 -0.420310
O22   O     O_2   0.232075 0.386290 0.456396 -0.402522
O23   O     O_2   0.839172 0.374848 0.039626 -0.420336
O24   O     O_2   0.767704 0.613627 0.956259 -0.402470
O25   O     O_2   0.647598 0.880749 0.955596 -0.427415
O26   O     O_2   0.680335 0.122140 0.034160 -0.398821
O27   O     O_2   0.352242 0.119251 0.455588 -0.427399
O28   O     O_2   0.319562 0.877861 0.534167 -0.398822
O29   O     O_2   0.005355 0.514905 0.621144 -0.411467
O30   O     O_2   0.041208 0.492583 0.372688 -0.422777
O31   O     O_2   0.994637 0.485101 0.121082 -0.411355
O32   O     O_2   0.958010 0.507259 0.872593 -0.419827
O33   O     O_2   0.479256 0.989191 0.872369 -0.409762
O34   O     O_2   0.545556 0.014917 0.121120 -0.406795
O35   O     O_2   0.520634 0.010809 0.372367 -0.409755
O36   O     O_2   0.454397 0.985085 0.621116 -0.406729
C65   C     C_R   0.221689 0.406978 0.348533 0.315644
C66   C     C_R   0.146582 0.602276 0.647070 0.441584
C67   C     C_R   0.778412 0.592928 0.848409 0.317727
C68   C     C_R   0.853462 0.397725 0.147056 0.441491
C69   C     C_R   0.719295 0.097060 0.144549 0.431119
C70   C     C_R   0.634979 0.901053 0.848542 0.450595
C71   C     C_R   0.280679 0.902939 0.644552 0.431031
C72   C     C_R   0.364958 0.098949 0.348536 0.450596
C73   C     C_R   0.189550 0.376322 0.319229 0.129745
C74   C     C_R   0.093689 0.630590 0.677144 0.173344
C75   C     C_R   0.810461 0.623644 0.819150 0.126838
C76   C     C_R   0.906347 0.369414 0.177135 0.173267
C77   C     C_R   0.688705 0.125238 0.176232 0.145286
C78   C     C_R   0.587647 0.871176 0.819671 0.156292
C79   C     C_R   0.311292 0.874762 0.676236 0.145229
C80   C     C_R   0.412325 0.128826 0.319666 0.156299
C81   C     C_R   0.076481 0.341757 0.328613 -0.306714
C82   C     C_R   0.946867 0.659828 0.670293 -0.326789
C83   C     C_R   0.923499 0.658203 0.828579 -0.305480
C84   C     C_R   0.053159 0.340174 0.170288 -0.326885
C85   C     C_R   0.578089 0.160866 0.169362 -0.327235
C86   C     C_R   0.443280 0.841987 0.827497 -0.308516
C87   C     C_R   0.421914 0.839135 0.669363 -0.327168
C88   C     C_R   0.556695 0.158012 0.327497 -0.308540
C89   C     C_R   0.983244 0.341769 0.366185 0.310217
C90   C     C_R   0.833432 0.656300 0.635259 0.296463
C91   C     C_R   0.016839 0.658134 0.866141 0.310123
C92   C     C_R   0.166609 0.343698 0.135254 0.296485
C93   C     C_R   0.498583 0.165876 0.131062 0.304697
C94   C     C_R   0.327242 0.847020 0.862047 0.315992
C95   C     C_R   0.501412 0.834127 0.631062 0.304688
C96   C     C_R   0.672706 0.152976 0.362049 0.315911
C97   C     C_R   0.957991 0.378690 0.386381 0.264944
C98   C     C_R   0.865043 0.623477 0.608635 0.263187
C99   C     C_R   0.042041 0.621189 0.886298 0.263868
C100  C     C_R   0.135000 0.376517 0.108622 0.263221
C101  C     C_R   0.461311 0.130797 0.108907 0.261931
C102  C     C_R   0.352863 0.881061 0.887022 0.232903
C103  C     C_R   0.538661 0.869207 0.608905 0.261927
C104  C     C_R   0.647054 0.118935 0.387022 0.232835
C105  C     C_R   0.097079 0.409288 0.382288 0.093013
C106  C     C_R   0.029682 0.598386 0.612390 0.040655
C107  C     C_R   0.902938 0.590598 0.882176 0.094174
C108  C     C_R   0.970366 0.401610 0.112374 0.040757
C109  C     C_R   0.592770 0.098005 0.110883 0.079262
C110  C     C_R   0.515090 0.906157 0.882639 0.053015
C111  C     C_R   0.407191 0.901996 0.610884 0.079296
C112  C     C_R   0.484817 0.093843 0.382636 0.053038
S1    S     S_3+6 0.221115 0.440759 0.606799 0.252190
O37   O     O_2   0.052857 0.432948 0.633996 -0.168961
O38   O     O_2   0.334723 0.402092 0.602108 -0.212207
O39   O     O_3   0.366735 0.474528 0.628642 -0.406824
H1    H     H_    0.487994 0.473264 0.613014 0.375734
S2    S     S_3+6 0.227250 0.569492 0.389864 0.258438
O40   O     O_2   0.067662 0.574779 0.359874 -0.165578
O41   O     O_2   0.323743 0.609681 0.396127 -0.208539
O42   O     O_3   0.392993 0.537532 0.371065 -0.388268
H2    H     H_    0.503016 0.538982 0.389898 0.374635
S3    S     S_3+6 0.778842 0.559236 0.106705 0.252201
O43   O     O_2   0.947134 0.567072 0.133884 -0.168929
O44   O     O_2   0.665176 0.597895 0.102001 -0.212237
O45   O     O_3   0.633303 0.525470 0.128579 -0.406803
H3    H     H_    0.512024 0.526717 0.112958 0.375750
S4    S     S_3+6 0.771279 0.430409 0.889931 0.259912
O46   O     O_2   0.930215 0.425146 0.859788 -0.164695
O47   O     O_2   0.675026 0.390208 0.896280 -0.208643
O48   O     O_3   0.605023 0.462359 0.871314 -0.386603
H4    H     H_    0.495796 0.461029 0.890356 0.373672
S5    S     S_3+6 0.681425 0.064557 0.885555 0.251948
O49   O     O_2   0.512011 0.071115 0.858232 -0.169840
O50   O     O_2   0.787853 0.103887 0.889854 -0.211393
O51   O     O_3   0.832846 0.031184 0.864164 -0.407811
H5    H     H_    0.953199 0.032996 0.880006 0.375930
S6    S     S_3+6 0.733731 0.937969 0.102539 0.254055
O52   O     O_2   0.585088 0.934351 0.135029 -0.165966
O53   O     O_2   0.824404 0.897028 0.095800 -0.209901
O54   O     O_3   0.908799 0.969149 0.117788 -0.410225
H6    H     H_    0.009721 0.967059 0.096903 0.364503
S7    S     S_3+6 0.318444 0.935444 0.385556 0.251944
O55   O     O_2   0.487858 0.928885 0.358233 -0.169835
O56   O     O_2   0.212010 0.896115 0.389858 -0.211398
O57   O     O_3   0.167029 0.968818 0.364165 -0.407817
H7    H     H_    0.046679 0.967008 0.380009 0.375928
S8    S     S_3+6 0.266157 0.062028 0.602539 0.254180
O58   O     O_2   0.414818 0.065651 0.635024 -0.165920
O59   O     O_2   0.175461 0.102968 0.595800 -0.209915
O60   O     O_3   0.091113 0.030845 0.617796 -0.409893
H8    H     H_    0.990174 0.032934 0.596916 0.364542
S9    S     S_3+6 0.072352 0.380268 0.535183 0.231694
O61   O     O_2   0.256492 0.355972 0.534619 -0.200625
O62   O     O_2   0.973979 0.374590 0.574822 -0.210981
O63   O     O_3   0.923749 0.362149 0.500023 -0.429370
H9    H     H_    0.911476 0.332861 0.506101 0.430912
S10   S     S_3+6 0.026047 0.627457 0.458816 0.223401
O64   O     O_2   0.196936 0.655143 0.461699 -0.203662
O65   O     O_2   0.938113 0.631237 0.417898 -0.208316
O66   O     O_3   0.858534 0.642465 0.491981 -0.440003
H10   H     H_    0.840096 0.671844 0.486952 0.423793
S11   S     S_3+6 0.927385 0.619700 0.035046 0.231712
O67   O     O_2   0.743192 0.643978 0.034481 -0.200555
O68   O     O_2   0.025812 0.625403 0.074673 -0.211174
O69   O     O_3   0.075870 0.637825 0.999866 -0.429244
H11   H     H_    0.088701 0.667075 0.006020 0.430965
S12   S     S_3+6 0.973696 0.372485 0.958787 0.223291
O70   O     O_2   0.802973 0.344764 0.961763 -0.203640
O71   O     O_2   0.061197 0.368710 0.917827 -0.208413
O72   O     O_3   0.141624 0.357536 0.991887 -0.440037
H12   H     H_    0.160190 0.328161 0.986864 0.423814
S13   S     S_3+6 0.514456 0.124776 0.956080 0.231391
O73   O     O_2   0.690382 0.151197 0.956363 -0.198850
O74   O     O_2   0.415146 0.128730 0.916319 -0.209008
O75   O     O_3   0.359373 0.141451 0.990908 -0.434307
H13   H     H_    0.347482 0.171020 0.986148 0.429123
S14   S     S_3+6 0.512999 0.880060 0.036526 0.212712
O76   O     O_2   0.681289 0.851303 0.033102 -0.207720
O77   O     O_2   0.430474 0.877513 0.078013 -0.211990
O78   O     O_3   0.340388 0.865646 0.004448 -0.452508
H14   H     H_    0.317140 0.836700 0.010614 0.409787
S15   S     S_3+6 0.485407 0.875224 0.456083 0.231384
O79   O     O_2   0.309472 0.848804 0.456369 -0.198866
O80   O     O_2   0.584711 0.871268 0.416321 -0.209008
O81   O     O_3   0.640488 0.858546 0.490909 -0.434304
H15   H     H_    0.652363 0.828977 0.486152 0.429122
S16   S     S_3+6 0.486832 0.119943 0.536517 0.212733
O82   O     O_2   0.318526 0.148696 0.533094 -0.207701
O83   O     O_2   0.569364 0.122493 0.578002 -0.211977
O84   O     O_3   0.659428 0.134361 0.504435 -0.452531
H16   H     H_    0.682676 0.163307 0.510601 0.409767
S17   S     S_3+6 0.424117 0.439408 0.343320 0.185300
O85   O     O_2   0.483552 0.456489 0.383042 -0.296491
O86   O     O_2   0.591438 0.415761 0.326518 -0.259998
O87   O     O_3   0.371241 0.477610 0.311691 -0.364060
H17   H     H_    0.241844 0.471509 0.300830 0.385035
S18   S     S_3+6 0.358163 0.572385 0.654119 0.163060
O88   O     O_2   0.427064 0.553727 0.615782 -0.312358
O89   O     O_2   0.516839 0.598287 0.670627 -0.282181
O90   O     O_3   0.308208 0.535623 0.687343 -0.390215
H18   H     H_    0.435440 0.525730 0.696780 0.425362
S19   S     S_3+6 0.576454 0.560379 0.843126 0.185296
O91   O     O_2   0.516072 0.543585 0.882906 -0.295750
O92   O     O_2   0.409212 0.583744 0.825916 -0.260235
O93   O     O_3   0.631120 0.521922 0.811933 -0.363360
H19   H     H_    0.754155 0.529480 0.798996 0.384048
S20   S     S_3+6 0.641871 0.427615 0.154098 0.163364
O94   O     O_2   0.572943 0.446256 0.115754 -0.312436
O95   O     O_2   0.483211 0.401718 0.170623 -0.282067
O96   O     O_3   0.691831 0.464392 0.187303 -0.389910
H20   H     H_    0.564599 0.474295 0.196730 0.425874
S21   S     S_3+6 0.926052 0.065253 0.146437 0.150899
O97   O     O_2   0.980284 0.050051 0.105587 -0.314593
O98   O     O_2   0.092752 0.088870 0.163020 -0.295158
O99   O     O_3   0.880014 0.026132 0.177188 -0.387165
H21   H     H_    0.008276 0.015687 0.185374 0.423408
S22   S     S_3+6 0.842967 0.931376 0.840805 0.164434
O100  O     O_2   0.907241 0.951853 0.878508 -0.310411
O101  O     O_2   0.005999 0.905361 0.825688 -0.282783
O102  O     O_3   0.789980 0.966639 0.806103 -0.395442
H22   H     H_    0.916234 0.977448 0.797464 0.421121
S23   S     S_3+6 0.073930 0.934748 0.646446 0.150940
O103  O     O_2   0.019649 0.949945 0.605597 -0.314424
O104  O     O_2   0.907244 0.911134 0.663042 -0.295288
O105  O     O_3   0.120047 0.973872 0.677189 -0.387132
H23   H     H_    0.991823 0.984178 0.685567 0.423284
S24   S     S_3+6 0.156973 0.068627 0.340794 0.164497
O106  O     O_2   0.092663 0.048150 0.378495 -0.310406
O107  O     O_2   0.993955 0.094643 0.325670 -0.282739
O108  O     O_3   0.209989 0.033364 0.306095 -0.395390
H24   H     H_    0.083744 0.022551 0.297457 0.421190
Br1   Br    Br    0.298913 0.381868 0.266447 -0.312042
Br2   Br    Br    0.211085 0.627272 0.729595 -0.277207
Br3   Br    Br    0.701194 0.618196 0.766347 -0.316256
Br4   Br    Br    0.788957 0.372740 0.229587 -0.276630
Br5   Br    Br    0.799150 0.115416 0.228350 -0.282977
Br6   Br    Br    0.710215 0.872007 0.767648 -0.289325
Br7   Br    Br    0.200874 0.884583 0.728357 -0.283322
Br8   Br    Br    0.289804 0.127997 0.267639 -0.289238
S25   S     S_3+6 0.006178 0.299392 0.398045 0.159543
O109  O     O_2   0.124546 0.311171 0.433777 -0.250484
O110  O     O_2   0.810692 0.286965 0.412728 -0.231030
O111  O     O_3   0.121531 0.261211 0.374626 -0.465491
H25   H     H_    0.201450 0.247848 0.395413 0.407210
S26   S     S_3+6 0.656396 0.693542 0.624568 0.147159
O112  O     O_2   0.601425 0.694581 0.581127 -0.217823
O113  O     O_2   0.481079 0.684159 0.649177 -0.280541
O114  O     O_3   0.740826 0.739515 0.637242 -0.480027
H26   H     H_    0.859421 0.742924 0.621114 0.338491
S27   S     S_3+6 0.994505 0.700501 0.898023 0.159560
O115  O     O_2   0.876609 0.688730 0.933825 -0.250397
O116  O     O_2   0.190250 0.712893 0.912584 -0.231110
O117  O     O_3   0.878914 0.738697 0.874688 -0.465507
H27   H     H_    0.799221 0.752050 0.895519 0.407347
S28   S     S_3+6 0.343654 0.306455 0.124574 0.147116
O118  O     O_2   0.398693 0.305413 0.081136 -0.217799
O119  O     O_2   0.518939 0.315835 0.149191 -0.280619
O120  O     O_3   0.259194 0.260482 0.137244 -0.480026
H28   H     H_    0.140634 0.257073 0.121107 0.338540
S29   S     S_3+6 0.590559 0.205976 0.101712 0.157256
O121  O     O_2   0.756227 0.189895 0.077348 -0.258369
O122  O     O_2   0.437526 0.221300 0.073658 -0.211080
O123  O     O_3   0.675099 0.243674 0.130387 -0.475015
H29   H     H_    0.760870 0.259501 0.112654 0.381798
S30   S     S_3+6 0.159662 0.809514 0.875703 0.137060
O124  O     O_2   0.970192 0.818994 0.855923 -0.278563
O125  O     O_2   0.232643 0.769176 0.861406 -0.310202
O126  O     O_3   0.127365 0.806614 0.925477 -0.402575
H30   H     H_    0.255778 0.799289 0.936358 0.380968
S31   S     S_3+6 0.409463 0.794023 0.601715 0.157230
O127  O     O_2   0.243790 0.810100 0.577350 -0.258380
O128  O     O_2   0.562507 0.778702 0.573662 -0.211082
O129  O     O_3   0.324940 0.756325 0.630394 -0.475026
H31   H     H_    0.239151 0.740499 0.612665 0.381766
S32   S     S_3+6 0.840345 0.190472 0.375698 0.137162
O130  O     O_2   0.029758 0.180984 0.355897 -0.278540
O131  O     O_2   0.767393 0.230818 0.361414 -0.310261
O132  O     O_3   0.872754 0.193357 0.425468 -0.402406
H32   H     H_    0.744357 0.200669 0.436367 0.380970
Br9   Br    Br    0.744459 0.385009 0.422429 -0.234038
Br10  Br    Br    0.678840 0.609697 0.567967 -0.247702
Br11  Br    Br    0.255534 0.614819 0.922346 -0.234633
Br12  Br    Br    0.321155 0.390279 0.067936 -0.247835
Br13  Br    Br    0.238241 0.130055 0.075246 -0.228354
Br14  Br    Br    0.162477 0.895619 0.926740 -0.270441
Br15  Br    Br    0.761721 0.869955 0.575239 -0.228372
Br16  Br    Br    0.837414 0.104364 0.426741 -0.270545

loop_
_geom_bond_atom_site_label_1
_geom_bond_atom_site_label_2
_ccdc_geom_bond_type
C56   S8    S    
C10   N2    A    
S12   O72   S    
C90   S26   S    
O15   V4    S    
O16   V3    S    
S3    O44   D    
C26   C50   A    
S23   O103  D    
S20   O96   S    
O87   H17   S    
C30   C38   A    
O105  H23   S    
C95   S31   S    
C103  Br15  S    
C8    C81   S    
S28   O120  S    
S32   O130  D    
C51   S3    S    
C99   C107  A    
C73   C81   A    
S29   O122  D    
O60   H8    S    
N1    C17   A    
S1    O38   D    
S5    O50   D    
O17   V1    S    
C77   Br5   S    
C67   C75   A    
O19   V3    S    
S7    O55   D    
C79   Br7   S    
O20   V4    S    
C80   Br8   S    
C25   C33   A    
S10   O64   D    
C14   C46   A    
S30   O124  D    
C7    C82   S    
C5    C84   S    
O78   H14   S    
O10   V2    S    
C98   C106  A    
O12   C4    A    
O13   C5    A    
C29   C53   A    
C9    C41   A    
O6    V2    S    
C31   C39   A    
C67   C107  A    
C12   N4    A    
C13   N5    A    
N3    C108  S    
C82   C90   A    
C71   S23   S    
C102  Br14  S    
C15   N7    A    
C68   S20   S    
C21   O33   S    
C16   N8    A    
O1    C4    A    
C23   O35   S    
O2    C3    A    
C27   C51   A    
S8    O58   D    
O7    C6    A    
C51   C59   A    
C29   C37   A    
S7    O57   S    
C47   C64   A    
O10   C2    A    
S32   O132  S    
S15   O81   S    
C9    O21   S    
C37   C38   A    
C68   C108  A    
O114  H26   S    
C81   C89   A    
C78   C86   A    
C71   C111  A    
C72   C112  A    
S25   O109  D    
S6    O52   D    
C66   C106  A    
O17   V3    S    
S31   O128  D    
O18   V4    S    
O12   V1    S    
O19   V1    S    
C37   C45   A    
C39   C47   A    
C3    C86   S    
C30   C54   A    
O90   H18   S    
O8    V1    S    
S12   O71   D    
C41   C58   A    
S21   O97   D    
C67   S19   S    
C34   C42   A    
C45   C62   A    
O1    V3    S    
C17   C25   A    
O51   H5    S    
C22   O34   S    
O2    V4    S    
S17   O85   D    
O45   H3    S    
C20   C28   A    
C27   C35   A    
C21   C29   A    
C102  C110  A    
O99   H21   S    
C23   C31   A    
C24   C32   A    
C11   N3    A    
C92   S28   S    
N4    C20   A    
S4    O47   D    
N5    C21   A    
S2    O41   D    
S9    O62   D    
O54   H6    S    
C73   Br1   S    
S8    O60   S    
C72   S24   S    
C76   Br4   S    
C59   S11   S    
S19   O93   S    
S31   O127  D    
C55   C63   A    
C103  C111  A    
S13   O73   D    
O66   H10   S    
C48   C63   A    
C97   Br9   S    
S22   O101  D    
N2    C18   A    
C19   O31   S    
O18   V2    S    
C93   S29   S    
C78   Br6   S    
C35   C43   A    
S4    O48   S    
S18   O88   D    
S4    O46   D    
C53   S5    S    
S22   O102  S    
S21   O99   S    
C36   C44   A    
C65   S17   S    
S16   O84   S    
S17   O87   S    
O14   C6    A    
C49   C57   A    
C39   C40   A    
C96   C104  A    
C13   O25   S    
C90   C98   A    
C95   C103  A    
O129  H31   S    
S27   O117  S    
C14   N6    A    
C83   C91   A    
C44   C59   A    
S11   O69   S    
C65   C73   A    
O63   H9    S    
S32   O131  D    
S14   O76   D    
C52   C60   A    
C69   C77   A    
S18   O90   S    
C71   C79   A    
S23   O105  S    
C56   C64   A    
C6    C83   S    
O84   H16   S    
O75   H13   S    
S1    O37   D    
S19   O91   D    
S5    O49   D    
O11   C3    A    
C89   C97   A    
O39   H1    S    
C63   S15   S    
S13   O75   S    
C80   C88   A    
S26   O112  D    
S10   O65   D    
S30   O125  D    
S25   O111  S    
S23   O104  D    
O42   H2    S    
C58   S10   S    
O11   V2    S    
O108  H24   S    
C69   S21   S    
S30   O126  S    
O57   H7    S    
O7    V2    S    
O102  H22   S    
S3    O45   S    
C35   C36   A    
C18   C26   A    
C100  Br12  S    
S26   O114  S    
S8    O59   D    
O72   H12   S    
C17   O29   S    
C22   C30   A    
C13   C45   A    
O120  H28   S    
C15   C47   A    
S27   O115  D    
S7    O56   D    
C91   S27   S    
O93   H19   S    
C86   C94   A    
S11   O67   D    
S24   O108  S    
C91   C99   A    
N6    C22   A    
O123  H29   S    
S15   O80   D    
C89   S25   S    
C74   Br2   S    
C10   C42   A    
O4    C1    A    
C54   S6    S    
C94   S30   S    
O81   H15   S    
S6    O53   D    
S1    O39   S    
C55   S7    S    
C50   S2    S    
S5    O51   S    
C68   C76   A    
C75   C83   A    
C49   S1    S    
O13   V3    S    
O14   V4    S    
C72   C80   A    
C15   O27   S    
C84   C92   A    
C85   C93   A    
C50   C58   A    
C9    N1    A    
C94   C102  A    
S6    O54   S    
O132  H32   S    
C88   C96   A    
N3    C19   A    
C66   S18   S    
C10   O22   S    
S16   O83   D    
C60   S12   S    
O3    V4    S    
O4    V3    S    
C62   S14   S    
O48   H4    S    
C28   C36   A    
C40   C48   A    
C18   O30   S    
C100  C108  A    
C52   S4    S    
C101  C109  A    
C32   C56   A    
C57   S9    S    
S3    O43   D    
C104  C112  A    
C38   C46   A    
S9    O61   D    
C92   C100  A    
C99   Br11  S    
C93   C101  A    
S29   O121  D    
S16   O82   D    
C76   C84   A    
C42   C57   A    
O111  H25   S    
S19   O92   D    
C46   C61   A    
C33   C41   A    
O3    C2    A    
C101  Br13  S    
C54   C62   A    
C70   S22   S    
C26   C34   A    
C16   C48   A    
C4    C85   S    
C12   C44   A    
O9    V1    S    
C14   O26   S    
C97   C105  A    
O15   C7    A    
S31   O129  S    
O16   C8    A    
C53   C61   A    
C11   O23   S    
O5    V1    S    
N7    C112  S    
N8    C111  S    
S18   O89   D    
C69   C109  A    
N2    C105  S    
S12   O70   D    
C12   O24   S    
S21   O98   D    
O69   H11   S    
N6    C109  S    
C104  Br16  S    
S20   O95   D    
S17   O86   D    
C96   S32   S    
C16   O28   S    
S20   O94   D    
C1    C88   S    
O8    C5    A    
C64   S16   S    
C2    C87   S    
C98   Br10  S    
S24   O106  D    
S27   O116  D    
C43   C60   A    
O9    C1    A    
S28   O118  D    
S11   O68   D    
S24   O107  D    
S14   O77   D    
S2    O40   D    
S9    O63   S    
C25   C49   A    
C19   C27   A    
O96   H20   S    
N7    C23   A    
N1    C106  S    
S29   O123  S    
C77   C85   A    
N8    C24   A    
O117  H27   S    
C31   C55   A    
N4    C107  S    
N5    C110  S    
C11   C43   A    
C65   C105  A    
S14   O78   S    
O20   V2    S    
S13   O74   D    
C75   Br3   S    
S26   O113  D    
C28   C52   A    
S10   O66   S    
O5    C8    A    
O6    C7    A    
S28   O119  D    
C87   C95   A    
S25   O110  D    
C24   O36   S    
C32   C40   A    
O126  H30   S    
C79   C87   A    
C70   C110  A    
S22   O100  D    
C66   C74   A    
C20   O32   S    
S2    O42   S    
C33   C34   A    
S15   O79   D    
C61   S13   S    
C70   C78   A    
C74   C82   A    
