data_mof_unit_17179.cif
_audit_creation_date              2012-10-26T18:29:32-0400
_audit_creation_method            fapswitch 2.2
_symmetry_space_group_name_H-M    P1
_symmetry_Int_Tables_number       1
_space_group_crystal_system       triclinic
_cell_length_a                    11.662548
_cell_length_b                    12.957263
_cell_length_c                    11.821248
_cell_angle_alpha                 99.273626
_cell_angle_beta                  94.234696
_cell_angle_gamma                 92.242675
_cell_volume                      1755.83854809

loop_
_atom_site_label
_atom_site_type_symbol
_atom_type_description
_atom_site_fract_x
_atom_site_fract_y
_atom_site_fract_z
_atom_type_partial_charge
C1    C     C_R   0.496673 0.299524 0.479047 0.567119
C2    C     C_R   0.453127 0.472167 0.967486 -0.091860
C3    C     C_R   0.284237 0.500078 0.499791 0.528200
C4    C     C_R   0.715737 0.499699 0.500077 0.541960
C5    C     C_1   0.162483 0.499751 0.499490 -0.035434
C6    C     C_1   0.837412 0.498785 0.499731 -0.019970
C7    C     C_1   0.059849 0.499176 0.499385 -0.070766
C8    C     C_1   0.939987 0.498574 0.499272 -0.062348
C9    C     C_R   0.462116 0.811208 0.527368 -0.043391
C10   C     C_R   0.488095 0.185707 0.466183 -0.051542
C11   C     C_R   0.521647 0.017382 0.354672 0.288914
C12   C     C_R   0.489404 0.699788 0.520240 0.571196
C13   C     C_R   0.393056 0.974292 0.625417 0.286959
C14   C     C_R   0.538330 0.126310 0.374432 0.196722
C15   C     C_R   0.421609 0.868753 0.627234 0.206995
C16   C     C_R   0.428831 0.136264 0.544253 0.223349
C17   C     C_R   0.467805 0.858800 0.428525 0.222478
C18   C     C_R   0.432540 0.026894 0.538119 -0.080641
C19   C     C_R   0.474482 0.967672 0.439970 -0.087870
C20   C     C_3   0.349646 0.776331 0.277487 -0.103072
C21   C     C_3   0.265605 0.220942 0.583400 -0.057282
C22   C     C_3   0.432764 0.872115 0.825257 -0.106971
C23   C     C_R   0.374731 0.416790 0.023717 0.197898
C24   C     C_3   0.717999 0.185849 0.347047 -0.097170
C25   C     C_3   0.505199 0.969183 0.159161 -0.082177
C26   C     C_3   0.214029 0.989582 0.688306 -0.125196
C27   C     C_3   0.252055 0.527167 0.816364 -0.073062
C28   C     C_3   0.659888 0.687207 0.219624 -0.007491
C29   C     C_R   0.713721 0.618036 0.805063 0.125886
C30   C     C_R   0.694427 0.720774 0.788563 -0.069276
C31   C     C_R   0.781280 0.782963 0.753457 -0.128184
C32   C     C_R   0.890015 0.744066 0.738108 -0.110603
C33   C     C_R   0.911760 0.643005 0.757881 -0.114433
C34   C     C_R   0.644484 0.547952 0.970057 0.205724
C35   C     C_R   0.824232 0.580024 0.790894 -0.036407
C36   C     C_R   0.300035 0.363467 0.195398 0.127330
C37   C     C_R   0.188967 0.401041 0.204320 -0.041276
C38   C     C_R   0.101897 0.340941 0.242262 -0.116347
C39   C     C_R   0.124388 0.242332 0.269653 -0.123656
C40   C     C_R   0.232983 0.202414 0.255906 -0.145004
C41   C     C_R   0.319582 0.261749 0.216386 -0.075153
C42   C     C_3   0.324589 0.257006 0.917007 -0.051019
C43   C     C_3   0.806449 0.475318 0.034969 -0.100653
C44   C     C_R   0.388078 0.422878 0.144414 0.076538
C45   C     C_R   0.623829 0.556976 0.852553 0.078465
C46   C     C_R   0.562066 0.527250 0.155099 0.406900
C47   C     C_R   0.435168 0.479554 0.847606 0.409924
C48   C     C_R   0.553988 0.516818 0.031618 -0.095079
Cu1   Cu    Cu3+1 0.508350 0.507730 0.615930 1.006857
Cu2   Cu    Cu3+1 0.491650 0.492270 0.384070 1.002281
H1    H     H_    0.304126 0.727063 0.330787 0.124062
H2    H     H_    0.754401 0.108283 0.351231 0.132962
H3    H     H_    0.727791 0.235817 0.433456 0.098711
H4    H     H_    0.769026 0.225179 0.289163 0.131521
H5    H     H_    0.530079 0.043504 0.129896 0.152403
H6    H     H_    0.410497 0.963740 0.166252 0.087325
H7    H     H_    0.525309 0.904113 0.091593 0.108736
H8    H     H_    0.201551 0.909969 0.710346 0.144949
H9    H     H_    0.180744 0.989079 0.597438 0.093855
H10   H     H_    0.161183 0.042570 0.743816 0.113752
H11   H     H_    0.169218 0.503887 0.764570 0.125604
H12   H     H_    0.347825 0.731135 0.189215 0.115638
H13   H     H_    0.283990 0.603232 0.794798 0.133289
H14   H     H_    0.233933 0.537899 0.908394 0.116489
H15   H     H_    0.588459 0.714093 0.165249 0.135007
H16   H     H_    0.742534 0.711828 0.188817 0.154100
H17   H     H_    0.659859 0.728644 0.309215 0.183415
H18   H     H_    0.612577 0.752983 0.804504 0.125149
H19   H     H_    0.764680 0.861830 0.739830 0.100124
H20   H     H_    0.957611 0.792435 0.711763 0.101592
H21   H     H_    0.996227 0.613140 0.746750 0.097247
H22   H     H_    0.842245 0.501342 0.803611 0.099228
H23   H     H_    0.302903 0.848911 0.272272 0.090327
H24   H     H_    0.170299 0.477025 0.182501 0.092882
H25   H     H_    0.017018 0.370869 0.250479 0.106269
H26   H     H_    0.057158 0.196204 0.299737 0.097950
H27   H     H_    0.249688 0.124977 0.274396 0.090262
H28   H     H_    0.401543 0.228039 0.200951 0.141991
H29   H     H_    0.356837 0.214622 0.986483 0.082082
H30   H     H_    0.393313 0.264637 0.858081 0.195829
H31   H     H_    0.251987 0.208504 0.866795 0.164684
H32   H     H_    0.796294 0.417085 0.954156 0.085732
H33   H     H_    0.771217 0.439875 0.105417 0.162070
H34   H     H_    0.215118 0.150983 0.534879 0.077352
H35   H     H_    0.900040 0.492229 0.057733 0.132804
H36   H     H_    0.275147 0.280467 0.526513 0.123309
H37   H     H_    0.215089 0.255098 0.654855 0.160174
H38   H     H_    0.365335 0.922335 0.861818 0.155397
H39   H     H_    0.514727 0.919239 0.824737 0.108471
H40   H     H_    0.448379 0.815237 0.884783 0.094578
N1    N     N_R   0.520920 0.519350 0.790130 -0.263763
N2    N     N_R   0.479080 0.480650 0.209870 -0.255657
O1    O     O_R   0.505930 0.354460 0.582000 -0.456380
O2    O     O_3   0.373811 0.195423 0.630289 -0.505085
O3    O     O_3   0.393466 0.815663 0.715760 -0.566600
O4    O     O_3   0.602083 0.174691 0.301706 -0.561404
O5    O     O_3   0.569389 0.959080 0.262589 -0.520184
O6    O     O_3   0.330503 0.026532 0.709787 -0.541813
O7    O     O_3   0.329892 0.447510 0.788959 -0.493356
O8    O     O_3   0.657058 0.578189 0.220995 -0.522525
O9    O     O_3   0.283945 0.355264 0.961892 -0.565231
O10   O     O_3   0.754798 0.570322 0.022709 -0.567759
O11   O     O_R   0.494070 0.645540 0.418000 -0.459705
O12   O     O_R   0.491820 0.341410 0.386200 -0.481717
O13   O     O_R   0.508180 0.658590 0.613800 -0.475843
O14   O     O_R   0.344250 0.506540 0.597900 -0.453600
O15   O     O_R   0.655750 0.493460 0.402100 -0.439314
O16   O     O_R   0.330140 0.493480 0.402100 -0.523335
O17   O     O_R   0.669860 0.506520 0.597900 -0.520259
O18   O     O_3   0.465623 0.799495 0.320195 -0.532152

loop_
_geom_bond_atom_site_label_1
_geom_bond_atom_site_label_2
_ccdc_geom_bond_type
C24   H2    S    
C4    O17   A    
C21   H37   S    
C42   H30   S    
C43   H33   S    
C22   O3    S    
C25   H6    S    
C37   H24   S    
C17   O18   S    
C7    C8    S    
C23   O9    S    
Cu2   O12   S    
C11   C19   A    
C29   C30   A    
C13   C18   A    
C6    C8    T    
C36   C37   A    
C20   H1    S    
C24   O4    S    
C15   O3    S    
C30   C31   A    
C11   C14   A    
C46   N2    A    
C21   O2    S    
C24   H4    S    
C47   O7    S    
C18   C19   A    
C13   O6    S    
C27   H11   S    
C33   C35   A    
C22   H38   S    
C26   H9    S    
C44   N2    A    
C28   O8    S    
C42   H29   S    
Cu2   O16   S    
C36   C41   A    
C42   H31   S    
C25   H7    S    
Cu1   N1    S    
C14   O4    S    
C38   H25   S    
C3    O14   A    
C38   C39   A    
C4    O15   A    
C46   C48   A    
C43   H35   S    
C28   H17   S    
C12   O11   A    
C4    C6    S    
C10   C14   A    
C41   H28   S    
C5    C7    T    
C32   H20   S    
C2    C48   A    
C24   H3    S    
C23   C44   A    
C29   C45   S    
C28   H16   S    
C37   C38   A    
C31   C32   A    
C21   H34   S    
C31   H19   S    
C27   O7    S    
C22   H40   S    
C34   C45   A    
C34   O10   S    
C39   H26   S    
C26   H8    S    
C1    O12   A    
C27   H13   S    
C26   O6    S    
C20   O18   S    
C25   O5    S    
C40   C41   A    
C35   H22   S    
C13   C15   A    
Cu2   O15   S    
C3    O16   A    
C36   C44   S    
C34   C48   A    
C42   O9    S    
C39   C40   A    
Cu1   O17   S    
C9    C17   A    
C46   O8    S    
C21   H36   S    
Cu2   N2    S    
C47   N1    A    
C16   C18   A    
C1    C10   S    
C25   H5    S    
C3    C5    S    
Cu1   O13   S    
Cu1   O14   S    
C2    C47   A    
C29   C35   A    
C16   O2    S    
C11   O5    S    
C32   C33   A    
C28   H15   S    
C9    C15   A    
C43   O10   S    
C10   C16   A    
C12   O13   A    
C17   C19   A    
C22   H39   S    
C20   H23   S    
C20   H12   S    
C45   N1    A    
C9    C12   S    
C27   H14   S    
C33   H21   S    
Cu2   O11   S    
C1    O1    A    
Cu1   Cu2   S    
C2    C23   A    
C43   H32   S    
C40   H27   S    
Cu1   O1    S    
C26   H10   S    
C30   H18   S    
