data_mof_unit_28366.cif
_audit_creation_date              2013-03-05T15:41:43-0500
_audit_creation_method            fapswitch 2.2
_symmetry_space_group_name_H-M    P1
_symmetry_Int_Tables_number       1
_space_group_crystal_system       triclinic
_cell_length_a                    6.941072
_cell_length_b                    13.753549
_cell_length_c                    20.367779
_cell_angle_alpha                 102.097815
_cell_angle_beta                  90.413415
_cell_angle_gamma                 90.396695
_cell_volume                      1901.09434769

loop_
_atom_site_label
_atom_site_type_symbol
_atom_site_description
_atom_site_fract_x
_atom_site_fract_y
_atom_site_fract_z
_atom_type_partial_charge
O1    O     O_R   0.506860 0.599390 0.449240 -0.560111
O2    O     O_R   0.180220 0.594600 0.586780 -0.568783
O3    O     O_R   0.004500 0.400610 0.550760 -0.573403
C1    C     C_R   0.348893 0.614600 0.614060 0.846980
O4    O     O_R   0.177490 0.611290 0.451970 -0.546456
O5    O     O_R   0.001750 0.417420 0.414990 -0.534205
C2    C     C_R   0.346523 0.636106 0.433738 0.866102
O6    O     O_R   0.509610 0.582580 0.585010 -0.550320
O7    O     O_3   0.337420 0.436370 0.488020 -0.277781
V1    V     V_3+5 0.064680 0.511800 0.502220 1.183678
O8    O     O_R   0.671710 0.405400 0.413220 -0.565694
C3    C     C_R   0.839648 0.386036 0.385807 0.869736
O9    O     O_R   0.674440 0.388710 0.548030 -0.562106
C4    C     C_R   0.843855 0.361700 0.563843 0.801891
V2    V     V_3+5 0.564010 0.488200 0.497780 1.178372
O10   O     O_3   0.841140 0.563630 0.511980 -0.270079
C5    C     C_R   0.914775 0.107603 0.603158 -0.008887
H1    H     H_    0.916859 0.981314 0.687249 0.092434
C6    C     C_R   0.857149 0.280230 0.599286 -0.136887
C7    C     C_R   0.842424 0.306040 0.922071 -0.125520
C8    C     C_R   0.832720 0.381296 0.886214 -0.016836
C9    C     C_R   0.840435 0.357105 0.816074 -0.067097
C10   C     C_R   0.851634 0.256954 0.780057 0.042132
C11   C     C_R   0.858483 0.179654 0.817284 -0.042784
C12   C     C_R   0.859198 0.232086 0.708091 0.059729
C13   C     C_R   0.891856 0.132375 0.674251 -0.019519
C14   C     C_R   0.899639 0.058451 0.711905 -0.082714
C15   C     C_R   0.872108 0.079370 0.780998 -0.059397
C16   C     C_R   0.835043 0.303705 0.668621 -0.097650
C17   C     C_R   0.900483 0.182867 0.565304 -0.063622
C18   C     C_R   0.857099 0.206658 0.889170 -0.083290
H2    H     H_    0.797461 0.379518 0.689978 0.049261
H3    H     H_    0.838964 0.324962 0.976536 0.056806
H4    H     H_    0.842296 0.418834 0.791278 0.099070
C19   C     C_2   0.001540 0.285994 0.282706 -0.118843
C20   C     C_2   0.843504 0.313131 0.320900 -0.164508
H5    H     H_    0.709547 0.272866 0.306329 0.088420
C21   C     C_2   0.993545 0.195211 0.228242 -0.093147
C22   C     C_2   0.864578 0.189199 0.177329 -0.190259
H6    H     H_    0.756551 0.246750 0.180201 0.068555
C23   C     C_2   0.219551 0.752802 0.794422 -0.048685
C24   C     C_2   0.357800 0.821000 0.818538 -0.135657
H7    H     H_    0.467531 0.837457 0.784544 0.056096
C25   C     C_2   0.203984 0.712236 0.720809 -0.124661
C26   C     C_2   0.358425 0.671649 0.684693 -0.219955
H8    H     H_    0.496751 0.672975 0.710189 0.099003
C27   C     C_R   0.439139 0.887418 0.390856 -0.044263
C28   C     C_R   0.362219 0.716265 0.396239 -0.130957
C29   C     C_R   0.315735 0.689281 0.073909 -0.111731
C30   C     C_R   0.331008 0.611555 0.107788 -0.038031
C31   C     C_R   0.377668 0.631467 0.176895 -0.066675
C32   C     C_R   0.386811 0.732034 0.214042 0.022098
C33   C     C_R   0.398698 0.808310 0.176616 0.022184
C34   C     C_R   0.391141 0.760084 0.286236 0.051549
C35   C     C_R   0.441029 0.859721 0.318865 -0.013033
C36   C     C_R   0.493480 0.927442 0.278014 -0.065097
C37   C     C_R   0.459785 0.903663 0.209082 -0.023260
C38   C     C_R   0.337336 0.692990 0.326743 -0.102856
C39   C     C_R   0.416501 0.812763 0.428685 -0.075328
C40   C     C_R   0.359267 0.786541 0.106621 -0.088037
H9    H     H_    0.275124 0.621318 0.305301 0.121841
H10   H     H_    0.282871 0.673185 0.020533 0.117267
H11   H     H_    0.489935 0.959957 0.180339 0.072980
O11   O     O_R   0.203230 0.917310 0.915020 -0.513432
O12   O     O_R   0.535500 0.888690 0.048040 -0.568126
O13   O     O_R   0.711080 0.082610 0.085000 -0.574928
C41   C     C_R   0.367067 0.863495 0.066111 0.854549
O14   O     O_R   0.532630 0.905370 0.913230 -0.581799
O15   O     O_R   0.708190 0.099410 0.949230 -0.582250
C42   C     C_R   0.363542 0.882779 0.887228 0.885095
O16   O     O_R   0.206120 0.900510 0.050790 -0.525954
O17   O     O_3   0.375360 0.063570 0.011990 -0.288777
V3    V     V_3+5 0.648170 0.988200 0.997780 1.180483
O18   O     O_R   0.038240 0.111390 0.951940 -0.561096
C43   C     C_R   0.869279 0.134365 0.932560 0.795744
O19   O     O_R   0.041120 0.094710 0.086750 -0.546966
C44   C     C_R   0.873107 0.114894 0.113591 0.897695
V4    V     V_3+5 0.148810 0.011930 0.002180 1.215048
O20   O     O_3   0.871750 0.936430 0.988010 -0.250970
C45   C     C_2   0.924983 0.162440 0.490614 0.589417
H12   H     H_    0.958481 0.222602 0.465553 -0.061967
O21   O     O_2   0.903334 0.079446 0.455639 -0.538612
C46   C     C_2   0.128294 0.113481 0.233519 0.534476
H13   H     H_    0.252056 0.128423 0.267006 -0.053588
O22   O     O_2   0.096833 0.028022 0.203934 -0.587111
C47   C     C_2   0.074910 0.717593 0.838111 0.587453
H14   H     H_    0.942454 0.682403 0.816116 0.025348
O23   O     O_2   0.105448 0.722627 0.897847 -0.564839
C48   C     C_1   0.016266 0.717859 0.690168 0.349297
N1    N     N_1   0.866406 0.722899 0.665878 -0.272628
C49   C     C_1   0.439478 0.834749 0.501220 0.389368
N2    N     N_1   0.458040 0.851760 0.559041 -0.269452
C50   C     C_1   0.599503 0.018413 0.303339 0.266911
N3    N     N_1   0.685510 0.090898 0.323615 -0.282061
C51   C     C_2   0.434602 0.994040 0.426149 0.623874
H15   H     H_    0.359471 0.047631 0.403295 -0.015369
O24   O     O_2   0.512533 0.023189 0.480710 -0.553422
C52   C     C_1   0.453091 0.550074 0.204289 0.274791
N4    N     N_1   0.515259 0.485055 0.225616 -0.272493
C53   C     C_1   0.306364 0.510899 0.069629 0.262925
N5    N     N_1   0.286555 0.430417 0.039057 -0.297458
C54   C     C_2   0.958934 0.003798 0.569290 0.599552
H16   H     H_    0.862742 0.943382 0.574452 0.000839
O25   O     O_2   0.106109 0.985106 0.536901 -0.557408
C55   C     C_2   0.815711 0.485637 0.923290 0.523959
H17   H     H_    0.819821 0.502834 0.977812 -0.002567
O26   O     O_2   0.794945 0.553457 0.893703 -0.574384
C56   C     C_2   0.839225 0.991847 0.810550 0.473497
H18   H     H_    0.713048 0.988411 0.840303 0.027121
O27   O     O_2   0.946838 0.920767 0.798453 -0.605281
C57   C     C_2   0.186396 0.342521 0.291179 0.558102
H19   H     H_    0.320760 0.304189 0.277131 -0.036820
O28   O     O_2   0.189597 0.432924 0.308901 -0.573847

loop_
_geom_bond_atom_site_label_1
_geom_bond_atom_site_label_2
_geom_bond_distance
_ccdc_geom_bond_type
C35   C36   1.420165 A    
C50   N3    1.156035 T    
C21   C46   1.487823 S    
C23   C24   1.352581 D    
C51   H15   1.085134 S    
C1    O6    1.302150 A    
C26   H8    1.086481 S    
C36   C37   1.390898 A    
C23   C47   1.490317 S    
C55   O26   1.220739 D    
C13   C14   1.397069 A    
C29   C40   1.393737 A    
C5    C13   1.426676 A    
C22   C44   1.476170 S    
C20   H5    1.085951 S    
O19   V4    2.007565 S    
C16   H2    1.076932 S    
O5    C3    1.296799 A    
C21   C22   1.353947 D    
C47   O23   1.220993 D    
V2    O10   2.167634 S    
C24   C42   1.476932 S    
O12   V3    2.028949 S    
C56   H18   1.074991 S    
O17   V4    1.713951 S    
O8    V2    2.007550 S    
C57   H19   1.084913 S    
C40   C41   1.473033 S    
O12   C41   1.294763 A    
C10   C11   1.430220 A    
O15   V3    2.030261 S    
O1    V2    2.027287 S    
O11   C42   1.299187 A    
C3    C20   1.482930 S    
O7    V1    2.157105 S    
C17   C45   1.499128 S    
C38   H9    1.076946 S    
C8    C9    1.398790 A    
C5    C17   1.417979 A    
C33   C40   1.418205 A    
C32   C34   1.439909 A    
C37   H11   1.084198 S    
C1    C26   1.488106 S    
C12   C16   1.406016 A    
C36   C50   1.443726 S    
C9    H4    1.075032 S    
O18   C43   1.296836 A    
H1    C14   1.082272 S    
C31   C32   1.431437 A    
C19   C21   1.486679 S    
O19   C44   1.298460 A    
C45   O21   1.219920 D    
C49   N2    1.157672 T    
O4    C2    1.298004 A    
C33   C37   1.400606 A    
V4    O20   2.167618 S    
O17   V3    2.157163 S    
C12   C13   1.420380 A    
O13   V3    2.011629 S    
C19   C20   1.357949 D    
O2    C1    1.295061 A    
C5    C54   1.484723 S    
C18   C43   1.464644 S    
C46   H13   1.084310 S    
C30   C31   1.411281 A    
V3    O20   1.707420 S    
C57   O28   1.219890 D    
C39   C49   1.451951 S    
C54   O25   1.219478 D    
O3    C4    1.287063 A    
C7    H3    1.085542 S    
C46   O22   1.220630 D    
C52   N4    1.157588 T    
O6    V2    2.008460 S    
O9    V2    2.024258 S    
C23   C25   1.488998 S    
C24   H7    1.087043 S    
O2    V1    2.012863 S    
C22   H6    1.087021 S    
C19   C57   1.485692 S    
C32   C33   1.422443 A    
C47   H14   1.085001 S    
C28   C39   1.400693 A    
C27   C35   1.435800 A    
C34   C38   1.410847 A    
O13   C44   1.294731 A    
C34   C35   1.431032 A    
C29   H10   1.085241 S    
O1    C2    1.289498 A    
O11   V4    2.008949 S    
C4    C6    1.457634 S    
C25   C26   1.359936 D    
C11   C15   1.425865 A    
C45   H12   1.084131 S    
O5    V1    2.011621 S    
O8    C3    1.301087 A    
C51   O24   1.220598 D    
C28   C38   1.393433 A    
C55   H17   1.085949 S    
C30   C53   1.446930 S    
C2    C28   1.470767 S    
O14   V3    2.012872 S    
C11   C18   1.433221 A    
O4    V1    2.028978 S    
O3    V1    2.030121 S    
V1    O10   1.707489 S    
C31   C52   1.450609 S    
C53   N5    1.157434 T    
C56   O27   1.219080 D    
O15   C43   1.289605 A    
C41   O16   1.293831 A    
C10   C12   1.435092 A    
O7    V2    1.715186 S    
C54   H16   1.085016 S    
C15   C56   1.471490 S    
C27   C39   1.415536 A    
C7    C8    1.387911 A    
O14   C42   1.292861 A    
C29   C30   1.392805 A    
O18   V4    2.024172 S    
C14   C15   1.390899 A    
C27   C51   1.492389 S    
C9    C10   1.421360 A    
C48   N1    1.157370 T    
O9    C4    1.294315 A    
C6    C17   1.408108 A    
O16   V4    2.031138 S    
C8    C55   1.480876 S    
C25   C48   1.450201 S    
C7    C18   1.395239 A    
C6    C16   1.390963 A    
