data_mof_unit_23364.cif
_audit_creation_date              2012-12-10T18:57:14-0500
_audit_creation_method            fapswitch 2.2
_symmetry_space_group_name_H-M    P1
_symmetry_Int_Tables_number       1
_space_group_crystal_system       triclinic
_cell_length_a                    8.713798
_cell_length_b                    10.834312
_cell_length_c                    9.559283
_cell_angle_alpha                 90.552537
_cell_angle_beta                  98.092248
_cell_angle_gamma                 90.48706
_cell_volume                      893.400823972

loop_
_atom_site_label
_atom_site_type_symbol
_atom_type_description
_atom_site_fract_x
_atom_site_fract_y
_atom_site_fract_z
_atom_type_partial_charge
C1    C     C_R   0.495602 0.262423 0.498747 0.797482
C2    C     C_R   0.472037 0.934366 0.367768 -0.219901
C3    C     C_R   0.479120 0.870984 0.496488 -0.096057
C4    C     C_R   0.460682 0.938188 0.618286 0.133860
C5    C     C_3   0.551513 0.936298 0.762755 -0.500497
C6    C     C_3   0.549148 0.076107 0.761675 -0.454972
C7    C     C_R   0.629368 0.534353 0.091225 0.230505
C8    C     C_R   0.377702 0.453896 0.058049 -0.096625
C9    C     C_R   0.377545 0.454094 0.909421 -0.090700
C10   C     C_R   0.631200 0.533385 0.944034 0.216253
C11   C     C_3   0.715339 0.656139 0.955389 -0.171751
C12   C     C_R   0.203839 0.499613 0.463681 0.880520
C13   C     C_3   0.710898 0.654851 0.113986 -0.498793
C14   C     C_R   0.496532 0.737796 0.499846 0.795431
C15   C     C_R   0.796180 0.499710 0.536288 0.877528
C16   C     C_2   0.037787 0.498788 0.443812 -0.366158
C17   C     C_2   0.962306 0.499467 0.556107 -0.386497
C18   C     C_R   0.459642 0.065301 0.617153 0.127609
C19   C     C_R   0.477175 0.129470 0.494603 -0.097241
C20   C     C_R   0.471255 0.063121 0.366843 -0.221668
Cu1   Cu    Cu3+1 0.499990 0.499980 0.640670 0.930641
Cu2   Cu    Cu3+1 0.500010 0.500020 0.359330 0.934253
H1    H     H_    0.977562 0.497379 0.336243 0.164660
H2    H     H_    0.277237 0.418473 0.841129 0.141900
H3    H     H_    0.643560 0.729391 0.900994 0.177323
H4    H     H_    0.825037 0.644963 0.180804 0.191109
H5    H     H_    0.636515 0.728282 0.149556 0.194189
H6    H     H_    0.022776 0.500062 0.663650 0.164407
H7    H     H_    0.474813 0.109948 0.267736 0.165834
H8    H     H_    0.475482 0.885433 0.268972 0.160637
H9    H     H_    0.483292 0.896562 0.841655 0.195280
H10   H     H_    0.669663 0.898668 0.762293 0.193112
H11   H     H_    0.478980 0.116421 0.838975 0.197063
H12   H     H_    0.665774 0.118787 0.762142 0.199597
H13   H     H_    0.277495 0.418201 0.099968 0.140665
N1    N     N_R   0.500980 0.500930 0.148050 -0.181501
N2    N     N_R   0.500990 0.500890 0.852140 -0.191084
O1    O     O_R   0.500000 0.319640 0.618810 -0.579335
O2    O     O_R   0.500020 0.319680 0.381230 -0.585544
O3    O     O_R   0.274830 0.499980 0.591380 -0.582603
O4    O     O_R   0.274850 0.500020 0.353800 -0.595415
O5    O     O_R   0.499980 0.680320 0.618770 -0.581613
O6    O     O_R   0.500000 0.680360 0.381190 -0.586480
O7    O     O_R   0.725150 0.499980 0.646200 -0.601202
O8    O     O_R   0.725170 0.500020 0.408620 -0.571186
C21   C     C_3   0.881205 0.651531 0.916761 -0.357425
C22   C     C_3   0.974886 0.769262 0.963255 -0.359869
C23   C     C_3   0.136293 0.764618 0.918511 -0.843690
H14   H     H_    0.202154 0.685837 0.969458 0.259984
H15   H     H_    0.127799 0.754647 0.801868 0.256318
H16   H     H_    0.200681 0.851325 0.951717 0.235967
H17   H     H_    0.913359 0.851091 0.914766 0.215396
H18   H     H_    0.988046 0.780709 0.079900 0.228048
H19   H     H_    0.943201 0.569427 0.964684 0.192236
H20   H     H_    0.873802 0.644149 0.800729 0.219998

loop_
_geom_bond_atom_site_label_1
_geom_bond_atom_site_label_2
_ccdc_geom_bond_type
C21   H20   S    
C12   O3    A    
C7    C10   A    
C9    H2    S    
C22   H17   S    
Cu1   O7    S    
Cu2   N1    S    
C7    N1    A    
C1    O2    A    
Cu2   O6    S    
C6    H11   S    
C22   H18   S    
C14   O5    A    
C5    H10   S    
C4    C18   A    
C21   H19   S    
C23   H15   S    
C2    C3    A    
C3    C4    A    
Cu1   Cu2   S    
C4    C5    S    
C11   C13   S    
C16   C17   D    
C3    C14   S    
C1    O1    A    
C10   N2    A    
C12   C16   S    
Cu2   O2    S    
C9    N2    A    
C23   H14   S    
C15   O7    A    
C16   H1    S    
C20   H7    S    
C8    N1    A    
C5    C6    S    
C6    C18   S    
C13   H4    S    
C1    C19   S    
Cu2   O4    S    
C2    H8    S    
C11   H3    S    
C2    C20   A    
Cu1   O5    S    
C22   C23   S    
C6    H12   S    
C7    C13   S    
Cu2   O8    S    
Cu1   N2    S    
C12   O4    A    
C18   C19   A    
C10   C11   S    
C15   C17   S    
C15   O8    A    
C21   C22   S    
C8    C9    A    
C11   C21   S    
C17   H6    S    
C23   H16   S    
C13   H5    S    
Cu1   O1    S    
C19   C20   A    
C14   O6    A    
C5    H9    S    
C8    H13   S    
Cu1   O3    S    
