data_mof_unit_17626.cif
_audit_creation_date              2012-12-10T17:51:32-0500
_audit_creation_method            fapswitch 2.2
_symmetry_space_group_name_H-M    P1
_symmetry_Int_Tables_number       1
_space_group_crystal_system       triclinic
_cell_length_a                    9.914377
_cell_length_b                    10.670459
_cell_length_c                    16.614403
_cell_angle_alpha                 92.190382
_cell_angle_beta                  84.451735
_cell_angle_gamma                 90.212985
_cell_volume                      1748.14089192

loop_
_atom_site_label
_atom_site_type_symbol
_atom_type_description
_atom_site_fract_x
_atom_site_fract_y
_atom_site_fract_z
_atom_type_partial_charge
C1    C     C_R   0.500695 0.739123 0.496585 0.848437
C2    C     C_R   0.534173 0.538714 0.263459 -0.038437
C3    C     C_R   0.357657 0.859967 0.375053 -0.177766
C4    C     C_R   0.480027 0.505184 0.653687 0.852896
C5    C     C_R   0.282213 0.920808 0.321824 -0.126575
C6    C     C_R   0.274651 0.050799 0.324881 -0.151100
C7    C     C_R   0.344710 0.120334 0.380065 -0.199713
C8    C     C_R   0.422571 0.060504 0.434587 0.101223
C9    C     C_R   0.426611 0.928960 0.433115 0.092306
C10   C     C_R   0.502561 0.870749 0.488931 -0.100463
C11   C     C_R   0.580559 0.938796 0.540428 -0.212431
C12   C     C_R   0.333500 0.553737 0.780494 -0.204192
C13   C     C_R   0.579841 0.066647 0.540345 -0.203947
C14   C     C_R   0.499700 0.127276 0.489569 -0.112803
C15   C     C_R   0.844018 0.666194 0.606055 -0.166453
C16   C     C_R   0.500084 0.260288 0.495929 0.873483
C17   C     C_R   0.906293 0.746697 0.658954 -0.211151
C18   C     C_R   0.045812 0.745317 0.659599 -0.190124
C19   C     C_R   0.123931 0.663812 0.607090 -0.158046
C20   C     C_R   0.064311 0.581040 0.552643 0.164910
C21   C     C_R   0.919767 0.581576 0.552366 0.176177
C22   C     C_R   0.936330 0.422349 0.449636 -0.114436
C23   C     C_R   0.483348 0.512237 0.125316 -0.174038
C24   C     C_R   0.079416 0.422593 0.449525 -0.108692
C25   C     C_R   0.519954 0.502231 0.346818 0.818652
C26   C     C_R   0.463891 0.537197 0.740305 -0.038862
C27   C     C_R   0.577741 0.566337 0.781111 -0.228276
C28   C     C_R   0.561662 0.611312 0.860918 -0.148987
C29   C     C_R   0.431002 0.627987 0.901207 0.204528
C30   C     C_R   0.317418 0.598663 0.860380 -0.185752
C31   C     C_3   0.462652 0.322307 0.210249 -0.447553
C32   C     C_3   0.565162 0.239925 0.157124 -0.333703
C33   C     C_3   0.541123 0.100866 0.171616 -0.876152
C34   C     C_R   0.493168 0.460321 0.200300 0.074890
C35   C     C_R   0.577047 0.662047 0.248988 -0.229813
C36   C     C_R   0.570388 0.711407 0.173385 -0.178561
C37   C     C_R   0.518372 0.638324 0.112392 0.162677
C38   C     C_2   0.410494 0.652043 0.988986 -0.245376
C39   C     C_2   0.511219 0.688803 0.032403 -0.239424
H1    H     H_    0.679337 0.555118 0.751400 0.161267
H2    H     H_    0.736636 0.673155 0.609191 0.197722
H3    H     H_    0.845687 0.810469 0.699751 0.146359
H4    H     H_    0.094011 0.807885 0.700962 0.151044
H5    H     H_    0.230390 0.668148 0.611013 0.203207
H6    H     H_    0.139419 0.359467 0.408164 0.136968
H7    H     H_    0.610798 0.721771 0.297366 0.149081
H8    H     H_    0.599021 0.738416 0.005443 0.148796
H9    H     H_    0.216129 0.607974 0.890945 0.126735
H10   H     H_    0.450302 0.453372 0.076366 0.137138
H11   H     H_    0.243662 0.532905 0.750189 0.161076
H12   H     H_    0.601666 0.807320 0.163239 0.142793
H13   H     H_    0.318688 0.613806 0.020140 0.153139
H14   H     H_    0.652118 0.627824 0.891228 0.125972
H15   H     H_    0.555428 0.080122 0.235248 0.271567
H16   H     H_    0.436984 0.073594 0.158579 0.265029
H17   H     H_    0.614780 0.044115 0.130975 0.239080
H18   H     H_    0.556976 0.256169 0.092122 0.218662
H19   H     H_    0.669728 0.264549 0.171031 0.224233
H20   H     H_    0.467871 0.296923 0.273679 0.191225
H21   H     H_    0.358185 0.302177 0.194312 0.198657
H22   H     H_    0.639315 0.892809 0.582513 0.149790
H23   H     H_    0.362974 0.759044 0.368758 0.166808
H24   H     H_    0.230185 0.866885 0.277754 0.140332
H25   H     H_    0.216394 0.098186 0.283321 0.131923
H26   H     H_    0.337820 0.220688 0.378096 0.147616
H27   H     H_    0.638815 0.118695 0.582042 0.162014
H28   H     H_    0.889004 0.358870 0.408501 0.145612
N1    N     N_R   0.857140 0.501200 0.500750 -0.120029
N2    N     N_R   0.142740 0.501280 0.500770 -0.120335
O1    O     O_R   0.385310 0.683220 0.500000 -0.637274
O2    O     O_R   0.614640 0.683250 0.500010 -0.631317
O3    O     O_R   0.371780 0.500010 0.615800 -0.631125
O4    O     O_R   0.601110 0.500030 0.615800 -0.631755
O5    O     O_R   0.385360 0.316750 0.499990 -0.615353
O6    O     O_R   0.614690 0.316780 0.500000 -0.608996
O7    O     O_R   0.398890 0.499970 0.384200 -0.623837
O8    O     O_R   0.628220 0.499990 0.384200 -0.604350
Zn1   Zn    Zn3+2 0.346870 0.499980 0.499990 0.927174
Zn2   Zn    Zn3+2 0.653130 0.500020 0.500010 0.935997

loop_
_geom_bond_atom_site_label_1
_geom_bond_atom_site_label_2
_ccdc_geom_bond_type
C2    C35   A    
C33   H16   S    
O1    Zn1   S    
C16   O6    A    
C19   C20   A    
C32   H19   S    
O2    Zn2   S    
C7    C8    A    
C26   C27   A    
C1    O2    A    
C16   O5    A    
C24   H6    S    
C30   H9    S    
C36   C37   A    
O7    Zn1   S    
C5    C6    A    
C23   H10   S    
C38   H13   S    
C31   H20   S    
C5    H24   S    
C18   C19   A    
C6    H25   S    
C17   H3    S    
C25   O8    A    
O3    Zn1   S    
C35   C36   A    
C8    C9    A    
C29   C38   S    
C9    C10   A    
C2    C34   A    
N1    Zn2   S    
C13   C14   A    
N2    Zn1   S    
C32   H18   S    
C24   N2    A    
C13   H27   S    
O8    Zn2   S    
C15   H2    S    
C3    C5    A    
C23   C37   A    
C12   C26   A    
C31   H21   S    
C29   C30   A    
C3    C9    A    
C7    H26   S    
C4    C26   S    
C31   C32   S    
C27   H1    S    
C23   C34   A    
C17   C18   A    
O4    Zn2   S    
C31   C34   S    
C22   N1    A    
C4    O4    A    
C36   H12   S    
C21   N1    A    
C14   C16   S    
C20   N2    A    
C4    O3    A    
C19   H5    S    
C39   H8    S    
C3    H23   S    
C33   H15   S    
C15   C17   A    
C28   C29   A    
C8    C14   A    
C12   C30   A    
C1    C10   S    
C11   H22   S    
C12   H11   S    
C28   H14   S    
C6    C7    A    
C1    O1    A    
C25   O7    A    
C32   C33   S    
C37   C39   S    
C18   H4    S    
C11   C13   A    
C38   C39   D    
C33   H17   S    
C2    C25   S    
C22   C24   A    
C22   H28   S    
C10   C11   A    
C15   C21   A    
C20   C21   A    
O5    Zn1   S    
C27   C28   A    
C35   H7    S    
O6    Zn2   S    
