data_mof_unit_12360.cif
_audit_creation_date              2012-12-10T17:04:37-0500
_audit_creation_method            fapswitch 2.2
_symmetry_space_group_name_H-M    P1
_symmetry_Int_Tables_number       1
_space_group_crystal_system       triclinic
_cell_length_a                    14.911096
_cell_length_b                    10.658679
_cell_length_c                    10.049397
_cell_angle_alpha                 89.938494
_cell_angle_beta                  89.391658
_cell_angle_gamma                 89.998665
_cell_volume                      1597.08570438

loop_
_atom_site_label
_atom_site_type_symbol
_atom_type_description
_atom_site_fract_x
_atom_site_fract_y
_atom_site_fract_z
_atom_type_partial_charge
C1    C     C_R   0.499665 0.262429 0.499860 0.934248
C2    C     C_R   0.187900 0.392789 0.502264 -0.304444
C3    C     C_R   0.232238 0.506971 0.502785 -0.084289
C4    C     C_R   0.327392 0.501568 0.500716 0.901503
C5    C     C_R   0.186818 0.622851 0.504664 0.101577
C6    C     C_2   0.550989 0.936543 0.390315 0.197846
C7    C     C_2   0.528852 0.868473 0.499535 -0.429809
C8    C     C_2   0.553612 0.072522 0.406875 -0.152820
C9    C     C_2   0.501583 0.129621 0.497502 -0.379138
C10   C     C_2   0.547186 0.426381 0.926566 -0.023081
C11   C     C_2   0.534540 0.413390 0.074510 -0.114864
C12   C     C_R   0.904612 0.611896 0.497274 0.132926
C13   C     C_R   0.507588 0.737282 0.499346 0.922759
C14   C     C_R   0.672686 0.499310 0.499302 0.886160
C15   C     C_R   0.812243 0.608709 0.497258 -0.305999
C16   C     C_R   0.767966 0.494384 0.497298 -0.078504
C17   C     C_R   0.813607 0.378663 0.496069 0.102954
C18   C     C_R   0.908081 0.380910 0.499433 0.095851
C19   C     C_R   0.953203 0.498556 0.499224 0.029241
C20   C     C_3   0.761160 0.255929 0.489677 -0.426395
C21   C     C_3   0.746946 0.199530 0.627957 -0.851501
C22   C     C_3   0.239599 0.745397 0.511974 -0.430839
C23   C     C_R   0.958882 0.269644 0.503011 -0.223366
C24   C     C_3   0.255401 0.801306 0.373824 -0.849944
C25   C     C_3   0.569487 0.878347 0.253511 -0.320936
C26   C     C_3   0.607220 0.967662 0.147532 -0.950878
C27   C     C_R   0.051612 0.274332 0.503948 -0.211880
C28   C     C_R   0.095609 0.389749 0.502475 0.132791
C29   C     C_R   0.047078 0.503145 0.500857 0.029673
C30   C     C_R   0.092277 0.620764 0.500850 0.096538
C31   C     C_R   0.041465 0.732018 0.496787 -0.223168
C32   C     C_R   0.948669 0.727321 0.495537 -0.211213
H1    H     H_    0.774098 0.695569 0.497084 0.139595
H2    H     H_    0.225960 0.305856 0.501932 0.139666
H3    H     H_    0.071918 0.823852 0.493472 0.156392
H4    H     H_    0.911189 0.814453 0.492963 0.143999
H5    H     H_    0.405358 0.628179 0.859873 0.199883
H6    H     H_    0.370337 0.479090 0.873586 0.213097
H7    H     H_    0.709352 0.109994 0.619609 0.250638
H8    H     H_    0.812121 0.180370 0.676258 0.255495
H9    H     H_    0.707423 0.264903 0.691456 0.268213
H10   H     H_    0.694662 0.270329 0.444278 0.198990
H11   H     H_    0.794511 0.187458 0.422458 0.194238
H12   H     H_    0.528516 0.910766 0.597800 0.149547
H13   H     H_    0.294912 0.735273 0.311024 0.274990
H14   H     H_    0.190716 0.821427 0.324497 0.256442
H15   H     H_    0.293671 0.890257 0.382647 0.246128
H16   H     H_    0.205521 0.814264 0.577900 0.195348
H17   H     H_    0.305706 0.731274 0.559300 0.206428
H18   H     H_    0.558871 0.044399 0.126910 0.264369
H19   H     H_    0.672362 0.007329 0.179762 0.258202
H20   H     H_    0.618883 0.915114 0.053550 0.260204
H21   H     H_    0.619023 0.801147 0.264676 0.216719
H22   H     H_    0.505971 0.839343 0.214121 0.220564
H23   H     H_    0.594710 0.128446 0.339703 0.166158
H24   H     H_    0.457204 0.080917 0.566372 0.142782
H25   H     H_    0.597518 0.367446 0.879271 0.119829
H26   H     H_    0.558619 0.328593 0.122059 0.145399
H27   H     H_    0.492822 0.588194 0.104920 0.196165
H28   H     H_    0.928489 0.177765 0.505990 0.157045
H29   H     H_    0.089091 0.187183 0.506098 0.143285
N1    N     N_2   0.500970 0.501330 0.852150 -0.079656
N2    N     N_2   0.500990 0.501360 0.147810 -0.189022
N3    N     N_3   0.419483 0.542125 0.904867 -0.408801
O1    O     O_R   0.499990 0.319060 0.613040 -0.614121
O2    O     O_R   0.500010 0.319100 0.386900 -0.615022
O3    O     O_R   0.367830 0.499950 0.613080 -0.638711
O4    O     O_R   0.367860 0.499990 0.386940 -0.597939
O5    O     O_R   0.499990 0.680900 0.613100 -0.618343
O6    O     O_R   0.500010 0.680940 0.386960 -0.631903
O7    O     O_R   0.632140 0.500010 0.613060 -0.610757
O8    O     O_R   0.632170 0.500050 0.386920 -0.628081
Zn1   Zn    Zn3+2 0.499980 0.499970 0.650990 0.932153
Zn2   Zn    Zn3+2 0.500020 0.500030 0.349010 0.929395

loop_
_geom_bond_atom_site_label_1
_geom_bond_atom_site_label_2
_ccdc_geom_bond_type
C15   C16   A    
O6    Zn2   S    
C4    O3    A    
C22   H16   S    
N1    Zn1   S    
O5    Zn1   S    
C6    C7    D    
O3    Zn1   S    
N2    Zn2   S    
C23   C27   A    
C11   H26   S    
C14   O7    A    
H27   N2    S    
C31   C32   A    
C21   H7    S    
C12   C15   A    
N1    N3    S    
C30   C31   A    
H5    N3    S    
C24   H14   S    
C2    H2    S    
C6    C8    S    
C17   C18   A    
C8    C9    D    
O1    Zn1   S    
C9    H24   S    
C7    H12   S    
C12   C32   A    
C20   H10   S    
C10   N1    D    
C21   H8    S    
C13   O5    A    
C25   H22   S    
C31   H3    S    
C22   H17   S    
C21   H9    S    
C24   H13   S    
C32   H4    S    
C12   C19   A    
C28   C29   A    
C25   H21   S    
C14   O8    A    
C2    C3    A    
C22   C24   S    
C10   H25   S    
C26   H18   S    
C23   H28   S    
C14   C16   S    
C20   H11   S    
C6    C25   S    
C10   C11   S    
C5    C22   S    
O4    Zn2   S    
C18   C23   A    
C19   C29   A    
C7    C13   S    
C17   C20   S    
C1    C9    S    
C20   C21   S    
C8    H23   S    
O8    Zn2   S    
C5    C30   A    
C13   O6    A    
C27   C28   A    
O7    Zn1   S    
H6    N3    S    
C11   N2    D    
C18   C19   A    
C2    C28   A    
C27   H29   S    
O2    Zn2   S    
C25   C26   S    
C26   H19   S    
C24   H15   S    
C4    O4    A    
C1    O1    A    
C15   H1    S    
C26   H20   S    
C29   C30   A    
C3    C4    S    
C16   C17   A    
C3    C5    A    
C1    O2    A    
