data_mof_unit_57441.cif
_audit_creation_date              2012-12-11T15:50:45-0500
_audit_creation_method            fapswitch 2.2
_symmetry_space_group_name_H-M    P1
_symmetry_Int_Tables_number       1
_space_group_crystal_system       triclinic
_cell_length_a                    18.963449
_cell_length_b                    11.039395
_cell_length_c                    18.708217
_cell_angle_alpha                 90.027693
_cell_angle_beta                  91.320363
_cell_angle_gamma                 89.761618
_cell_volume                      3915.39769209

loop_
_atom_site_label
_atom_site_type_symbol
_atom_type_description
_atom_site_fract_x
_atom_site_fract_y
_atom_site_fract_z
_atom_type_partial_charge
C1    C     C_R   0.272696 0.042479 0.853632 0.546448
C2    C     C_R   0.727404 0.042134 0.146330 0.546262
C3    C     C_R   0.772696 0.542479 0.853631 0.546689
C4    C     C_R   0.227404 0.542134 0.146330 0.546521
C5    C     C_3   0.469099 0.709531 0.985809 -0.104471
C6    C     C_3   0.428658 0.773532 0.046020 -0.167374
C7    C     C_3   0.969107 0.209529 0.985809 -0.104437
C8    C     C_3   0.928660 0.273512 0.046023 -0.167435
C9    C     C_R   0.245288 0.584787 0.075390 -0.016735
C10   C     C_R   0.755737 0.586108 0.924796 0.003490
C11   C     C_R   0.745287 0.084786 0.075389 -0.016728
C12   C     C_R   0.255736 0.086110 0.924796 0.003546
C13   C     C_R   0.306356 0.548358 0.040305 0.024502
C14   C     C_R   0.692998 0.558258 0.958723 0.070340
C15   C     C_R   0.806355 0.048357 0.040305 0.024503
C16   C     C_R   0.192996 0.058257 0.958723 0.070263
C17   C     C_R   0.310551 0.557716 0.966207 -0.045186
C18   C     C_R   0.688585 0.565735 0.032706 -0.041472
C19   C     C_R   0.810551 0.057715 0.966207 -0.045225
C20   C     C_R   0.188584 0.065737 0.032706 -0.041544
C21   C     C_R   0.192983 0.640318 0.961118 -0.103030
C22   C     C_R   0.809287 0.629898 0.040707 -0.167488
C23   C     C_R   0.692981 0.140311 0.961117 -0.103004
C24   C     C_R   0.309287 0.129901 0.040706 -0.167517
C25   C     C_R   0.190759 0.638914 0.034631 -0.147395
C26   C     C_R   0.811671 0.633141 0.966890 -0.180137
C27   C     C_R   0.690759 0.138911 0.034630 -0.147401
C28   C     C_R   0.311669 0.133146 0.966890 -0.180106
C29   C     C_3   0.342046 0.428453 0.041514 0.121706
C30   C     C_3   0.649985 0.446350 0.955310 0.116306
C31   C     C_3   0.842048 0.928455 0.041516 0.121693
C32   C     C_3   0.149990 0.946342 0.955314 0.116283
C33   C     C_3   0.345846 0.437148 0.960842 -0.218561
C34   C     C_3   0.643775 0.455351 0.035947 -0.216591
C35   C     C_3   0.845850 0.937149 0.960844 -0.218484
C36   C     C_3   0.143779 0.955347 0.035951 -0.216527
C37   C     C_R   0.252553 0.598539 0.925472 0.032872
C38   C     C_R   0.747761 0.595336 0.075105 -0.010487
C39   C     C_R   0.752552 0.098533 0.925471 0.032885
C40   C     C_R   0.247760 0.095339 0.075104 -0.010631
C41   C     C_R   0.517275 0.828613 0.430621 0.015551
C42   C     C_R   0.507704 0.836362 0.580702 0.022144
C43   C     C_R   0.997078 0.330400 0.422209 0.022151
C44   C     C_R   0.990261 0.331123 0.572528 0.020615
C45   C     C_R   0.437714 0.816529 0.861722 0.571292
C46   C     C_R   0.528819 0.822000 0.145045 0.560659
C47   C     C_R   0.937713 0.316529 0.861722 0.570971
C48   C     C_R   0.028817 0.322000 0.145047 0.559999
C49   C     C_R   0.541586 0.733430 0.474108 0.029212
C50   C     C_R   0.538903 0.737385 0.547319 0.018460
C51   C     C_R   0.987220 0.223322 0.460451 0.015471
C52   C     C_R   0.985891 0.224762 0.533387 0.009119
C53   C     C_R   0.496833 0.942032 0.539519 -0.169498
C54   C     C_R   0.499194 0.937314 0.464569 -0.180684
C55   C     C_R   0.990306 0.441188 0.534576 -0.170926
C56   C     C_R   0.991845 0.440807 0.459384 -0.174127
C57   C     C_3   0.528934 0.600425 0.471479 -0.245352
C58   C     C_3   0.530641 0.603029 0.552688 -0.257806
C59   C     C_3   0.026797 0.105533 0.461384 -0.250730
C60   C     C_3   0.026205 0.109966 0.542097 -0.270706
C61   C     C_R   0.251545 0.613899 0.416981 0.012013
C62   C     C_R   0.748741 0.588534 0.577776 0.015039
C63   C     C_R   0.751984 0.112568 0.416814 0.011383
C64   C     C_R   0.246952 0.091935 0.578938 0.010963
C65   C     C_R   0.200908 0.683736 0.452047 0.058347
C66   C     C_R   0.784582 0.683769 0.546704 0.052070
C67   C     C_R   0.701756 0.183553 0.451733 0.051471
C68   C     C_R   0.282474 0.187394 0.547512 0.048816
C69   C     C_R   0.210315 0.714671 0.522504 -0.013200
C70   C     C_R   0.781489 0.699302 0.474149 0.010680
C71   C     C_R   0.710842 0.212551 0.522498 -0.019746
C72   C     C_R   0.279557 0.201799 0.474855 0.005968
C73   C     C_R   0.328577 0.636299 0.520685 -0.142707
C74   C     C_R   0.707525 0.522249 0.461241 -0.170340
C75   C     C_R   0.826828 0.123086 0.522565 -0.139749
C76   C     C_R   0.203631 0.027379 0.462805 -0.177965
C77   C     C_R   0.318247 0.599700 0.449358 -0.159835
C78   C     C_R   0.706131 0.512902 0.534869 -0.174809
C79   C     C_R   0.817517 0.091579 0.450514 -0.156354
C80   C     C_R   0.202012 0.019098 0.536603 -0.177166
C81   C     C_3   0.124347 0.657157 0.461971 -0.043515
C82   C     C_3   0.861639 0.712299 0.550344 -0.034862
C83   C     C_3   0.624893 0.157726 0.461236 -0.038732
C84   C     C_3   0.359085 0.219124 0.551029 -0.031859
C85   C     C_3   0.134695 0.691228 0.539376 -0.239876
C86   C     C_3   0.856839 0.738707 0.471472 -0.231274
C87   C     C_3   0.634966 0.190220 0.538803 -0.238941
C88   C     C_3   0.354359 0.243487 0.471878 -0.227556
C89   C     C_R   0.261043 0.637193 0.851983 0.567062
C90   C     C_R   0.739115 0.636477 0.148271 0.542785
C91   C     C_R   0.761042 0.137191 0.851983 0.566969
C92   C     C_R   0.239115 0.136479 0.148271 0.543627
C93   C     C_R   0.271670 0.680821 0.559840 0.012149
C94   C     C_R   0.747556 0.612832 0.430763 0.018490
C95   C     C_R   0.771060 0.174874 0.560299 0.011423
C96   C     C_R   0.245749 0.115043 0.431726 0.011928
C97   C     C_R   0.270746 0.046047 0.646714 0.554603
C98   C     C_R   0.729122 0.048446 0.352972 0.539469
C99   C     C_R   0.771061 0.545350 0.646435 0.554918
C100  C     C_R   0.228977 0.548363 0.353235 0.539047
C101  C     C_R   0.471612 0.823855 0.648277 0.553920
C102  C     C_R   0.532612 0.822997 0.354693 0.539547
C103  C     C_R   0.969352 0.323632 0.646649 0.553581
C104  C     C_R   0.029572 0.323463 0.352568 0.537950
C105  C     C_R   0.274825 0.692951 0.637240 0.568766
C106  C     C_R   0.740126 0.639578 0.356817 0.547616
C107  C     C_R   0.774530 0.191315 0.637060 0.565742
C108  C     C_R   0.239761 0.140192 0.357257 0.547095
C109  C     C_3   0.486065 0.941549 0.024672 0.253307
C110  C     C_3   0.526100 0.877035 0.965276 0.278313
C111  C     C_3   0.986050 0.441549 0.024679 0.253325
C112  C     C_3   0.026091 0.377053 0.965280 0.278338
C113  C     C_3   0.415909 0.885248 0.996871 -0.177440
C114  C     C_3   0.538603 0.766333 0.013226 -0.095730
C115  C     C_3   0.915899 0.385231 0.996877 -0.177542
C116  C     C_3   0.038605 0.266349 0.013227 -0.095612
C117  C     C_3   0.457209 0.821214 0.937996 0.005623
C118  C     C_3   0.497945 0.830540 0.072752 0.012731
C119  C     C_3   0.957205 0.321214 0.937998 0.005533
C120  C     C_3   0.997942 0.330539 0.072755 0.012871
Cr1   Cr    Cr6+3 0.229640 0.835880 0.747370 1.066701
Cr2   Cr    Cr6+3 0.770360 0.835880 0.252630 1.079185
Cr3   Cr    Cr6+3 0.729640 0.335880 0.747370 1.065696
Cr4   Cr    Cr6+3 0.270360 0.335880 0.252630 1.080292
Cr5   Cr    Cr6+3 0.387390 0.989720 0.750850 1.080861
Cr6   Cr    Cr6+3 0.612610 0.989720 0.249150 1.102539
Cr7   Cr    Cr6+3 0.887390 0.489720 0.750850 1.083354
Cr8   Cr    Cr6+3 0.112610 0.489720 0.249150 1.101596
Cr9   Cr    Cr6+3 0.385770 0.677220 0.749340 1.084983
Cr10  Cr    Cr6+3 0.614230 0.677220 0.250660 1.071932
Cr11  Cr    Cr6+3 0.885770 0.177220 0.749340 1.087306
Cr12  Cr    Cr6+3 0.114230 0.177220 0.250660 1.068116
H1    H     H_    0.362836 0.923540 0.987956 0.123916
H2    H     H_    0.589999 0.721021 0.020852 0.157833
H3    H     H_    0.862820 0.423507 0.987966 0.123843
H4    H     H_    0.090008 0.221052 0.020850 0.157828
H5    H     H_    0.481833 0.025280 0.564817 0.140163
H6    H     H_    0.486552 0.017518 0.433533 0.154435
H7    H     H_    0.991618 0.526318 0.562963 0.137009
H8    H     H_    0.994752 0.525780 0.431092 0.158783
H9    H     H_    0.080212 0.114288 0.439936 0.186769
H10   H     H_    0.995017 0.036250 0.565885 0.179674
H11   H     H_    0.572829 0.550091 0.447902 0.183348
H12   H     H_    0.481843 0.571171 0.576751 0.182529
H13   H     H_    0.476418 0.577892 0.448152 0.149178
H14   H     H_    0.578043 0.560140 0.577233 0.154198
H15   H     H_    0.994527 0.030784 0.438342 0.172013
H16   H     H_    0.078750 0.125370 0.567717 0.157375
H17   H     H_    0.378289 0.620132 0.546923 0.148098
H18   H     H_    0.678882 0.457987 0.428144 0.162623
H19   H     H_    0.874723 0.097245 0.550285 0.167369
H20   H     H_    0.172878 0.965312 0.430167 0.170756
H21   H     H_    0.359524 0.552070 0.421951 0.129002
H22   H     H_    0.677286 0.439276 0.557780 0.145630
H23   H     H_    0.858503 0.041954 0.423683 0.133823
H24   H     H_    0.171302 0.947896 0.559904 0.152856
H25   H     H_    0.113252 0.559344 0.454785 0.148828
H26   H     H_    0.894134 0.631075 0.561547 0.150197
H27   H     H_    0.613506 0.060292 0.453383 0.157015
H28   H     H_    0.392543 0.139885 0.563136 0.146073
H29   H     H_    0.105529 0.774138 0.554941 0.163976
H30   H     H_    0.861653 0.836158 0.458309 0.168691
H31   H     H_    0.606169 0.273324 0.554716 0.162501
H32   H     H_    0.358008 0.340811 0.457779 0.172803
H33   H     H_    0.127741 0.612639 0.575703 0.159249
H34   H     H_    0.889958 0.677157 0.439094 0.150488
H35   H     H_    0.627370 0.111221 0.574677 0.162076
H36   H     H_    0.388228 0.182119 0.440178 0.148877
H37   H     H_    0.462698 0.614327 0.968987 0.215312
H38   H     H_    0.389316 0.733868 0.081993 0.161888
H39   H     H_    0.962715 0.114323 0.968986 0.215294
H40   H     H_    0.889325 0.233834 0.081999 0.161788
H41   H     H_    0.147150 0.675060 0.932091 0.217565
H42   H     H_    0.855434 0.659246 0.070946 0.227989
H43   H     H_    0.647148 0.175050 0.932089 0.217504
H44   H     H_    0.355434 0.159245 0.070944 0.227994
H45   H     H_    0.142553 0.670035 0.058498 0.215145
H46   H     H_    0.861370 0.658869 0.943979 0.201439
H47   H     H_    0.642554 0.170034 0.058497 0.215120
H48   H     H_    0.361368 0.158874 0.943978 0.201391
H49   H     H_    0.806456 0.857329 0.060635 0.158817
H50   H     H_    0.181628 0.868940 0.936953 0.132799
H51   H     H_    0.306453 0.357329 0.060633 0.158732
H52   H     H_    0.681619 0.368941 0.936947 0.132797
H53   H     H_    0.400125 0.443109 0.940236 0.208708
H54   H     H_    0.589727 0.476892 0.054066 0.228802
H55   H     H_    0.900129 0.943115 0.940240 0.208778
H56   H     H_    0.089730 0.976883 0.054069 0.228847
H57   H     H_    0.311778 0.370823 0.931965 0.138667
H58   H     H_    0.670688 0.380957 0.065782 0.110370
H59   H     H_    0.811785 0.870821 0.931967 0.138759
H60   H     H_    0.170695 0.880959 0.065787 0.110518
O1    O     O_R   0.214300 0.709080 0.827500 -0.500413
O2    O     O_R   0.785700 0.709080 0.172500 -0.504884
O3    O     O_R   0.714300 0.209080 0.827500 -0.500433
O4    O     O_R   0.285700 0.209080 0.172500 -0.504541
O5    O     O_R   0.445900 0.919370 0.676500 -0.501555
O6    O     O_R   0.554100 0.919370 0.323500 -0.497211
O7    O     O_R   0.945900 0.419370 0.676500 -0.500127
O8    O     O_R   0.054100 0.419370 0.323500 -0.498800
O9    O     O_R   0.456660 0.717710 0.669820 -0.516956
O10   O     O_R   0.543340 0.717710 0.330180 -0.507733
O11   O     O_R   0.956660 0.217710 0.669820 -0.506222
O12   O     O_R   0.043340 0.217710 0.330180 -0.515597
O13   O     O_R   0.320590 0.625770 0.672930 -0.465695
O14   O     O_R   0.679410 0.625770 0.327070 -0.500674
O15   O     O_R   0.820590 0.125770 0.672930 -0.469701
O16   O     O_R   0.179410 0.125770 0.327070 -0.505375
O17   O     O_3   0.334270 0.834280 0.749190 -0.337597
O18   O     O_3   0.665730 0.834280 0.250810 -0.284742
O19   O     O_3   0.834270 0.334280 0.749190 -0.337970
O20   O     O_3   0.165730 0.334280 0.250810 -0.283475
O21   O     O_R   0.236190 0.958390 0.823150 -0.484827
O22   O     O_R   0.763810 0.958390 0.176850 -0.484348
O23   O     O_R   0.736190 0.458390 0.823150 -0.484748
O24   O     O_R   0.263810 0.458390 0.176850 -0.484272
O25   O     O_R   0.332090 0.075280 0.831290 -0.516180
O26   O     O_R   0.667910 0.075280 0.168710 -0.495052
O27   O     O_R   0.832090 0.575280 0.831290 -0.515697
O28   O     O_R   0.167910 0.575280 0.168710 -0.494723
O29   O     O_R   0.446280 0.918040 0.826620 -0.440404
O30   O     O_R   0.553720 0.918040 0.173380 -0.458760
O31   O     O_R   0.946280 0.418040 0.826620 -0.440025
O32   O     O_R   0.053720 0.418040 0.173380 -0.459193
O33   O     O_R   0.457080 0.716270 0.831760 -0.455806
O34   O     O_R   0.542920 0.716270 0.168240 -0.493028
O35   O     O_R   0.957080 0.216270 0.831760 -0.455873
O36   O     O_R   0.042920 0.216270 0.168240 -0.492842
O37   O     O_R   0.320980 0.624440 0.823040 -0.506842
O38   O     O_R   0.679020 0.624440 0.176960 -0.494711
O39   O     O_R   0.820980 0.124440 0.823040 -0.507000
O40   O     O_R   0.179020 0.124440 0.176960 -0.493617
O41   O     O_R   0.213880 0.710510 0.665560 -0.507699
O42   O     O_R   0.786120 0.710510 0.334440 -0.511809
O43   O     O_R   0.713880 0.210510 0.665560 -0.507436
O44   O     O_R   0.286120 0.210510 0.334440 -0.509933
O45   O     O_R   0.235800 0.959720 0.673040 -0.523757
O46   O     O_R   0.764200 0.959720 0.326960 -0.504780
O47   O     O_R   0.735800 0.459720 0.673040 -0.524771
O48   O     O_R   0.264200 0.459720 0.326960 -0.504353
O49   O     O_R   0.331670 0.076720 0.669350 -0.501131
O50   O     O_R   0.668330 0.076720 0.330650 -0.493166
O51   O     O_R   0.831670 0.576720 0.669350 -0.498361
O52   O     O_R   0.168330 0.576720 0.330650 -0.491591
I1    I     I_    0.056330 0.778319 0.402918 -0.455524
I2    I     I_    0.885645 0.859587 0.619925 -0.359474
I3    I     I_    0.556156 0.278849 0.403024 -0.446160
I4    I     I_    0.381505 0.369624 0.618294 -0.355593
Cl1   Cl    Cl    0.497945 0.095836 0.049561 -0.562022
Cl2   Cl    Cl    0.591632 0.934148 0.908080 -0.557802
Cl3   Cl    Cl    0.997927 0.595833 0.049575 -0.562029
Cl4   Cl    Cl    0.091617 0.434194 0.908087 -0.557634
Cl5   Cl    Cl    0.426167 0.434435 0.086092 -0.565313
Cl6   Cl    Cl    0.568827 0.468742 0.907168 -0.567668
Cl7   Cl    Cl    0.926167 0.934446 0.086098 -0.565403
Cl8   Cl    Cl    0.068828 0.968712 0.907173 -0.567170

loop_
_geom_bond_atom_site_label_1
_geom_bond_atom_site_label_2
_ccdc_geom_bond_type
C83   C87   S    
C55   C56   A    
C108  O44   A    
C67   C83   S    
C4    O24   A    
C57   H13   S    
C5    C114  S    
C85   H29   S    
C14   C18   A    
C87   H31   S    
C111  C112  S    
C86   H34   S    
C73   C93   A    
C39   C91   S    
C108  O16   A    
Cr2   O46   S    
Cr11  O15   S    
C76   C96   A    
Cr8   O32   S    
C84   H28   S    
C18   C38   A    
C9    C25   A    
C7    C8    S    
C48   C120  S    
C63   C79   A    
C53   C54   A    
C110  Cl2   S    
C21   H41   S    
C15   C19   A    
Cr12  O20   S    
Cr1   O21   S    
C109  Cl1   S    
C55   H7    S    
C12   C28   A    
C53   H5    S    
C32   C36   S    
C32   H50   S    
C16   C20   A    
C70   C94   A    
C27   H47   S    
C63   C98   S    
Cr3   O23   S    
C102  O6    A    
C42   C53   A    
Cr4   O24   S    
C5    C6    S    
Cr4   O48   S    
C72   C96   A    
C101  O5    A    
C59   H15   S    
C71   C95   A    
C75   C95   A    
C92   O40   A    
C19   C39   A    
C111  Cl3   S    
C22   C38   A    
Cr9   O37   S    
C49   C57   S    
C41   C102  S    
C46   C118  S    
C33   H57   S    
C41   C49   A    
C34   H54   S    
C9    C13   A    
C43   C104  S    
C47   O31   A    
C83   H27   S    
C52   C60   S    
C8    C115  S    
C93   C105  S    
C43   C51   A    
C11   C15   A    
C25   H45   S    
C87   H35   S    
C12   C16   A    
C29   C33   S    
C75   H19   S    
C88   H36   S    
Cr3   O19   S    
Cr6   O50   S    
Cr7   O7    S    
C76   C80   A    
Cr2   O18   S    
C112  Cl4   S    
C86   H30   S    
C23   C27   A    
C74   C78   A    
Cr11  O11   S    
Cr8   O28   S    
C107  O15   A    
Cr10  O10   S    
Cr5   O25   S    
Cr7   O31   S    
C99   O47   A    
C81   C85   S    
Cr6   O6    S    
C47   C119  S    
C96   C108  S    
Cr5   O5    S    
C59   C60   S    
C113  H1    S    
C31   H49   S    
C64   C80   A    
Cr3   O3    S    
C1    C12   S    
C17   C33   S    
Cr2   O2    S    
C2    C11   S    
Cr12  O40   S    
C110  C117  S    
Cr1   O1    S    
C22   H42   S    
C44   C103  S    
C109  C118  S    
C80   H24   S    
C3    O23   A    
Cr3   O47   S    
C26   H46   S    
C46   O34   A    
C41   C54   A    
C63   C67   A    
Cr12  O12   S    
C81   H25   S    
C30   C34   S    
Cr7   O27   S    
C29   Cl5   S    
C68   C84   S    
C7    C119  S    
C34   H58   S    
C62   C66   A    
Cr7   O51   S    
C33   H53   S    
C104  O8    A    
C61   C77   A    
C37   C89   S    
C101  O9    A    
Cr5   O17   S    
C19   C35   S    
C78   H22   S    
C45   O33   A    
C48   O32   A    
C4    O28   A    
C82   C86   S    
C29   H51   S    
C15   C31   S    
C45   O29   A    
C116  C120  S    
C13   C29   S    
C91   O39   A    
C111  C120  S    
C36   H56   S    
C5    C117  S    
C7    C116  S    
C60   H10   S    
Cr8   O8    S    
C6    C113  S    
Cr10  O14   S    
Cr4   O44   S    
C81   I1    S    
Cr1   O41   S    
C66   C82   S    
C47   O35   A    
Cr9   O13   S    
C44   C52   A    
C65   C81   S    
C97   O45   A    
C90   O2    A    
C20   C40   A    
C11   C27   A    
C4    C9    S    
C68   C72   A    
Cr9   O9    S    
C89   O1    A    
C32   Cl8   S    
C64   C68   A    
C30   Cl6   S    
C114  H2    S    
C50   C58   S    
C21   C37   A    
C31   Cl7   S    
Cr10  O38   S    
C103  O7    A    
C40   C92   S    
C105  O13   A    
C28   H48   S    
Cr9   O33   S    
C59   H9    S    
C114  C118  S    
C22   C26   A    
C95   C107  S    
C42   C50   A    
Cr3   O43   S    
Cr7   O19   S    
C64   C97   S    
Cr2   O42   S    
C98   O46   A    
Cr12  O16   S    
Cr1   O17   S    
Cr6   O18   S    
Cr8   O52   S    
Cr6   O26   S    
C71   C87   S    
Cr10  O18   S    
C61   C100  S    
C51   C59   S    
C17   C37   A    
C107  O43   A    
C24   H44   S    
C42   C101  S    
C104  O12   A    
C110  C114  S    
C112  C116  S    
C77   H21   S    
C69   C85   S    
C8    C120  S    
C6    H38   S    
C113  C117  S    
Cr11  O39   S    
C65   C69   A    
C48   O36   A    
C21   C25   A    
C94   C106  S    
C35   H59   S    
C106  O42   A    
C73   H17   S    
C36   H60   S    
C105  O41   A    
C30   H52   S    
C62   C78   A    
Cr1   O45   S    
C74   H18   S    
C24   C28   A    
C92   O4    A    
C100  O52   A    
Cr5   O49   S    
C106  O14   A    
C112  C119  S    
C1    O25   A    
Cr6   O30   S    
C2    O22   A    
C116  H4    S    
C109  C113  S    
C76   H20   S    
C16   C32   S    
C79   H23   S    
Cr4   O20   S    
C91   O3    A    
C38   C90   S    
C69   C93   A    
C46   O30   A    
C13   C17   A    
C58   H14   S    
C72   C88   S    
C85   H33   S    
Cr9   O17   S    
Cr12  O36   S    
C102  O10   A    
C82   H26   S    
C51   C52   A    
C3    C10   S    
C88   H32   S    
C109  C110  S    
Cr8   O20   S    
Cr5   O29   S    
Cr11  O19   S    
C44   C55   A    
C10   C26   A    
C57   C58   S    
C54   H6    S    
C84   C88   S    
C115  H3    S    
C18   C34   S    
C56   H8    S    
C31   C35   S    
C115  C119  S    
C24   C40   A    
C6    C118  S    
C100  O48   A    
C67   C71   A    
C61   C65   A    
C99   O51   A    
Cr4   O4    S    
C103  O11   A    
C45   C117  S    
C98   O50   A    
C84   I4    S    
C97   O49   A    
C62   C99   S    
C20   C36   S    
C58   H12   S    
C43   C56   A    
C23   H43   S    
C66   C70   A    
Cr10  O34   S    
C73   C77   A    
C3    O27   A    
C49   C50   A    
Cr2   O22   S    
C83   I3    S    
C74   C94   A    
C2    O26   A    
C5    H37   S    
C90   O38   A    
C111  C115  S    
C60   H16   S    
Cr11  O35   S    
C89   O37   A    
C7    H39   S    
C82   I2    S    
C75   C79   A    
C23   C39   A    
C14   C30   S    
C35   H55   S    
C8    H40   S    
C57   H11   S    
C10   C14   A    
C1    O21   A    
C70   C86   S    
