data_mof_unit_13035.cif
_audit_creation_date              2012-12-10T19:00:43-0500
_audit_creation_method            fapswitch 2.2
_symmetry_space_group_name_H-M    P1
_symmetry_Int_Tables_number       1
_space_group_crystal_system       triclinic
_cell_length_a                    14.990863
_cell_length_b                    10.907202
_cell_length_c                    9.587409
_cell_angle_alpha                 90.170703
_cell_angle_beta                  89.940908
_cell_angle_gamma                 89.668967
_cell_volume                      1567.5876434

loop_
_atom_site_label
_atom_site_type_symbol
_atom_type_description
_atom_site_fract_x
_atom_site_fract_y
_atom_site_fract_z
_atom_type_partial_charge
C1    C     C_R   0.499456 0.262483 0.498865 0.807338
C2    C     C_R   0.906358 0.590056 0.538170 0.139652
C3    C     C_R   0.954557 0.266753 0.424544 0.112345
C4    C     C_R   0.048440 0.268164 0.421761 0.136131
C5    C     C_R   0.096099 0.375405 0.459522 0.019680
C6    C     C_R   0.047034 0.481697 0.500081 -0.012871
C7    C     C_R   0.092145 0.590171 0.540590 0.145404
C8    C     C_R   0.044673 0.695661 0.578828 -0.194296
C9    C     C_R   0.952399 0.695836 0.576783 -0.191017
C10   C     C_R   0.191182 0.382192 0.458423 0.115160
C11   C     C_R   0.233011 0.490977 0.500016 -0.059126
C12   C     C_R   0.329219 0.498884 0.500058 0.854752
C13   C     C_R   0.184471 0.592961 0.541985 -0.305854
C14   C     C_R   0.471297 0.062424 0.610360 -0.003982
C15   C     C_R   0.496163 0.128965 0.492671 -0.143502
C16   C     C_R   0.515219 0.062993 0.367395 -0.083609
C17   C     C_R   0.524714 0.934769 0.371225 -0.083192
C18   C     C_R   0.505224 0.870230 0.495855 -0.166254
C19   C     C_R   0.475679 0.936402 0.611680 0.039381
C20   C     C_3   0.501588 0.933489 0.763114 0.078761
C21   C     C_3   0.494431 0.074652 0.761587 -0.271646
C22   C     C_R   0.568485 0.552399 0.073122 0.265009
C23   C     C_R   0.503947 0.737068 0.499617 0.800099
C24   C     C_R   0.428905 0.458178 0.074162 -0.043894
C25   C     C_R   0.428657 0.459037 0.925787 -0.042829
C26   C     C_R   0.569085 0.550320 0.926507 0.201891
C27   C     C_3   0.666494 0.518413 0.919108 -0.322016
C28   C     C_3   0.666888 0.524388 0.078734 -0.129265
C29   C     C_R   0.670704 0.497151 0.500052 0.801184
C30   C     C_R   0.814056 0.592973 0.536174 -0.293444
C31   C     C_R   0.766852 0.488815 0.500545 -0.072482
C32   C     C_R   0.810426 0.377292 0.469640 0.123198
C33   C     C_R   0.905280 0.373270 0.464503 0.035443
C34   C     C_R   0.952894 0.481189 0.500552 -0.014053
Cu1   Cu    Cu3+1 0.500000 0.499980 0.640670 0.975638
Cu2   Cu    Cu3+1 0.500000 0.500020 0.359330 0.979217
H1    H     H_    0.778289 0.676742 0.562701 0.147950
H2    H     H_    0.558283 0.123789 0.779001 0.173589
H3    H     H_    0.372304 0.420565 0.128939 0.156120
H4    H     H_    0.371593 0.422995 0.870862 0.161294
H5    H     H_    0.706741 0.591682 0.869683 0.166011
H6    H     H_    0.706027 0.602410 0.120973 0.181866
H7    H     H_    0.219182 0.675645 0.573456 0.141261
H8    H     H_    0.079079 0.778645 0.609434 0.141966
H9    H     H_    0.916872 0.778971 0.605752 0.149556
N1    N     N_R   0.500570 0.500930 0.147930 -0.189606
N2    N     N_R   0.500570 0.500890 0.852020 -0.194035
O1    O     O_R   0.500000 0.319640 0.618810 -0.576490
O2    O     O_R   0.500010 0.319680 0.381230 -0.570828
O3    O     O_R   0.370250 0.499950 0.618800 -0.590587
O4    O     O_R   0.370260 0.499990 0.381220 -0.581560
O5    O     O_R   0.499990 0.680320 0.618770 -0.559085
O6    O     O_R   0.500000 0.680360 0.381190 -0.578798
O7    O     O_R   0.629740 0.500010 0.618780 -0.589064
O8    O     O_R   0.629750 0.500050 0.381200 -0.551479
C35   C     C_1   0.561866 0.873305 0.249298 0.280908
N3    N     N_1   0.591907 0.825862 0.151782 -0.308200
N4    N     N_3   0.436194 0.868755 0.849527 -0.560080
H10   H     H_    0.371183 0.892971 0.820454 0.223233
H11   H     H_    0.444960 0.895325 0.953529 0.232097
C36   C     C_1   0.593181 0.887973 0.786673 0.318120
N5    N     N_1   0.665036 0.852226 0.805013 -0.317361
C37   C     C_1   0.419284 0.127410 0.841196 0.319852
N6    N     N_1   0.360069 0.168227 0.903785 -0.317495
C38   C     C_1   0.684836 0.395036 0.861002 0.358696
N7    N     N_1   0.699361 0.298213 0.816535 -0.322937
N8    N     N_3   0.688841 0.408472 0.147954 -0.539618
H12   H     H_    0.754993 0.385332 0.124615 0.221989
H13   H     H_    0.647687 0.338032 0.113072 0.255400
N9    N     N_3   0.758065 0.268525 0.451233 -0.628268
H14   H     H_    0.714168 0.280555 0.368031 0.240556
H15   H     H_    0.720441 0.253839 0.541364 0.232387
N10   N     N_3   0.912336 0.154838 0.382208 -0.600331
H16   H     H_    0.877655 0.117316 0.466310 0.258161
H17   H     H_    0.870610 0.171366 0.296962 0.251892
N11   N     N_3   0.094473 0.158232 0.380260 -0.613733
H18   H     H_    0.076708 0.087433 0.447964 0.239342
H19   H     H_    0.074693 0.134748 0.279137 0.246388
N12   N     N_3   0.247950 0.281593 0.417997 -0.597284
H20   H     H_    0.235249 0.257293 0.314435 0.253126
H21   H     H_    0.238760 0.207999 0.485930 0.247537
C39   C     C_1   0.526259 0.122850 0.233336 0.296608
N13   N     N_1   0.534225 0.168669 0.125437 -0.306012

loop_
_geom_bond_atom_site_label_1
_geom_bond_atom_site_label_2
_ccdc_geom_bond_type
C9    H9    S    
N10   H16   S    
C19   C20   S    
Cu1   N2    S    
C7    C8    A    
C26   C27   S    
C14   C21   S    
N11   H19   S    
C25   H4    S    
C30   C31   A    
C29   O7    A    
C3    C33   A    
N4    H11   S    
C15   C16   A    
C24   H3    S    
C35   N3    T    
C18   C19   A    
C20   C36   S    
Cu2   O6    S    
C21   H2    S    
Cu1   Cu2   S    
C8    C9    A    
Cu2   N1    S    
N9    H14   S    
C1    C15   S    
C25   N2    A    
C2    C34   A    
C22   C28   S    
Cu1   O7    S    
N10   H17   S    
Cu1   O1    S    
C23   O6    A    
C4    N11   S    
N8    H12   S    
C28   N8    S    
C24   C25   A    
N12   H21   S    
C16   C17   A    
C32   N9    S    
C29   O8    A    
N4    H10   S    
C37   N6    T    
C18   C23   S    
C30   H1    S    
N8    H13   S    
C27   C38   S    
C27   H5    S    
C31   C32   A    
C10   N12   S    
Cu1   O3    S    
C16   C39   S    
C17   C18   A    
N11   H18   S    
C17   C35   S    
Cu2   O4    S    
C26   N2    A    
C22   N1    A    
C38   N7    T    
C20   N4    S    
C3    C4    A    
C13   H7    S    
C12   O4    A    
C14   C19   A    
C8    H8    S    
C4    C5    A    
C12   O3    A    
C11   C12   S    
C1    O1    A    
C6    C7    A    
C2    C30   A    
C24   N1    A    
C32   C33   A    
C5    C10   A    
C29   C31   S    
Cu2   O8    S    
C11   C13   A    
C23   O5    A    
C5    C6    A    
C28   H6    S    
C33   C34   A    
C36   N5    T    
C3    N10   S    
C21   C37   S    
C10   C11   A    
N12   H20   S    
C6    C34   A    
C7    C13   A    
C20   C21   S    
C39   N13   T    
C22   C26   A    
Cu1   O5    S    
C14   C15   A    
N9    H15   S    
C2    C9    A    
C1    O2    A    
Cu2   O2    S    
C27   C28   S    
