data_mof_unit_37978.cif
_audit_creation_date              2012-12-10T19:00:14-0500
_audit_creation_method            fapswitch 2.2
_symmetry_space_group_name_H-M    P1
_symmetry_Int_Tables_number       1
_space_group_crystal_system       triclinic
_cell_length_a                    9.643129
_cell_length_b                    10.968253
_cell_length_c                    13.510973
_cell_angle_alpha                 94.151626
_cell_angle_beta                  74.812805
_cell_angle_gamma                 88.996647
_cell_volume                      1374.51656006

loop_
_atom_site_label
_atom_site_type_symbol
_atom_type_description
_atom_site_fract_x
_atom_site_fract_y
_atom_site_fract_z
_atom_type_partial_charge
C1    C     C_R   0.499383 0.737076 0.500221 0.812218
C2    C     C_R   0.435307 0.553390 0.981347 0.046236
C3    C     C_R   0.479887 0.554742 0.873110 0.070938
C4    C     C_R   0.542267 0.533531 0.034419 0.022320
C5    C     C_R   0.685122 0.499259 0.976472 0.058821
C6    C     C_R   0.726828 0.526060 0.873718 -0.340147
C7    C     C_R   0.625713 0.574789 0.829010 0.279062
C8    C     C_R   0.511539 0.541057 0.141683 -0.230105
C9    C     C_R   0.749013 0.457677 0.132453 -0.221625
C10   C     C_R   0.379233 0.535459 0.813904 -0.116224
C11   C     C_R   0.379607 0.942692 0.512071 0.008919
C12   C     C_R   0.423658 0.510148 0.699787 0.769338
C13   C     C_R   0.500821 0.869984 0.503991 -0.141948
C14   C     C_R   0.626983 0.931377 0.507247 -0.249804
C15   C     C_R   0.629950 0.061173 0.512833 0.263219
C16   C     C_R   0.501973 0.130994 0.516930 -0.180046
C17   C     C_R   0.377527 0.066045 0.528337 -0.070130
C18   C     C_3   0.220610 0.081669 0.536234 0.251634
C19   C     C_3   0.225569 0.941727 0.512523 0.063107
C20   C     C_R   0.942025 0.400042 0.461478 0.183967
C21   C     C_R   0.909004 0.597207 0.541087 -0.150158
C22   C     C_R   0.054627 0.594916 0.546968 0.495466
C23   C     C_R   0.499893 0.263268 0.505558 0.781831
C24   C     C_R   0.088174 0.399099 0.461949 0.101342
C25   C     C_3   0.129866 0.330887 0.357020 0.290890
C26   C     C_3   0.973296 0.341441 0.354893 -0.538336
C27   C     C_R   0.575326 0.502768 0.301702 0.801524
C28   C     C_R   0.783777 0.449263 0.025358 0.280585
C29   C     C_R   0.614827 0.504870 0.190317 -0.118371
C30   C     C_R   0.232390 0.536756 0.865915 -0.224903
C31   C     C_R   0.186794 0.558520 0.972378 -0.135753
C32   C     C_R   0.286648 0.565746 0.030228 -0.201431
Cu1   Cu    Cu3+1 0.359330 0.500020 0.500010 0.978353
Cu2   Cu    Cu3+1 0.640670 0.499980 0.499990 0.963727
H1    H     H_    0.825387 0.422584 0.170461 0.156006
H2    H     H_    0.200453 0.137691 0.477795 0.101709
H3    H     H_    0.159857 0.897058 0.576909 0.200881
H4    H     H_    0.843651 0.679991 0.567085 0.161315
H5    H     H_    0.164575 0.235828 0.360644 0.040042
H6    H     H_    0.953973 0.405786 0.299661 0.216157
H7    H     H_    0.838552 0.525209 0.832664 0.120985
H8    H     H_    0.922625 0.251933 0.350425 0.183743
H9    H     H_    0.408172 0.575400 0.188981 0.182643
H10   H     H_    0.151877 0.520885 0.824525 0.139626
H11   H     H_    0.244137 0.575043 0.112668 0.147561
H12   H     H_    0.073144 0.564572 0.010880 0.167394
H13   H     H_    0.722675 0.878100 0.506341 0.174932
N1    N     N_R   0.852320 0.499070 0.499340 -0.193414
N2    N     N_R   0.148230 0.499110 0.499340 -0.209284
O1    O     O_R   0.381190 0.680360 0.500000 -0.544770
O2    O     O_R   0.618780 0.680320 0.499990 -0.589096
O3    O     O_R   0.323230 0.500000 0.650990 -0.616528
O4    O     O_R   0.560820 0.499960 0.650980 -0.540817
O5    O     O_R   0.381220 0.319680 0.500010 -0.605280
O6    O     O_R   0.618810 0.319640 0.500000 -0.556517
O7    O     O_R   0.439180 0.500040 0.349020 -0.534390
O8    O     O_R   0.676770 0.500000 0.349010 -0.585804
N3    N     N_2   0.757271 0.121391 0.519465 -0.419055
H14   H     H_    0.746898 0.175458 0.586914 0.267704
C33   C     C_3   0.894320 0.056295 0.481027 -0.658621
H15   H     H_    0.910454 0.991230 0.536673 0.242651
H16   H     H_    0.978878 0.123580 0.471633 0.223643
H17   H     H_    0.902917 0.007861 0.404399 0.234874
O9    O     O_3   0.126024 0.110257 0.636365 -0.636150
C34   C     C_3   0.181128 0.190765 0.702172 0.090728
H18   H     H_    0.089290 0.247159 0.752266 0.153203
H19   H     H_    0.255121 0.256651 0.660805 0.172705
C35   C     C_3   0.250861 0.118990 0.771343 -0.386050
H20   H     H_    0.166944 0.070591 0.825415 0.213939
H21   H     H_    0.329593 0.048237 0.725248 0.229155
C36   C     C_3   0.328662 0.203308 0.832117 -0.920542
H22   H     H_    0.417476 0.247962 0.778820 0.252404
H23   H     H_    0.375064 0.148870 0.882587 0.258795
H24   H     H_    0.253119 0.274688 0.880830 0.273666
N4    N     N_2   0.200885 0.895451 0.414786 -0.427141
H25   H     H_    0.202786 0.801206 0.406173 0.297657
C37   C     C_3   0.270945 0.949271 0.320650 -0.722876
H26   H     H_    0.264922 0.887117 0.253339 0.228662
H27   H     H_    0.386033 0.964569 0.315455 0.237344
H28   H     H_    0.213140 0.035490 0.316003 0.218245
O10   O     O_3   0.104677 0.697139 0.589981 -0.629848
C38   C     C_3   0.078626 0.694192 0.697979 0.038783
H29   H     H_    0.183973 0.687453 0.715740 0.186475
H30   H     H_    0.015483 0.615391 0.729234 0.103972
C39   C     C_3   0.006002 0.814911 0.754000 -0.396554
H31   H     H_    0.084553 0.888454 0.741292 0.228956
H32   H     H_    0.914481 0.841918 0.723670 0.230888
C40   C     C_3   0.954206 0.806856 0.870117 -0.919443
H33   H     H_    0.868840 0.739650 0.889103 0.267492
H34   H     H_    0.909264 0.897594 0.907791 0.258390
H35   H     H_    0.045135 0.779909 0.901149 0.260806
O11   O     O_3   0.222670 0.392382 0.279187 -0.571287
C41   C     C_3   0.269878 0.310705 0.189260 0.061637
H36   H     H_    0.296448 0.365107 0.121755 0.178048
H37   H     H_    0.184251 0.248802 0.176793 0.126465
C42   C     C_3   0.405569 0.235578 0.190106 -0.338022
H38   H     H_    0.490049 0.296679 0.202286 0.233521
H39   H     H_    0.382904 0.175501 0.254235 0.196337
C43   C     C_3   0.464356 0.157677 0.088983 -0.933010
H40   H     H_    0.382186 0.093804 0.074885 0.256163
H41   H     H_    0.560926 0.103392 0.092652 0.256583
H42   H     H_    0.495838 0.217208 0.024204 0.264599
N5    N     N_2   0.910850 0.380352 0.969878 -0.447349
H43   H     H_    0.950137 0.394542 0.893477 0.237754
C44   C     C_3   0.907255 0.251203 0.986197 -0.712598
H44   H     H_    0.012426 0.206099 0.946376 0.231385
H45   H     H_    0.822544 0.207624 0.955122 0.234722
H46   H     H_    0.886877 0.236454 0.069145 0.229361
N6    N     N_2   0.669782 0.659490 0.752623 -0.398167
H47   H     H_    0.778296 0.671551 0.734061 0.243372
C45   C     C_3   0.589484 0.775541 0.770040 -0.691700
H48   H     H_    0.637661 0.834793 0.707695 0.217778
H49   H     H_    0.593506 0.822758 0.844799 0.227359
H50   H     H_    0.476013 0.762477 0.769126 0.220582

loop_
_geom_bond_atom_site_label_1
_geom_bond_atom_site_label_2
_ccdc_geom_bond_type
C18   H2    S    
C41   H36   S    
C27   C29   S    
C32   H11   S    
C45   H48   S    
C8    H9    S    
C4    C8    A    
C18   O9    S    
O10   C38   S    
C37   H26   S    
Cu1   O3    S    
C44   H45   S    
C11   C19   S    
Cu2   O2    S    
C33   H17   S    
C8    C29   A    
C33   H16   S    
C3    C7    A    
N6    C45   S    
C5    C6    A    
C37   H28   S    
N3    C33   S    
C15   C16   A    
C42   C43   S    
C24   N2    A    
C2    C32   A    
C18   C19   S    
C19   H3    S    
C21   H4    S    
C20   C24   A    
C16   C17   A    
C34   H19   S    
C31   H12   S    
C42   H39   S    
Cu2   O8    S    
C1    O1    A    
C12   O4    A    
C9    C29   A    
C21   N1    A    
Cu1   O7    S    
C37   H27   S    
Cu2   O6    S    
C41   H37   S    
C21   C22   A    
C30   H10   S    
C12   O3    A    
Cu1   Cu2   S    
C6    C7    A    
C39   H32   S    
C44   H46   S    
C22   O10   S    
C24   C25   S    
N5    C44   S    
C27   O8    A    
C36   H23   S    
C27   O7    A    
C35   H20   S    
C25   C26   S    
C39   H31   S    
C6    H7    S    
C7    N6    S    
C33   H15   S    
C2    C4    A    
N4    H25   S    
C5    C28   A    
C1    O2    A    
C10   C30   A    
C43   H40   S    
C40   H35   S    
C34   C35   S    
C42   H38   S    
C17   C18   S    
C45   H49   S    
N4    C37   S    
C20   N1    A    
C10   C12   S    
C22   N2    A    
C43   H41   S    
C40   H34   S    
C38   H29   S    
C41   C42   S    
C38   H30   S    
C15   N3    S    
C1    C13   S    
C26   H8    S    
C23   O5    A    
C39   C40   S    
Cu1   O5    S    
C11   C17   A    
C25   O11   S    
C31   C32   A    
C4    C5    A    
C36   H24   S    
C23   O6    A    
C14   H13   S    
C16   C23   S    
C38   C39   S    
C44   H44   S    
O9    C34   S    
C19   N4    S    
C2    C3    A    
N3    H14   S    
C36   H22   S    
C3    C10   A    
N6    H47   S    
C25   H5    S    
C11   C13   A    
C28   N5    S    
C26   H6    S    
C30   C31   A    
C20   C26   S    
C35   C36   S    
O11   C41   S    
C45   H50   S    
C43   H42   S    
Cu2   N1    S    
C40   H33   S    
Cu2   O4    S    
C35   H21   S    
C34   H18   S    
Cu1   N2    S    
N5    H43   S    
C9    H1    S    
C14   C15   A    
C13   C14   A    
Cu1   O1    S    
C9    C28   A    
