data_mof_unit_17172.cif
_audit_creation_date              2013-03-05T16:00:23-0500
_audit_creation_method            fapswitch 2.2
_symmetry_space_group_name_H-M    P1
_symmetry_Int_Tables_number       1
_space_group_crystal_system       triclinic
_cell_length_a                    8.468929
_cell_length_b                    13.803084
_cell_length_c                    26.535401
_cell_angle_alpha                 97.830033
_cell_angle_beta                  91.585197
_cell_angle_gamma                 81.226233
_cell_volume                      3036.96295299

loop_
_atom_site_label
_atom_site_type_symbol
_atom_site_description
_atom_site_fract_x
_atom_site_fract_y
_atom_site_fract_z
_atom_type_partial_charge
P1    P     P_3+3 0.072810 0.589830 0.610360 0.600485
O1    O     O_2   0.907040 0.557650 0.617910 -0.355251
O2    O     O_3   0.139040 0.557570 0.557730 -0.350245
O3    O     O_3   0.684960 0.360550 0.588460 -0.366907
O4    O     O_2   0.788386 0.464060 0.670003 -0.399174
O5    O     O_3   0.001315 0.707759 0.640461 -0.597343
O6    O     O_3   0.705055 0.314558 0.697334 -0.544136
H1    H     H_    0.822703 0.215441 0.638451 0.007736
C1    C     C_3   0.848763 0.153622 0.710806 -0.187146
H2    H     H_    0.976243 0.153089 0.707107 0.098794
P2    P     P_3+3 0.661990 0.251250 0.462170 0.521856
P3    P     P_3+3 0.148344 0.184077 0.567767 0.563682
O7    O     O_2   0.841490 0.235060 0.476710 -0.332824
O8    O     O_3   0.099640 0.305100 0.564190 -0.442808
O9    O     O_2   0.000313 0.142515 0.543159 -0.361357
O10   O     O_3   0.644908 0.233257 0.395594 -0.512494
O11   O     O_3   0.127088 0.179478 0.633285 -0.470024
C2    C     C_3   0.130609 0.273649 0.661727 0.452386
H3    H     H_    0.010231 0.317604 0.662148 0.073039
H4    H     H_    0.210903 0.316049 0.645412 0.108258
C3    C     C_3   0.187774 0.265734 0.716390 -0.843928
H5    H     H_    0.098049 0.308852 0.743677 0.218003
H6    H     H_    0.211164 0.188246 0.724515 0.299206
C4    C     C_3   0.244297 0.243769 0.417545 0.251442
H7    H     H_    0.337949 0.288918 0.431327 0.105318
H8    H     H_    0.167073 0.236549 0.449553 0.115461
C5    C     C_3   0.321642 0.143297 0.393524 -0.601778
H9    H     H_    0.414664 0.151618 0.366623 0.267922
H10   H     H_    0.371762 0.097278 0.422563 0.224000
H11   H     H_    0.231247 0.105644 0.370958 0.323826
Ba1   Ba    Ba6+2 0.859560 0.448380 0.523550 1.696494
C6    C     C_3   0.066691 0.780386 0.622364 1.008131
H12   H     H_    0.186739 0.752149 0.608202 0.095895
C7    C     C_3   0.065791 0.866747 0.665879 -0.859498
H13   H     H_    0.975805 0.865390 0.695068 0.255909
H14   H     H_    0.038638 0.939839 0.652558 0.258178
H15   H     H_    0.183022 0.861712 0.685723 0.248086
C8    C     C_3   0.671262 0.317130 0.374573 0.414728
H16   H     H_    0.792048 0.335169 0.385048 0.078647
H17   H     H_    0.579669 0.381600 0.387069 0.117447
C9    C     C_3   0.657160 0.294229 0.317090 -0.831467
H18   H     H_    0.761003 0.239989 0.301869 0.265592
H19   H     H_    0.652202 0.362660 0.299542 0.202615
H20   H     H_    0.545227 0.263241 0.306721 0.273365
P4    P     P_3+3 0.116900 0.410080 0.389630 0.508111
O12   O     O_2   0.282660 0.442310 0.382060 -0.358888
O13   O     O_3   0.050670 0.442340 0.442260 -0.405426
O14   O     O_3   0.504750 0.639360 0.411530 -0.435967
O15   O     O_3   0.150664 0.282266 0.379329 -0.553047
P5    P     P_3+3 0.039997 0.814252 0.419411 0.605469
O16   O     O_3   0.618400 0.630290 0.524520 -0.342422
O17   O     O_3   0.090070 0.694820 0.435810 -0.368192
O18   O     O_2   0.165072 0.859367 0.454554 -0.237440
O19   O     O_3   0.129091 0.821774 0.359954 -0.474670
Ba2   Ba    Ba6+2 0.330270 0.551530 0.476440 1.727621
P6    P     P_3+3 0.655461 0.402125 0.654601 0.509160
C10   C     C_3   0.752584 0.217760 0.673384 0.822874
H21   H     H_    0.835891 0.074253 0.700773 0.126919
O20   O     O_3   0.571310 0.369620 0.475470 -0.437780
C11   C     C_3   0.603199 0.733178 0.629339 0.667118
H22   H     H_    0.701782 0.676751 0.616032 0.097734
C12   C     C_3   0.647306 0.787433 0.681470 -0.155946
H23   H     H_    0.730281 0.839161 0.675217 0.156377
H24   H     H_    0.540417 0.834485 0.699753 0.159297
P7    P     P_3+3 0.538411 0.761651 0.531087 0.638410
O21   O     O_2   0.348200 0.764910 0.523260 -0.278305
O22   O     O_3   0.581398 0.803752 0.595344 -0.509817
H25   H     H_    0.300910 0.296411 0.723204 0.291082
C13   C     C_3   0.033466 0.797613 0.316596 0.904712
H26   H     H_    0.906959 0.806797 0.326999 -0.057509
C14   C     C_3   0.055084 0.861627 0.274583 -0.680449
H27   H     H_    0.176403 0.842075 0.257954 0.258234
H28   H     H_    0.967459 0.849023 0.243376 0.195773
H29   H     H_    0.040616 0.941762 0.287708 0.273479
P8    P     P_3+3 0.541451 0.615022 0.344634 0.489634
C15   C     C_3   0.572398 0.794909 0.327152 1.117581
H30   H     H_    0.674363 0.773676 0.352682 -0.300413
O23   O     O_2   0.431468 0.539847 0.322384 -0.294137
O24   O     O_3   0.462781 0.725461 0.320310 -0.496327
H31   H     H_    0.701202 0.878447 0.281468 0.229776
C16   C     C_3   0.634247 0.814714 0.276342 -0.814754
H32   H     H_    0.533543 0.833543 0.249967 0.266008
H33   H     H_    0.717176 0.750712 0.258860 0.259648
C17   C     C_R   0.104293 0.388066 0.183731 0.660816
O25   O     O_2   0.208792 0.400261 0.215534 -0.495301
N1    N     N_R   0.945229 0.394475 0.198333 -0.167394
C18   C     C_R   0.839301 0.364620 0.160750 0.650396
C19   C     C_2   0.760302 0.508171 0.261818 0.468426
C20   C     C_3   0.745855 0.566229 0.316978 0.069926
C21   C     C_1   0.972051 0.449625 0.341349 0.376543
C22   C     C_2   0.994507 0.403672 0.294343 -0.187346
C23   C     C_2   0.891555 0.434766 0.250761 -0.035002
C24   C     C_R   0.023333 0.378001 0.095164 -0.080486
C25   C     C_R   0.145658 0.368824 0.131381 -0.136699
C26   C     C_R   0.301841 0.335797 0.113784 -0.088084
C27   C     C_R   0.866545 0.376551 0.109817 -0.020297
C28   C     C_2   0.850479 0.518050 0.355825 -0.487957
H34   H     H_    0.084060 0.338241 0.287175 0.176346
H35   H     H_    0.394158 0.313280 0.140679 0.228242
C29   C     C_2   0.331564 0.472402 0.639976 -0.412719
C30   C     C_R   0.250080 0.367591 0.974503 0.096412
C31   C     C_R   0.971570 0.449376 0.964493 -0.152622
C32   C     C_R   0.127900 0.416521 0.944472 0.068472
C33   C     C_R   0.403642 0.339798 0.952930 -0.127179
C34   C     C_R   0.432852 0.350429 0.902712 0.015249
C35   C     C_R   0.314551 0.398883 0.873093 -0.026340
C36   C     C_R   0.164363 0.435860 0.894724 -0.061580
C37   C     C_R   0.052132 0.493606 0.866946 -0.137100
C38   C     C_R   0.093983 0.517056 0.818944 0.626641
N2    N     N_R   0.238724 0.474963 0.795963 -0.173527
C39   C     C_R   0.345626 0.412609 0.822611 0.535324
C40   C     C_2   0.430336 0.491902 0.729579 -0.070936
C41   C     C_3   0.471646 0.490357 0.674024 0.371697
C42   C     C_1   0.189918 0.516837 0.655902 0.287612
C43   C     C_2   0.149309 0.509352 0.703380 -0.203213
C44   C     C_2   0.276645 0.493909 0.744238 0.041757
O26   O     O_2   0.467332 0.366882 0.802286 -0.528195
C45   C     C_R   0.217117 0.356056 0.026064 -0.073823
C46   C     C_R   0.058984 0.385462 0.044070 0.095779
C47   C     C_R   0.933971 0.418301 0.011296 0.118415
C48   C     C_R   0.331476 0.313714 0.060920 0.218757
H36   H     H_    0.527309 0.491841 0.757102 0.208815
H37   H     H_    0.552220 0.324910 0.887968 0.188130
H38   H     H_    0.505565 0.310775 0.974157 0.150271
O27   O     O_2   0.723893 0.328673 0.171550 -0.527777
C49   C     C_R   0.743455 0.390381 0.073955 0.041686
H39   H     H_    0.620677 0.391646 0.084400 0.159609
C50   C     C_R   0.864609 0.516089 0.937922 0.454439
C51   C     C_R   0.903795 0.532941 0.889130 -0.120523
O28   O     O_2   0.002033 0.576901 0.798402 -0.505478
C52   C     C_R   0.776500 0.412986 0.025745 -0.126849
H40   H     H_    0.819409 0.581769 0.869196 0.224206
H41   H     H_    0.027543 0.503130 0.711145 0.220242
H42   H     H_    0.678459 0.424282 0.999569 0.166368
H43   H     H_    0.840584 0.552368 0.395186 0.168707
H44   H     H_    0.347846 0.431183 0.602095 0.164112
C53   C     C_R   0.737979 0.827486 0.465992 -0.375727
C54   C     C_R   0.439383 0.180666 0.516395 -0.496671
C55   C     C_R   0.410244 0.018938 0.538942 0.496163
C56   C     C_R   0.348381 0.120612 0.537361 0.175893
C57   C     C_R   0.582353 0.146306 0.489975 0.284546
C58   C     C_R   0.643216 0.038444 0.482359 -0.191930
C59   C     C_R   0.553784 0.972331 0.508049 -0.167221
C60   C     C_R   0.608369 0.864097 0.498421 0.301958
C61   C     C_R   0.836523 0.885888 0.446962 0.162081
C62   C     C_R   0.788413 0.991657 0.452016 0.414581
H45   H     H_    0.773165 0.748130 0.458667 0.156172
H46   H     H_    0.393571 0.258891 0.520023 0.155206
S1    S     S_3+6 0.948435 0.812579 0.570726 -0.042162
O29   O     O_2   0.053380 0.838053 0.532922 -0.262945
O30   O     O_2   0.878556 0.724219 0.546640 -0.341797
O31   O     O_3   0.808517 0.909408 0.588249 -0.537339
H47   H     H_    0.834580 0.962230 0.569562 0.386668
S2    S     S_3+6 0.581815 0.164183 0.656644 -0.017039
O32   O     O_2   0.467368 0.232377 0.629182 -0.348439
O33   O     O_2   0.628850 0.069855 0.622231 -0.318519
O34   O     O_3   0.501528 0.141561 0.710332 -0.485330
H48   H     H_    0.546966 0.072566 0.714481 0.376400
N3    N     N_R   0.460592 0.687171 0.632911 0.166794
O35   O     O_R   0.377613 0.701474 0.674569 -0.484813
O36   O     O_R   0.424953 0.622932 0.595639 -0.437556
N4    N     N_R   0.721413 0.719160 0.715911 0.269335
O37   O     O_R   0.638349 0.660265 0.734061 -0.342672
O38   O     O_R   0.861718 0.728650 0.735348 -0.295768
N5    N     N_R   0.803460 0.186499 0.763940 0.311637
O39   O     O_R   0.839965 0.269553 0.787100 -0.334545
O40   O     O_R   0.748005 0.126530 0.790359 -0.316895
S3    S     S_3+6 0.090755 0.673371 0.288697 -0.006841
O41   O     O_2   0.962949 0.642033 0.253072 -0.337049
O42   O     O_2   0.239452 0.661013 0.258255 -0.161541
O43   O     O_3   0.121216 0.603346 0.335048 -0.521255
H49   H     H_    0.200284 0.633386 0.357349 0.402390
S4    S     S_3+6 0.470974 0.910304 0.355108 -0.036299
O44   O     O_2   0.583068 0.985108 0.359782 -0.313915
O45   O     O_2   0.332549 0.943587 0.322045 -0.275612
O46   O     O_3   0.406807 0.900863 0.412622 -0.501281
H50   H     H_    0.427937 0.829281 0.415210 0.345308
N6    N     N_R   0.454058 0.232181 0.044199 0.226051
O47   O     O_R   0.423551 0.166346 0.006665 -0.327688
O48   O     O_R   0.576187 0.209517 0.073459 -0.362702
S5    S     S_3+6 0.633502 0.552036 0.211338 0.024771
O49   O     O_2   0.734865 0.565689 0.167987 -0.298633
O50   O     O_2   0.522590 0.479174 0.193503 -0.215603
O51   O     O_3   0.515500 0.658783 0.226261 -0.476834
H51   H     H_    0.470123 0.677201 0.193443 0.393245
S6    S     S_3+6 0.701427 0.600164 0.967030 -0.012407
O52   O     O_2   0.725054 0.619842 0.023662 -0.243402
O53   O     O_2   0.688485 0.696702 0.945808 -0.209321
O54   O     O_3   0.530338 0.553740 0.953804 -0.578262
H52   H     H_    0.448065 0.599315 0.974687 0.389744
S7    S     S_3+6 0.302428 0.974942 0.588251 0.038515
O55   O     O_2   0.128164 0.993294 0.577093 -0.281200
O56   O     O_2   0.324158 0.874796 0.601320 -0.313892
O57   O     O_3   0.336178 0.040326 0.644006 -0.420487
H53   H     H_    0.271390 0.017685 0.669373 0.352414
S8    S     S_3+6 0.913409 0.041986 0.410118 0.033623
O58   O     O_2   0.896258 0.980532 0.360502 -0.309046
O59   O     O_2   0.900355 0.142408 0.395218 -0.229816
O60   O     O_3   0.102584 0.022130 0.429982 -0.467914
H54   H     H_    0.108542 0.070552 0.460642 0.334259

loop_
_geom_bond_atom_site_label_1
_geom_bond_atom_site_label_2
_geom_bond_distance
_ccdc_geom_bond_type
O14   Ba2   2.806454 S    
O5    C6    1.362828 S    
O43   H49   0.983070 S    
N5    O39   1.301209 A    
Ba2   O20   2.982299 S    
C5    H10   1.100192 S    
C2    C3    1.529224 S    
C9    H18   1.110617 S    
C58   C62   1.499422 A    
O4    P6    1.529081 D    
C15   O24   1.424230 S    
C18   O27   1.218932 D    
O8    Ba1   2.905400 S    
C52   H42   1.074376 S    
C50   C51   1.403539 A    
C61   C62   1.443474 A    
C19   S5    1.804751 S    
S5    O49   1.502915 D    
C37   C38   1.423074 A    
O34   H48   0.990757 S    
C50   S6    1.782910 S    
C30   C45   1.438500 A    
C53   C61   1.393129 A    
C15   S4    1.766656 S    
C17   N1    1.398512 Am   
C7    H13   1.105460 S    
C55   S7    1.834735 S    
S1    O30   1.494362 D    
C8    H16   1.108491 S    
C26   H35   1.082867 S    
S8    O58   1.482119 D    
S4    O46   1.662272 S    
C35   C36   1.403668 A    
C59   C60   1.484163 A    
C47   C52   1.413046 A    
P1    Ba1   3.464110 S    
O51   H51   0.991286 S    
C34   H37   1.083894 S    
C2    H4    1.095019 S    
C11   C12   1.545461 S    
P1    O1    1.561537 D    
O16   P7    1.822812 S    
Ba1   O20   3.004706 S    
C13   C14   1.544703 S    
C45   C46   1.415371 A    
C40   C41   1.521100 S    
C12   H24   1.111623 S    
C31   C32   1.425076 A    
N2    C39   1.397543 Am   
O2    Ba2   2.717679 S    
S3    O43   1.656445 S    
C6    S1    1.741341 S    
C19   C23   1.393469 D    
C11   N3    1.458617 S    
C54   H46   1.082395 S    
P7    O22   1.771377 S    
O12   Ba2   2.794327 S    
P5    O17   1.748945 S    
P6    C41   1.862043 S    
P3    C56   1.928387 S    
C4    H7    1.106263 S    
C1    H2    1.085595 S    
C21   C28   1.313772 D    
C7    H14   1.103436 S    
O17   Ba2   2.905964 S    
C51   H40   1.083543 S    
C26   C48   1.415367 A    
S3    O42   1.490206 D    
O57   H53   0.990890 S    
P2    Ba1   3.589828 S    
O60   H54   0.985406 S    
C30   C32   1.431667 A    
Ba1   O13   2.717054 S    
C3    H5    1.109485 S    
O3    P6    1.782723 S    
C5    H11   1.107232 S    
C9    H19   1.103373 S    
O14   P8    1.787933 S    
C13   H26   1.097968 S    
C55   C59   1.495495 A    
O6    P6    1.765049 S    
S8    O60   1.666854 S    
P2    O20   1.690845 S    
C33   C34   1.393209 A    
C16   H33   1.098162 S    
O7    Ba1   3.060712 S    
N6    O47   1.302044 A    
N4    O38   1.300095 A    
C35   C39   1.415457 A    
P4    O13   1.503653 S    
C55   C56   1.427005 A    
P5    O18   1.538754 D    
S7    O55   1.487320 D    
C29   C42   1.314062 D    
C17   O25   1.220304 D    
C11   O22   1.404314 S    
C8    C9    1.520164 S    
S8    O59   1.479882 D    
S5    O50   1.500546 D    
C22   C23   1.499029 S    
C14   H28   1.110339 S    
P7    C60   1.928714 S    
N1    C18   1.385802 Am   
C2    H3    1.103461 S    
C17   C25   1.421601 A    
C43   H41   1.075580 S    
O16   Ba2   3.003836 S    
P4    O12   1.561860 D    
C16   H32   1.110699 S    
P1    O5    1.739571 S    
C20   C28   1.498795 S    
C11   H22   1.082287 S    
P1    O2    1.503649 S    
C45   C48   1.435306 A    
C6    C7    1.541757 S    
P3    O11   1.763472 S    
S7    O56   1.454120 D    
C40   H36   1.083810 S    
C12   H23   1.105866 S    
H1    C10   1.108825 S    
P2    O10   1.755230 S    
N3    O35   1.302285 A    
P3    O9    1.548946 D    
P4    O15   1.728593 S    
C36   C37   1.404366 A    
C4    C5    1.504578 S    
C18   C27   1.412963 A    
N3    O36   1.296798 A    
O11   C2    1.415411 S    
S2    O32   1.491978 D    
C27   C49   1.400919 A    
C24   C25   1.396733 A    
P5    O19   1.789884 S    
C15   H30   1.111328 S    
O2    Ba1   3.048505 S    
P4    C21   1.828519 S    
P2    C57   1.927251 S    
P4    Ba2   3.464709 S    
C37   C51   1.401872 A    
S4    O45   1.497901 D    
C54   C56   1.390993 A    
S2    O34   1.681941 S    
P5    C61   1.958195 S    
O46   H50   0.988368 S    
C53   C60   1.401881 A    
P3    O8    1.673483 S    
C30   C33   1.412563 A    
C3    H6    1.107033 S    
C3    H25   1.106045 S    
C9    H20   1.111063 S    
S1    O31   1.668729 S    
P1    C42   1.849250 S    
C28   H43   1.086398 S    
S6    O53   1.503737 D    
N2    C44   1.484311 S    
C40   C44   1.363931 D    
Ba2   O21   3.061105 S    
C31   C47   1.427071 A    
O13   Ba2   3.049361 S    
N4    O37   1.299047 A    
C10   S2    1.742710 S    
S5    O51   1.655370 S    
O54   H52   0.990435 S    
S3    O41   1.492352 D    
S2    O33   1.491900 D    
C53   H45   1.082589 S    
C29   C41   1.501492 S    
C4    H8    1.110296 S    
Ba1   O16   2.982868 S    
H31   C16   1.108713 S    
C54   C57   1.401302 A    
C15   C16   1.532997 S    
C14   H29   1.102644 S    
N6    O48   1.301363 A    
C46   C47   1.411629 A    
C42   C43   1.336591 D    
C48   N6    1.440193 S    
C33   H38   1.073267 S    
C7    H15   1.108064 S    
C24   C27   1.397684 A    
C34   C35   1.401433 A    
C31   C50   1.432726 A    
C39   O26   1.221130 D    
C6    H12   1.089545 S    
S6    O54   1.681385 S    
C1    N5    1.464089 S    
C13   S3    1.773282 S    
C14   H27   1.109599 S    
N1    C23   1.482715 S    
S1    O29   1.469894 D    
C8    H17   1.107605 S    
P2    O7    1.548268 D    
C21   C22   1.324778 D    
C12   N4    1.462780 S    
O19   C13   1.420240 S    
P8    O24   1.765996 S    
C49   C52   1.402653 A    
C49   H39   1.080455 S    
C4    O15   1.383219 S    
C1    C10   1.551784 S    
C22   H34   1.085936 S    
C25   C26   1.402720 A    
P8    O23   1.546082 D    
S7    O57   1.666318 S    
O3    Ba1   2.807071 S    
P8    C20   1.889103 S    
S4    O44   1.496769 D    
C29   H44   1.086756 S    
C19   C20   1.568432 S    
C1    H21   1.112792 S    
N5    O40   1.300824 A    
P7    O21   1.613085 D    
C38   N2    1.392699 Am   
C38   O28   1.220186 D    
C58   C59   1.509977 A    
O1    Ba1   2.793977 S    
C32   C36   1.432803 A    
O31   H47   0.989889 S    
C24   C46   1.417808 A    
Ba1   Ba2   4.687590 S    
S6    O52   1.503594 D    
C57   C58   1.487555 A    
C62   S8    1.827340 S    
O6    C10   1.403495 S    
C43   C44   1.520515 S    
O10   C8    1.401037 S    
C5    H9    1.106546 S    
