data_mof_unit_58299.cif
_audit_creation_date              2012-12-10T17:11:58-0500
_audit_creation_method            fapswitch 2.2
_symmetry_space_group_name_H-M    P1
_symmetry_Int_Tables_number       1
_space_group_crystal_system       triclinic
_cell_length_a                    11.68292
_cell_length_b                    13.004023
_cell_length_c                    15.833053
_cell_angle_alpha                 92.630487
_cell_angle_beta                  73.652772
_cell_angle_gamma                 100.100609
_cell_volume                      2272.40362155

loop_
_atom_site_label
_atom_site_type_symbol
_atom_type_description
_atom_site_fract_x
_atom_site_fract_y
_atom_site_fract_z
_atom_type_partial_charge
C1    C     C_R   0.521060 0.700885 0.501096 0.808582
C2    C     C_R   0.478973 0.299115 0.498834 0.810648
C3    C     C_R   0.354230 0.480130 0.090621 -0.210272
C4    C     C_R   0.635763 0.579248 0.917241 -0.206109
C5    C     C_R   0.269651 0.461055 0.043147 -0.220107
C6    C     C_R   0.719470 0.601769 0.965303 -0.218530
C7    C     C_R   0.466628 0.185574 0.498665 -0.052989
C8    C     C_R   0.533473 0.814421 0.501106 -0.052254
C9    C     C_R   0.655324 0.985530 0.500340 -0.214169
C10   C     C_R   0.344838 0.014461 0.499278 -0.214534
C11   C     C_R   0.644185 0.877358 0.500987 -0.192692
C12   C     C_R   0.355956 0.122632 0.498679 -0.192496
C13   C     C_R   0.433819 0.860407 0.500624 -0.263981
C14   C     C_R   0.566307 0.139587 0.499086 -0.264384
C15   C     C_R   0.444265 0.968476 0.499889 0.175724
C16   C     C_R   0.555887 0.031516 0.499757 0.175789
C17   C     C_R   0.942713 0.599694 0.579446 -0.377627
C18   C     C_R   0.057367 0.400494 0.420400 -0.381070
C19   C     C_R   0.823758 0.590291 0.572365 0.392410
C20   C     C_R   0.176379 0.409994 0.427371 0.392104
C21   C     C_R   0.858778 0.456392 0.465976 -0.025188
C22   C     C_R   0.141200 0.543571 0.534061 -0.024121
C23   C     C_R   0.425691 0.493349 0.668644 0.815498
C24   C     C_R   0.574331 0.508389 0.331605 0.814847
C25   C     C_R   0.978846 0.463755 0.471224 0.050083
C26   C     C_R   0.021153 0.536262 0.528775 0.051224
C27   C     C_R   0.378873 0.487004 0.766035 -0.164202
C28   C     C_R   0.621005 0.525711 0.235311 -0.163379
C29   C     C_R   0.218450 0.447566 0.903008 0.166828
C30   C     C_R   0.774075 0.598880 0.103441 0.167979
C31   C     C_R   0.254772 0.456399 0.811053 0.155679
C32   C     C_R   0.740691 0.574788 0.193406 0.153284
C33   C     C_R   0.463090 0.509841 0.814833 -0.280832
C34   C     C_R   0.538379 0.500372 0.185643 -0.276890
C35   C     C_R   0.428648 0.505646 0.907288 0.058589
C36   C     C_R   0.567029 0.529465 0.096812 0.059525
C37   C     C_R   0.304867 0.471338 0.951461 0.056102
C38   C     C_R   0.687689 0.576631 0.054790 0.055908
C39   C     C_R   0.514994 0.531723 0.956635 0.093672
C40   C     C_R   0.478604 0.512328 0.048814 0.093029
Cu1   Cu    Cu3+1 0.386820 0.492450 0.493500 0.951996
Cu2   Cu    Cu3+1 0.613180 0.507550 0.506500 0.951243
N1    N     N_R   0.216750 0.481110 0.483710 -0.174194
N2    N     N_R   0.783250 0.518890 0.516290 -0.174636
O1    O     O_R   0.419950 0.645670 0.495380 -0.592847
O2    O     O_R   0.580050 0.354330 0.504620 -0.592458
O3    O     O_R   0.611110 0.658410 0.506370 -0.565209
O4    O     O_R   0.388890 0.341590 0.493630 -0.564066
O5    O     O_R   0.350820 0.490050 0.621260 -0.601823
O6    O     O_R   0.649180 0.509950 0.378740 -0.602246
O7    O     O_R   0.541970 0.502800 0.632250 -0.551150
O8    O     O_R   0.458030 0.497200 0.367750 -0.549486
H1    H     H_    0.175984 0.437034 0.079714 0.144965
H2    H     H_    0.809898 0.639215 0.930853 0.142678
N3    N     N_3   0.255148 0.344352 0.375151 -0.530761
H3    H     H_    0.214959 0.266709 0.390898 0.186285
H4    H     H_    0.261065 0.356053 0.309077 0.178874
N4    N     N_3   0.745261 0.656488 0.624031 -0.529424
H5    H     H_    0.785833 0.733966 0.607901 0.185496
H6    H     H_    0.739119 0.645284 0.690183 0.177504
H7    H     H_    0.973150 0.656465 0.624187 0.136135
H8    H     H_    0.027005 0.343883 0.375520 0.136557
H9    H     H_    0.451249 0.456546 0.218269 0.166384
H10   H     H_    0.556893 0.527737 0.778611 0.172901
N5    N     N_3   0.829992 0.603667 0.240450 -0.550224
H11   H     H_    0.798504 0.654498 0.291427 0.230155
H12   H     H_    0.845460 0.536357 0.266049 0.228932
N6    N     N_3   0.163260 0.430451 0.765610 -0.549411
H13   H     H_    0.184545 0.369905 0.721349 0.231235
H14   H     H_    0.159020 0.496491 0.732154 0.227666
N7    N     N_3   0.092502 0.412593 0.945655 -0.562595
H15   H     H_    0.060214 0.469596 0.990290 0.212862
H16   H     H_    0.083525 0.343380 0.979796 0.213813
N8    N     N_3   0.896146 0.648931 0.063524 -0.563899
H17   H     H_    0.935827 0.602966 0.011334 0.210786
H18   H     H_    0.894245 0.721827 0.039214 0.214170
H19   H     H_    0.317776 0.472429 0.160957 0.138400
H20   H     H_    0.668167 0.604315 0.849586 0.130939
H21   H     H_    0.652206 0.187657 0.498899 0.152198
H22   H     H_    0.347905 0.812339 0.500847 0.152179
H23   H     H_    0.277880 0.156847 0.498672 0.155982
H24   H     H_    0.722267 0.843143 0.500970 0.155829
H25   H     H_    0.741428 0.033082 0.500167 0.134642
H26   H     H_    0.258748 0.966906 0.499416 0.134630
H27   H     H_    0.174369 0.598987 0.578446 0.122535
H28   H     H_    0.825613 0.400988 0.421579 0.124777

loop_
_geom_bond_atom_site_label_1
_geom_bond_atom_site_label_2
_ccdc_geom_bond_type
C24   O8    A    
N3    H3    S    
C8    C13   A    
C5    C37   A    
C1    C8    S    
Cu1   Cu2   S    
C2    C7    S    
C27   C33   A    
N8    H18   S    
C17   C26   A    
C5    H1    S    
C35   C37   A    
C9    C16   A    
C10   C15   A    
C8    C11   A    
C30   N8    S    
C23   O5    A    
N4    H6    S    
C15   C16   A    
C30   C38   A    
Cu2   O2    S    
C22   H27   S    
C17   H7    S    
C7    C14   A    
N6    H13   S    
N5    H12   S    
C6    C38   A    
C23   C27   S    
Cu1   O8    S    
C18   C20   A    
Cu2   O7    S    
C13   H22   S    
C28   C34   A    
C11   H24   S    
Cu1   N1    S    
C31   N6    S    
C18   C25   A    
Cu2   N2    S    
C6    H2    S    
C20   N3    S    
Cu1   O5    S    
C19   N4    S    
C24   O6    A    
C7    C12   A    
N8    H17   S    
C27   C31   A    
C36   C40   A    
C4    C6    A    
C39   C40   A    
N7    H16   S    
C18   H8    S    
C2    O4    A    
C25   C26   A    
C2    O2    A    
C35   C39   A    
C4    H20   S    
C21   N2    A    
C23   O7    A    
C22   N1    A    
C4    C39   A    
C28   C32   A    
C14   H21   S    
C9    C11   A    
C10   C12   A    
Cu2   O6    S    
C9    H25   S    
C3    C40   A    
N3    H4    S    
C13   C15   A    
C14   C16   A    
C17   C19   A    
C3    H19   S    
C20   N1    A    
C19   N2    A    
C21   C25   A    
C21   H28   S    
C1    O3    A    
C24   C28   S    
C3    C5    A    
C36   C38   A    
N4    H5    S    
N7    H15   S    
C29   C31   A    
C30   C32   A    
C1    O1    A    
C33   H10   S    
C10   H26   S    
C34   H9    S    
C33   C35   A    
Cu1   O4    S    
C12   H23   S    
C34   C36   A    
Cu2   O3    S    
N6    H14   S    
N5    H11   S    
C22   C26   A    
C29   C37   A    
Cu1   O1    S    
C32   N5    S    
C29   N7    S    
