data_mof_unit_52510.cif
_audit_creation_date              2012-12-10T18:59:17-0500
_audit_creation_method            fapswitch 2.2
_symmetry_space_group_name_H-M    P1
_symmetry_Int_Tables_number       1
_space_group_crystal_system       triclinic
_cell_length_a                    10.808094
_cell_length_b                    10.800017
_cell_length_c                    9.581297
_cell_angle_alpha                 90.164132
_cell_angle_beta                  90.335511
_cell_angle_gamma                 91.832553
_cell_volume                      1117.80541367

loop_
_atom_site_label
_atom_site_type_symbol
_atom_type_description
_atom_site_fract_x
_atom_site_fract_y
_atom_site_fract_z
_atom_type_partial_charge
C1    C     C_R   0.500216 0.262407 0.499717 0.775424
C2    C     C_R   0.061668 0.404846 0.594881 0.118812
C3    C     C_R   0.127971 0.483544 0.500771 -0.098641
C4    C     C_R   0.065063 0.556208 0.405209 -0.212205
C5    C     C_R   0.937547 0.557242 0.405674 -0.194791
C6    C     C_R   0.870252 0.484336 0.500473 -0.092518
C7    C     C_R   0.456705 0.061490 0.610950 0.093380
C8    C     C_R   0.507072 0.129106 0.499990 -0.094031
C9    C     C_R   0.570511 0.066941 0.394668 -0.189795
C10   C     C_R   0.573529 0.937693 0.395917 -0.209074
C11   C     C_R   0.514698 0.870813 0.503610 -0.086184
C12   C     C_R   0.262390 0.493567 0.500079 0.791191
C13   C     C_R   0.465009 0.934318 0.615876 0.101407
C14   C     C_3   0.338968 0.916285 0.676872 -0.481409
C15   C     C_3   0.325890 0.055238 0.662907 -0.242955
C16   C     C_R   0.592024 0.561303 0.074466 0.230152
C17   C     C_R   0.414730 0.429846 0.071074 0.232556
C18   C     C_R   0.417365 0.429431 0.922926 -0.063975
C19   C     C_R   0.591811 0.561440 0.927380 0.245809
C20   C     C_3   0.624048 0.696494 0.921809 -0.465121
C21   C     C_3   0.623497 0.696709 0.080186 -0.504813
C22   C     C_R   0.504436 0.737415 0.500397 0.804488
C23   C     C_R   0.737083 0.495122 0.500256 0.785852
C24   C     C_R   0.121696 0.324178 0.687313 -0.187261
C25   C     C_R   0.054599 0.245694 0.776211 -0.181417
C26   C     C_R   0.925945 0.241695 0.771085 0.052462
C27   C     C_R   0.864318 0.318290 0.678564 -0.218074
C28   C     C_R   0.930766 0.403505 0.592629 0.081061
Cu1   Cu    Cu3+1 0.499990 0.499980 0.640670 0.937917
Cu2   Cu    Cu3+1 0.500010 0.500020 0.359330 0.944083
H1    H     H_    0.115129 0.615807 0.332637 0.158046
H2    H     H_    0.343687 0.885252 0.787259 0.190175
H3    H     H_    0.313646 0.104358 0.763686 0.140293
H4    H     H_    0.349393 0.375357 0.864305 0.134355
H5    H     H_    0.717444 0.715137 0.877110 0.202591
H6    H     H_    0.549046 0.751802 0.875931 0.217963
H7    H     H_    0.716376 0.716410 0.127110 0.193671
H8    H     H_    0.547473 0.751466 0.123958 0.217628
H9    H     H_    0.220538 0.315770 0.687914 0.143453
H10   H     H_    0.103450 0.184925 0.845771 0.130306
H11   H     H_    0.764703 0.307495 0.672675 0.159741
H12   H     H_    0.891104 0.617792 0.333628 0.150864
H13   H     H_    0.614641 0.117704 0.310193 0.170758
H14   H     H_    0.618807 0.890337 0.311699 0.154923
H15   H     H_    0.275613 0.858271 0.609663 0.194608
N1    N     N_R   0.500790 0.500930 0.147930 -0.188591
N2    N     N_R   0.500790 0.500890 0.852020 -0.207021
O1    O     O_R   0.500000 0.319640 0.618810 -0.593352
O2    O     O_R   0.500010 0.319680 0.381230 -0.586694
O3    O     O_R   0.319640 0.499980 0.618820 -0.588173
O4    O     O_R   0.319650 0.500020 0.381230 -0.578297
O5    O     O_R   0.499990 0.680320 0.618770 -0.575005
O6    O     O_R   0.500000 0.680360 0.381190 -0.582739
O7    O     O_R   0.680350 0.499980 0.618770 -0.584565
O8    O     O_R   0.680360 0.500020 0.381180 -0.576499
C29   C     C_1   0.235210 0.085719 0.553468 0.268680
N3    N     N_1   0.164514 0.109009 0.466984 -0.288530
C30   C     C_3   0.307948 0.358537 0.136406 -0.752777
H16   H     H_    0.336203 0.302792 0.226218 0.264066
H17   H     H_    0.234540 0.422987 0.165465 0.236619
H18   H     H_    0.264610 0.291296 0.061347 0.172629
C31   C     C_1   0.856691 0.156446 0.858399 0.221479
N4    N     N_1   0.800939 0.087972 0.928444 -0.292931

loop_
_geom_bond_atom_site_label_1
_geom_bond_atom_site_label_2
_ccdc_geom_bond_type
C12   O3    A    
C5    H12   S    
C1    O1    A    
C23   O8    A    
C31   N4    T    
C22   O6    A    
C1    C8    S    
C11   C13   A    
Cu2   O8    S    
C27   H11   S    
C11   C22   S    
C19   C20   S    
C10   H14   S    
C17   C30   S    
Cu2   O4    S    
Cu1   O7    S    
C15   C29   S    
C20   C21   S    
C30   H18   S    
C7    C15   S    
C17   C18   A    
C26   C31   S    
C7    C8    A    
C13   C14   S    
C24   C25   A    
C16   C21   S    
C18   H4    S    
C26   C27   A    
Cu1   Cu2   S    
Cu1   N2    S    
C16   C19   A    
C6    C23   S    
Cu2   O2    S    
Cu2   N1    S    
C2    C3    A    
C14   H15   S    
Cu1   O3    S    
C25   H10   S    
C2    C24   A    
C5    C6    A    
Cu2   O6    S    
C19   N2    A    
C9    H13   S    
C4    H1    S    
C10   C11   A    
Cu1   O1    S    
C30   H17   S    
C3    C4    A    
C20   H6    S    
C7    C13   A    
C12   O4    A    
C21   H7    S    
C17   N1    A    
C23   O7    A    
C22   O5    A    
C9    C10   A    
C16   N1    A    
C27   C28   A    
C29   N3    T    
C14   C15   S    
C4    C5    A    
C20   H5    S    
C2    C28   A    
C3    C12   S    
C25   C26   A    
C30   H16   S    
C1    O2    A    
C24   H9    S    
C15   H3    S    
C6    C28   A    
C21   H8    S    
C14   H2    S    
C8    C9    A    
C18   N2    A    
Cu1   O5    S    
