data_mof_unit_31660.cif
_audit_creation_date              2012-12-11T15:24:42-0500
_audit_creation_method            fapswitch 2.2
_symmetry_space_group_name_H-M    P1
_symmetry_Int_Tables_number       1
_space_group_crystal_system       triclinic
_cell_length_a                    23.111261
_cell_length_b                    6.975759
_cell_length_c                    20.620738
_cell_angle_alpha                 89.608216
_cell_angle_beta                  93.084971
_cell_angle_gamma                 89.381428
_cell_volume                      3319.34343723

loop_
_atom_site_label
_atom_site_type_symbol
_atom_type_description
_atom_site_fract_x
_atom_site_fract_y
_atom_site_fract_z
_atom_type_partial_charge
O1    O     O_R   0.188030 0.379840 0.189340 -0.543258
O2    O     O_R   0.811970 0.620160 0.810660 -0.543258
O3    O     O_R   0.311970 0.879840 0.310660 -0.531936
O4    O     O_R   0.688030 0.120160 0.689340 -0.531936
O5    O     O_R   0.307090 0.708420 0.185790 -0.534327
O6    O     O_R   0.692910 0.291580 0.814210 -0.534327
O7    O     O_R   0.192910 0.208420 0.314210 -0.534702
O8    O     O_R   0.807090 0.791580 0.685790 -0.534702
C1    C     C_R   0.326739 0.541501 0.170858 0.729268
C2    C     C_R   0.673261 0.458499 0.829142 0.729266
C3    C     C_R   0.173257 0.042031 0.329145 0.720929
C4    C     C_R   0.826743 0.957969 0.670855 0.720925
O9    O     O_R   0.188180 0.709480 0.181650 -0.540519
O10   O     O_R   0.811820 0.290520 0.818350 -0.540520
O11   O     O_R   0.311820 0.209480 0.318350 -0.540763
O12   O     O_R   0.688180 0.790520 0.681650 -0.540766
O13   O     O_R   0.192210 0.880960 0.306500 -0.537184
O14   O     O_R   0.807790 0.119040 0.693500 -0.537183
O15   O     O_R   0.307790 0.380960 0.193500 -0.536293
O16   O     O_R   0.692210 0.619040 0.806500 -0.536293
C5    C     C_R   0.167153 0.543092 0.166009 0.718515
C6    C     C_R   0.832847 0.456908 0.833991 0.718514
C7    C     C_R   0.332762 0.039619 0.333622 0.718216
C8    C     C_R   0.667238 0.960381 0.666378 0.718222
O17   O     O_3   0.251460 0.546730 0.290970 -0.365593
O18   O     O_3   0.748540 0.453270 0.709030 -0.365593
O19   O     O_3   0.248540 0.046730 0.209030 -0.371186
O20   O     O_3   0.751460 0.953270 0.790970 -0.371185
V1    V     V_3+5 0.249730 0.821120 0.242400 1.435711
V2    V     V_3+5 0.750270 0.178880 0.757600 1.435712
V3    V     V_3+5 0.250270 0.321120 0.257600 1.442282
V4    V     V_3+5 0.749730 0.678880 0.742400 1.442280
C9    C     C_R   0.569755 0.100495 0.627381 0.148742
C10   C     C_R   0.430246 0.899506 0.372616 0.148744
C11   C     C_R   0.923955 0.308814 0.892006 0.134392
C12   C     C_R   0.076044 0.691185 0.107994 0.134394
C13   C     C_R   0.616844 0.974078 0.618398 -0.098670
C14   C     C_R   0.383157 0.025924 0.381601 -0.098684
C15   C     C_R   0.882671 0.461010 0.883321 -0.093831
C16   C     C_R   0.117329 0.538990 0.116679 -0.093831
C17   C     C_R   0.615369 0.854863 0.564296 -0.219437
C18   C     C_R   0.384634 0.145144 0.435701 -0.219431
C19   C     C_R   0.887911 0.620613 0.923759 -0.211514
C20   C     C_R   0.112089 0.379387 0.076241 -0.211513
C21   C     C_R   0.567236 0.853427 0.519328 -0.004977
C22   C     C_R   0.432769 0.146586 0.480667 -0.004969
C23   C     C_R   0.931131 0.629560 0.974355 0.008477
C24   C     C_R   0.068869 0.370440 0.025646 0.008478
C25   C     C_R   0.523283 0.995307 0.523891 -0.023807
C26   C     C_R   0.476721 0.004704 0.476104 -0.023811
C27   C     C_R   0.976610 0.491752 0.976622 0.009342
C28   C     C_R   0.023390 0.508247 0.023378 0.009342
C29   C     C_R   0.526442 0.129085 0.575859 0.113266
C30   C     C_R   0.473562 0.870923 0.424136 0.113249
C31   C     C_R   0.975643 0.339163 0.931409 0.107073
C32   C     C_R   0.024356 0.660836 0.068591 0.107073
C33   C     C_R   0.562110 0.711874 0.470458 -0.023464
C34   C     C_R   0.437897 0.288148 0.529534 -0.023478
C35   C     C_R   0.929398 0.771826 0.022932 -0.012903
C36   C     C_R   0.070602 0.228174 0.977068 -0.012901
C37   C     C_R   0.513272 0.712789 0.425893 0.084847
C38   C     C_R   0.486734 0.287226 0.574101 0.084854
C39   C     C_R   0.973634 0.776770 0.073013 0.069174
C40   C     C_R   0.026365 0.223228 0.926988 0.069173
H1    H     H_    0.652001 0.759761 0.558736 0.160176
H2    H     H_    0.348002 0.240242 0.441262 0.160184
H3    H     H_    0.855602 0.733221 0.917558 0.154041
H4    H     H_    0.144399 0.266780 0.082442 0.154040
C41   C     C_3   0.041258 0.109177 0.529030 -0.033034
C42   C     C_3   0.958743 0.890811 0.470972 -0.033060
C43   C     C_3   0.458600 0.613320 0.971226 -0.034120
C44   C     C_3   0.541400 0.386679 0.028774 -0.034122
C45   C     C_3   0.021496 0.912886 0.554276 0.073255
C46   C     C_3   0.978505 0.087103 0.445726 0.073258
C47   C     C_3   0.478706 0.417714 0.945443 0.072392
C48   C     C_3   0.521294 0.582285 0.054557 0.072392
C49   C     C_1   0.872185 0.961163 0.625073 -0.168096
C50   C     C_1   0.127815 0.038836 0.374927 -0.168101
C51   C     C_1   0.627842 0.462502 0.874895 -0.163286
C52   C     C_1   0.372158 0.537498 0.125105 -0.163287
C53   C     C_3   0.976866 0.168979 0.515262 0.078684
C54   C     C_3   0.023136 0.831011 0.484740 0.078684
C55   C     C_3   0.522898 0.668768 0.985283 0.078886
C56   C     C_3   0.477102 0.331232 0.014717 0.078886
C57   C     C_3   0.957263 0.972621 0.540560 0.033315
C58   C     C_3   0.042738 0.027369 0.459442 0.033329
C59   C     C_3   0.542824 0.473123 0.959452 0.033560
C60   C     C_3   0.457176 0.526876 0.040548 0.033561
C61   C     C_1   0.910431 0.961499 0.586947 0.049712
C62   C     C_1   0.089570 0.038497 0.413054 0.049698
C63   C     C_1   0.589633 0.462632 0.913033 0.051882
C64   C     C_1   0.410368 0.537367 0.086967 0.051882
C65   C     C_3   0.561196 0.172778 0.695520 -0.753614
H5    H     H_    0.514923 0.202946 0.703299 0.219349
H6    H     H_    0.574221 0.060493 0.732055 0.190112
H7    H     H_    0.587694 0.301802 0.705880 0.207516
C66   C     C_3   0.438801 0.827212 0.304478 -0.753568
H8    H     H_    0.485077 0.797078 0.296694 0.219342
H9    H     H_    0.412309 0.698164 0.294127 0.207509
H10   H     H_    0.425763 0.939478 0.267938 0.190103
C67   C     C_3   0.909110 0.109384 0.867835 -0.708698
H11   H     H_    0.938873 0.997408 0.888807 0.202705
H12   H     H_    0.866356 0.067263 0.884915 0.220132
H13   H     H_    0.908608 0.104142 0.814002 0.189002
C68   C     C_3   0.090889 0.890615 0.132166 -0.708698
H14   H     H_    0.061125 0.002591 0.111195 0.202705
H15   H     H_    0.091391 0.895854 0.186000 0.189003
H16   H     H_    0.133642 0.932738 0.115086 0.220132
C69   C     C_2   0.606122 0.555031 0.467312 0.759351
O21   O     O_2   0.629213 0.524172 0.416378 -0.538416
O22   O     O_R   0.619759 0.439853 0.521880 -0.676837
H17   H     H_    0.649372 0.336127 0.513262 0.298312
C70   C     C_2   0.393889 0.445009 0.532674 0.759371
O23   O     O_2   0.370809 0.475922 0.583608 -0.538425
O24   O     O_R   0.380245 0.560144 0.478098 -0.676844
H18   H     H_    0.350637 0.663889 0.486711 0.298315
C71   C     C_2   0.879499 0.908217 0.024856 0.748401
O25   O     O_2   0.888231 0.080338 0.029299 -0.552707
O26   O     O_R   0.822855 0.839260 0.023356 -0.658210
H19   H     H_    0.792851 0.945948 0.025113 0.302840
C72   C     C_2   0.120501 0.091783 0.975144 0.748400
O27   O     O_2   0.111769 0.919661 0.970702 -0.552708
O28   O     O_R   0.177145 0.160740 0.976643 -0.658210
H20   H     H_    0.207149 0.054051 0.974887 0.302840
C73   C     C_3   0.499401 0.529330 0.389052 -0.687826
H21   H     H_    0.511313 0.401483 0.419389 0.206660
H22   H     H_    0.452323 0.514532 0.377493 0.229350
H23   H     H_    0.523793 0.522009 0.344234 0.224916
C74   C     C_3   0.500609 0.470685 0.610940 -0.687825
H24   H     H_    0.488704 0.598527 0.580602 0.206665
H25   H     H_    0.476216 0.478024 0.655755 0.224920
H26   H     H_    0.547686 0.485466 0.622504 0.229344
C75   C     C_3   0.960526 0.877131 0.135882 -0.711887
H27   H     H_    0.915845 0.843550 0.149374 0.224109
H28   H     H_    0.988998 0.826336 0.177592 0.208092
H29   H     H_    0.964083 0.034878 0.130271 0.229238
C76   C     C_3   0.039473 0.122864 0.864119 -0.711889
H30   H     H_    0.084154 0.156441 0.850627 0.224109
H31   H     H_    0.035915 0.965117 0.869731 0.229237
H32   H     H_    0.011001 0.173657 0.822408 0.208092
C77   C     C_3   0.045535 0.811158 0.615605 -0.682395
H33   H     H_    0.092598 0.782996 0.612013 0.226975
H34   H     H_    0.038669 0.902391 0.658449 0.219531
H35   H     H_    0.022963 0.673153 0.621494 0.217687
C78   C     C_3   0.954463 0.188826 0.384397 -0.682362
H36   H     H_    0.907400 0.216983 0.387991 0.226965
H37   H     H_    0.977033 0.326834 0.378507 0.217676
H38   H     H_    0.961329 0.097592 0.341553 0.219527
C79   C     C_3   0.455029 0.321470 0.883691 -0.678339
H39   H     H_    0.407997 0.295391 0.887007 0.228533
H40   H     H_    0.461865 0.415321 0.841178 0.221188
H41   H     H_    0.477884 0.182789 0.877398 0.216172
C80   C     C_3   0.544972 0.678529 0.116309 -0.678337
H42   H     H_    0.592003 0.704608 0.112992 0.228533
H43   H     H_    0.522117 0.817210 0.122602 0.216171
H44   H     H_    0.538136 0.584677 0.158822 0.221187
C81   C     C_2   0.087272 0.226323 0.563348 0.754810
O29   O     O_2   0.080304 0.282942 0.618360 -0.558120
O30   O     O_R   0.137773 0.270387 0.532337 -0.663901
H45   H     H_    0.165266 0.351503 0.560233 0.307959
C82   C     C_2   0.912731 0.773650 0.436657 0.754826
O31   O     O_2   0.919697 0.717036 0.381644 -0.558120
O32   O     O_R   0.862234 0.729567 0.467673 -0.663903
H46   H     H_    0.834742 0.648442 0.439779 0.307955
C83   C     C_2   0.412307 0.734632 0.937179 0.758884
O33   O     O_2   0.419155 0.794418 0.882314 -0.555062
O34   O     O_R   0.361702 0.779060 0.968294 -0.662808
H47   H     H_    0.334018 0.863171 0.940600 0.304031
C84   C     C_2   0.587693 0.265367 0.062821 0.758885
O35   O     O_2   0.580845 0.205580 0.117686 -0.555062
O36   O     O_R   0.638298 0.220938 0.031706 -0.662808
H48   H     H_    0.665982 0.136827 0.059400 0.304031
C85   C     C_3   0.054053 0.646444 0.466816 -0.728724
H49   H     H_    0.046089 0.533892 0.502636 0.221748
H50   H     H_    0.038953 0.600708 0.417425 0.217483
H51   H     H_    0.101541 0.669268 0.468095 0.224135
C86   C     C_3   0.945947 0.353539 0.533189 -0.728701
H52   H     H_    0.960992 0.399130 0.582613 0.217484
H53   H     H_    0.953966 0.466171 0.497422 0.221730
H54   H     H_    0.898456 0.330767 0.531831 0.224144
C87   C     C_3   0.446240 0.147466 0.031899 -0.729979
H55   H     H_    0.453836 0.038156 0.995177 0.222285
H56   H     H_    0.461751 0.095855 0.080827 0.217605
H57   H     H_    0.398775 0.173756 0.031275 0.225166
C88   C     C_3   0.553760 0.852533 0.968101 -0.729971
H58   H     H_    0.538252 0.904134 0.919170 0.217604
H59   H     H_    0.546160 0.961850 0.004819 0.222283
H60   H     H_    0.601225 0.826246 0.968731 0.225166

loop_
_geom_bond_atom_site_label_1
_geom_bond_atom_site_label_2
_ccdc_geom_bond_type
C34   C38   A    
C55   C59   S    
O36   H48   S    
O1    C5    A    
C83   O33   D    
C59   C63   S    
O19   V1    S    
C71   O25   D    
O13   V1    S    
C84   O35   D    
C46   C78   S    
O3    C7    A    
O32   H46   S    
C44   C48   S    
O15   V3    S    
C78   H38   S    
C82   O31   D    
O28   H20   S    
C45   C77   S    
C85   H49   S    
C50   C62   T    
O7    C3    A    
C68   H15   S    
C21   C33   A    
O5    C1    A    
C65   H5    S    
C39   C75   S    
O9    V1    S    
C56   C87   S    
C14   C18   A    
C24   C28   A    
C71   O26   S    
C78   H36   S    
O4    C8    A    
C47   C56   S    
C88   H59   S    
O24   H18   S    
C66   H8    S    
C48   C80   S    
O1    V3    S    
C10   C66   S    
O2    V4    S    
O26   H19   S    
C18   C22   A    
O3    V1    S    
C69   O22   S    
C82   O32   S    
C1    O15   A    
C81   O29   D    
C33   C69   S    
C60   C64   S    
C2    O16   A    
C86   H53   S    
O2    C6    A    
C73   H23   S    
C41   C81   S    
C41   C45   S    
O14   V2    S    
C21   C25   A    
C80   H43   S    
C48   C60   S    
C51   C63   T    
C74   H26   S    
O11   C7    A    
C76   H30   S    
O12   C8    A    
C22   C34   A    
C9    C29   A    
C84   O36   S    
C38   C74   S    
C83   O34   S    
O10   V2    S    
C48   C55   S    
C66   H9    S    
C24   C36   A    
O5    V1    S    
C40   C76   S    
C85   H50   S    
C31   C40   A    
O17   V1    S    
C76   H32   S    
O7    V3    S    
C78   H37   S    
C11   C31   A    
C27   C28   A    
O8    V4    S    
C67   H11   S    
O20   V4    S    
C58   C62   S    
C87   H56   S    
O34   H47   S    
C57   C61   S    
O18   V4    S    
C88   H60   S    
C17   H1    S    
C87   H55   S    
O19   V3    S    
C9    C13   A    
C1    C52   S    
C52   C64   T    
C11   C15   A    
C19   H3    S    
C42   C46   S    
C12   C32   A    
C3    C50   S    
C23   C27   A    
C73   H22   S    
C34   C70   S    
C76   H31   S    
C29   C38   A    
O30   H45   S    
C54   C85   S    
C12   C16   A    
O8    C4    A    
C86   H54   S    
C49   C61   T    
C4    C49   S    
C8    C13   S    
C32   C39   A    
O9    C5    A    
C26   C30   A    
C68   H16   S    
C46   C58   S    
C80   H44   S    
C33   C37   A    
C45   C57   S    
C72   O27   D    
C44   C56   S    
C86   H52   S    
C75   H29   S    
C79   H41   S    
C47   C59   S    
O6    V2    S    
C65   H7    S    
C10   C30   A    
C67   H13   S    
C73   H21   S    
C79   H40   S    
C20   H4    S    
C35   C71   S    
C46   C53   S    
C42   C82   S    
C45   C54   S    
C44   C59   S    
C18   H2    S    
C70   O23   D    
O16   V4    S    
C87   H57   S    
C3    O13   A    
C66   H10   S    
O22   H17   S    
C12   C68   S    
C10   C14   A    
O17   V3    S    
C56   C60   S    
C11   C67   S    
C9    C65   S    
O6    C2    A    
C81   O30   S    
C2    C51   S    
O11   V3    S    
C77   H35   S    
C30   C37   A    
O12   V4    S    
C7    C14   S    
C68   H14   S    
C22   C26   A    
C35   C39   A    
C67   H12   S    
C36   C40   A    
C44   C84   S    
O10   C6    A    
C77   H34   S    
C74   H24   S    
C53   C86   S    
C54   C58   S    
C79   H39   S    
C43   C47   S    
C43   C55   S    
C88   H58   S    
C75   H27   S    
C5    C16   S    
C28   C32   A    
C47   C79   S    
C25   C29   A    
C6    C15   S    
O20   V2    S    
C85   H51   S    
C27   C31   A    
C13   C17   A    
C36   C72   S    
C42   C54   S    
O4    V2    S    
C72   O28   S    
C41   C53   S    
C23   C35   A    
C43   C60   S    
C69   O21   D    
C16   C20   A    
C15   C19   A    
C65   H6    S    
C25   C26   A    
C43   C83   S    
C4    O14   A    
C75   H28   S    
C17   C21   A    
C55   C88   S    
C37   C73   S    
C70   O24   S    
C80   H42   S    
C77   H33   S    
C42   C57   S    
C19   C23   A    
C53   C57   S    
C41   C58   S    
C20   C24   A    
C74   H25   S    
O18   V2    S    
