data_mof_unit_50599.cif
_audit_creation_date              2012-12-10T17:13:38-0500
_audit_creation_method            fapswitch 2.2
_symmetry_space_group_name_H-M    P1
_symmetry_Int_Tables_number       1
_space_group_crystal_system       triclinic
_cell_length_a                    10.74327
_cell_length_b                    13.027766
_cell_length_c                    11.651387
_cell_angle_alpha                 100.608312
_cell_angle_beta                  93.607226
_cell_angle_gamma                 90.159712
_cell_volume                      1599.51878854

loop_
_atom_site_label
_atom_site_type_symbol
_atom_type_description
_atom_site_fract_x
_atom_site_fract_y
_atom_site_fract_z
_atom_type_partial_charge
C1    C     C_R   0.497892 0.299040 0.477892 0.819801
C2    C     C_3   0.878344 0.497226 0.498088 -0.046381
C3    C     C_3   0.926158 0.588546 0.441014 -0.157243
C4    C     C_3   0.923290 0.389501 0.429925 -0.181816
C5    C     C_R   0.513159 0.816163 0.538340 -0.160598
C6    C     C_R   0.495742 0.185670 0.464565 -0.097718
C7    C     C_R   0.456445 0.013485 0.345414 0.150210
C8    C     C_R   0.461264 0.122579 0.357034 -0.158186
C9    C     C_R   0.527726 0.141505 0.561781 -0.261302
C10   C     C_R   0.525636 0.033643 0.555392 0.107944
C11   C     C_R   0.487728 0.968975 0.446505 0.070942
C12   C     C_R   0.259965 0.500020 0.500570 0.768498
C13   C     C_R   0.481377 0.861194 0.440945 -0.275337
C14   C     C_R   0.554383 0.880174 0.646243 -0.028170
C15   C     C_R   0.560660 0.989676 0.655633 0.091498
C16   C     C_R   0.365572 0.412908 0.022989 0.037263
C17   C     C_R   0.383191 0.420775 0.146208 0.070104
C18   C     C_R   0.557821 0.533830 0.155810 0.035646
C19   C     C_R   0.546561 0.528695 0.033375 0.036958
C20   C     C_R   0.449371 0.468476 0.965660 -0.007560
C21   C     C_R   0.440203 0.465909 0.842458 0.023930
C22   C     C_R   0.618153 0.575944 0.855645 0.129704
C23   C     C_R   0.505024 0.701472 0.522636 0.851587
C24   C     C_R   0.630826 0.582418 0.977407 -0.292099
C25   C     C_R   0.740248 0.498361 0.499328 0.790268
C26   C     C_3   0.079846 0.512868 0.627347 -0.363173
C27   C     C_3   0.937490 0.508771 0.625912 -0.377075
C28   C     C_3   0.070176 0.587208 0.442635 -0.453367
C29   C     C_3   0.068958 0.390056 0.428154 -0.055920
C30   C     C_3   0.122444 0.496436 0.500424 0.072713
Cu1   Cu    Cu3+1 0.509350 0.507730 0.615930 0.960647
Cu2   Cu    Cu3+1 0.490650 0.492270 0.384070 0.959267
H1    H     H_    0.114176 0.590124 0.676989 0.205526
H2    H     H_    0.098536 0.577862 0.351017 0.177557
H3    H     H_    0.889795 0.575030 0.348072 0.177560
H4    H     H_    0.450503 0.810412 0.360013 0.168679
H5    H     H_    0.436788 0.159941 0.283475 0.165276
H6    H     H_    0.553810 0.193552 0.642818 0.176700
H7    H     H_    0.367721 0.420448 0.787112 0.113741
H8    H     H_    0.119594 0.452463 0.674673 0.156565
H9    H     H_    0.685149 0.615467 0.813162 0.132264
H10   H     H_    0.706818 0.628472 0.027324 0.145689
H11   H     H_    0.322179 0.379805 0.193116 0.142006
H12   H     H_    0.631353 0.580895 0.208312 0.155557
H13   H     H_    0.908946 0.441312 0.665231 0.165164
H14   H     H_    0.904066 0.579663 0.683347 0.222931
H15   H     H_    0.112129 0.662685 0.490051 0.184315
H16   H     H_    0.096491 0.386246 0.336811 0.177193
H17   H     H_    0.893897 0.329525 0.480083 0.138662
N1    N     N_R   0.523430 0.519360 0.790130 -0.175844
N2    N     N_R   0.476570 0.480640 0.209880 -0.207919
O1    O     O_R   0.506640 0.354460 0.582000 -0.601727
O2    O     O_R   0.490840 0.341410 0.386200 -0.576772
O3    O     O_R   0.325590 0.506510 0.597900 -0.593565
O4    O     O_R   0.309790 0.493450 0.402100 -0.604118
O5    O     O_R   0.509160 0.658590 0.613800 -0.560572
O6    O     O_R   0.493360 0.645540 0.418000 -0.578083
O7    O     O_R   0.690210 0.506550 0.597900 -0.596935
O8    O     O_R   0.674410 0.493490 0.402100 -0.567053
C31   C     C_2   0.861761 0.355832 0.307602 0.842471
O9    O     O_2   0.886406 0.400535 0.228102 -0.627930
O10   O     O_R   0.776574 0.272094 0.286165 -0.764932
H18   H     H_    0.740641 0.256862 0.202113 0.334298
C32   C     C_2   0.594453 0.834221 0.749403 0.850685
O11   O     O_2   0.517582 0.815846 0.816281 -0.595878
O12   O     O_R   0.721118 0.817068 0.772456 -0.748184
H19   H     H_    0.738835 0.793685 0.850057 0.316886
C33   C     C_3   0.418776 0.944173 0.227343 -0.400973
C34   C     C_3   0.391978 0.999925 0.123800 -0.823406
H20   H     H_    0.311212 0.052619 0.139316 0.239220
H21   H     H_    0.475541 0.044721 0.108441 0.255737
H22   H     H_    0.368304 0.941025 0.043497 0.270058
H23   H     H_    0.495146 0.888391 0.203528 0.218655
H24   H     H_    0.333415 0.898794 0.236659 0.204441
C35   C     C_3   0.603468 0.058671 0.772932 -0.392235
C36   C     C_3   0.492053 0.103603 0.839780 -0.826866
H25   H     H_    0.431739 0.148720 0.786934 0.243589
H26   H     H_    0.435529 0.039413 0.862161 0.273970
H27   H     H_    0.525528 0.156256 0.922135 0.242380
H28   H     H_    0.660713 0.015919 0.830549 0.223550
H29   H     H_    0.668044 0.121716 0.760544 0.193483
C37   C     C_3   0.259279 0.347415 0.952367 -0.434714
C38   C     C_3   0.175524 0.289364 0.021568 -0.823268
H30   H     H_    0.230834 0.233507 0.064688 0.237373
H31   H     H_    0.128012 0.345449 0.087828 0.264584
H32   H     H_    0.102718 0.244252 0.960796 0.254377
H33   H     H_    0.199041 0.399268 0.907682 0.206638
H34   H     H_    0.299445 0.288140 0.884190 0.203831
C39   C     C_2   0.879196 0.695269 0.494843 0.836425
O13   O     O_2   0.914705 0.736859 0.594355 -0.565671
O14   O     O_R   0.796566 0.747173 0.428407 -0.779794
H35   H     H_    0.773512 0.818525 0.472130 0.340448
C40   C     C_3   0.126149 0.292929 0.470854 -0.443370
C41   C     C_3   0.099966 0.192168 0.381864 -0.814692
H36   H     H_    0.998395 0.174534 0.369431 0.274234
H37   H     H_    0.136633 0.198916 0.296453 0.243370
H38   H     H_    0.147131 0.126144 0.413976 0.250943
H39   H     H_    0.228926 0.301720 0.485052 0.201893
H40   H     H_    0.089675 0.284036 0.555686 0.214540

loop_
_geom_bond_atom_site_label_1
_geom_bond_atom_site_label_2
_ccdc_geom_bond_type
C15   C35   S    
C28   H15   S    
C40   C41   S    
C24   H10   S    
C19   C20   A    
C36   H27   S    
Cu1   O1    S    
C17   N2    A    
C6    C9    A    
C7    C8    A    
C7    C11   A    
C26   C27   S    
C29   C30   S    
Cu1   O7    S    
C3    C28   S    
C36   H26   S    
C10   C15   A    
C22   H9    S    
C33   H24   S    
C37   H33   S    
C31   O10   S    
C18   C19   A    
C34   H21   S    
C1    O2    A    
C7    C33   S    
C33   C34   S    
Cu1   Cu2   S    
C16   C17   A    
C5    C23   S    
C2    C27   S    
Cu1   O5    S    
C39   O14   S    
C35   H28   S    
C40   H40   S    
Cu2   O4    S    
C5    C13   A    
C4    C29   S    
C22   N1    A    
C27   H13   S    
O12   H19   S    
C28   H2    S    
C34   H20   S    
Cu2   O6    S    
C21   N1    A    
C18   N2    A    
C29   H16   S    
C1    C6    S    
C23   O5    A    
C36   H25   S    
C13   H4    S    
O14   H35   S    
C35   H29   S    
C6    C8    A    
C41   H38   S    
C33   H23   S    
C31   O9    D    
C32   O12   S    
C34   H22   S    
C2    C4    S    
C35   C36   S    
C17   H11   S    
Cu2   N2    S    
O10   H18   S    
C18   H12   S    
C26   H1    S    
C38   H30   S    
C21   H7    S    
C3    H3    S    
C16   C20   A    
C14   C32   S    
C4    C31   S    
C16   C37   S    
C41   H37   S    
C5    C14   A    
C27   H14   S    
C38   H31   S    
C26   C30   S    
C22   C24   A    
C8    H5    S    
Cu1   N1    S    
Cu2   O2    S    
C9    C10   A    
C23   O6    A    
C12   C30   S    
C4    H17   S    
C3    C39   S    
C32   O11   D    
C28   C30   S    
C2    C3    S    
C29   C40   S    
C11   C13   A    
C26   H8    S    
C37   H34   S    
C9    H6    S    
C19   C24   A    
C2    C25   S    
Cu1   O3    S    
C41   H36   S    
C1    O1    A    
C12   O4    A    
C10   C11   A    
C38   H32   S    
C20   C21   A    
C37   C38   S    
C25   O7    A    
C14   C15   A    
C25   O8    A    
Cu2   O8    S    
C39   O13   D    
C40   H39   S    
C12   O3    A    
