data_mof_unit_49401.cif
_audit_creation_date              2012-12-11T15:12:48-0500
_audit_creation_method            fapswitch 2.2
_symmetry_space_group_name_H-M    P1
_symmetry_Int_Tables_number       1
_space_group_crystal_system       triclinic
_cell_length_a                    22.217301
_cell_length_b                    6.957525
_cell_length_c                    19.424517
_cell_angle_alpha                 90.001976
_cell_angle_beta                  99.553056
_cell_angle_gamma                 90.001141
_cell_volume                      2960.95294841

loop_
_atom_site_label
_atom_site_type_symbol
_atom_type_description
_atom_site_fract_x
_atom_site_fract_y
_atom_site_fract_z
_atom_type_partial_charge
O1    O     O_R   0.448420 0.506120 0.415750 -0.537224
O2    O     O_R   0.551580 0.006120 0.584250 -0.537227
O3    O     O_R   0.436490 0.174470 0.555610 -0.529515
O4    O     O_R   0.563510 0.674470 0.444390 -0.529518
C1    C     C_R   0.421266 0.344363 0.575869 0.708264
C2    C     C_R   0.578737 0.844363 0.424136 0.708244
O5    O     O_R   0.441310 0.176330 0.414520 -0.537605
O6    O     O_R   0.558690 0.676330 0.585480 -0.537596
O7    O     O_R   0.556430 0.007110 0.442150 -0.530905
O8    O     O_R   0.443570 0.507110 0.557850 -0.530904
C3    C     C_R   0.426489 0.344850 0.388324 0.700796
C4    C     C_R   0.573509 0.844861 0.611676 0.700799
O9    O     O_3   0.537770 0.339560 0.509230 -0.363214
O10   O     O_3   0.462230 0.839560 0.490770 -0.363218
V1    V     V_3+5 0.492990 0.064280 0.498290 1.525672
V2    V     V_3+5 0.507010 0.564280 0.501710 1.525678
C5    C     C_R   0.866033 0.076120 0.700989 0.134450
C6    C     C_R   0.134021 0.576978 0.298922 0.134402
H1    H     H_    0.952770 0.086384 0.770218 0.126180
H2    H     H_    0.047293 0.587246 0.229679 0.126169
C7    C     C_R   0.885553 0.950666 0.819810 -0.086903
C8    C     C_R   0.114443 0.450760 0.180197 -0.086933
C9    C     C_R   0.595175 0.778715 0.737864 -0.164919
C10   C     C_R   0.404794 0.278429 0.262154 -0.164875
C11   C     C_R   0.629995 0.796485 0.804431 0.146159
C12   C     C_R   0.369962 0.296028 0.195589 0.146195
C13   C     C_R   0.688828 0.880566 0.812473 0.136877
C14   C     C_R   0.311142 0.380189 0.187529 0.136861
C15   C     C_R   0.716451 0.914573 0.751951 0.048864
C16   C     C_R   0.283539 0.414458 0.248049 0.048844
C17   C     C_R   0.677277 0.918458 0.685955 -0.016403
C18   C     C_R   0.322725 0.418475 0.314035 -0.016439
C19   C     C_R   0.780764 0.948632 0.754344 0.025372
C20   C     C_R   0.219234 0.448668 0.245657 0.025333
C21   C     C_R   0.802254 0.030876 0.694968 0.056616
C22   C     C_R   0.197773 0.531260 0.304997 0.056556
C23   C     C_R   0.758863 0.060432 0.632807 0.251038
C24   C     C_R   0.241168 0.560705 0.367165 0.251089
C25   C     C_R   0.699366 0.992752 0.628191 -0.187292
C26   C     C_R   0.300651 0.492903 0.371787 -0.187306
C27   C     C_R   0.824468 0.894928 0.813354 -0.213125
C28   C     C_R   0.175511 0.394810 0.186683 -0.213162
C29   C     C_R   0.905362 0.041971 0.764078 -0.135462
C30   C     C_R   0.094677 0.542566 0.235862 -0.135419
C31   C     C_R   0.616185 0.850982 0.679222 -0.111261
C32   C     C_R   0.383809 0.350922 0.320777 -0.111283
H3    H     H_    0.811560 0.813004 0.855747 0.133852
H4    H     H_    0.188396 0.312633 0.144334 0.133883
H5    H     H_    0.549528 0.718846 0.732032 0.147233
H6    H     H_    0.450430 0.218479 0.267997 0.147218
H7    H     H_    0.669268 0.006209 0.578537 0.151202
H8    H     H_    0.330749 0.506318 0.421442 0.151245
C33   C     C_3   0.820943 0.816489 0.277655 0.108820
C34   C     C_3   0.179076 0.316426 0.722365 0.108808
C35   C     C_3   0.767521 0.115178 0.225417 -0.352334
C36   C     C_3   0.232488 0.615158 0.774596 -0.352387
C37   C     C_3   0.714505 0.096824 0.268906 0.489994
C38   C     C_3   0.285521 0.596798 0.731133 0.489993
H9    H     H_    0.752373 0.198035 0.176715 0.203295
H10   H     H_    0.247618 0.698061 0.823294 0.203289
H11   H     H_    0.805719 0.199707 0.255020 0.199221
H12   H     H_    0.194292 0.699635 0.744970 0.199188
C39   C     C_1   0.624323 0.853018 0.378640 -0.073894
C40   C     C_1   0.375689 0.353014 0.621375 -0.073875
C41   C     C_3   0.791598 0.914063 0.207577 -0.007754
C42   C     C_3   0.208413 0.414044 0.792441 -0.007725
C43   C     C_3   0.773432 0.805392 0.329613 -0.190134
C44   C     C_3   0.226585 0.305411 0.670403 -0.190374
C45   C     C_3   0.708775 0.881778 0.293039 -0.016606
C46   C     C_3   0.291243 0.381767 0.706986 -0.016598
C47   C     C_3   0.691811 0.750196 0.226669 0.131319
C48   C     C_3   0.308194 0.250176 0.773349 0.131398
C49   C     C_3   0.736398 0.787640 0.173281 0.099377
C50   C     C_3   0.263614 0.287646 0.826740 0.099382
C51   C     C_1   0.662209 0.863077 0.340213 0.144674
C52   C     C_1   0.337809 0.363067 0.659811 0.144674
C53   C     C_1   0.837324 0.930734 0.159397 0.091555
C54   C     C_1   0.162685 0.430720 0.840617 0.091567
C55   C     C_1   0.875125 0.940799 0.120871 -0.137138
C56   C     C_1   0.124880 0.440793 0.879138 -0.137125
H13   H     H_    0.754381 0.645856 0.159437 0.095833
H14   H     H_    0.245631 0.145871 0.840593 0.095835
H15   H     H_    0.699680 0.598867 0.244126 0.135352
H16   H     H_    0.300305 0.098865 0.755883 0.135338
H17   H     H_    0.832961 0.666358 0.265314 0.113263
H18   H     H_    0.167085 0.166271 0.734708 0.113253
H19   H     H_    0.767628 0.650462 0.339959 0.194001
H20   H     H_    0.232386 0.150503 0.660014 0.194075
O11   O     O_R   0.056480 0.288780 0.942210 -0.537040
O12   O     O_R   0.943520 0.788780 0.057790 -0.537045
O13   O     O_R   0.058700 0.616820 0.085490 -0.538366
O14   O     O_R   0.941300 0.116820 0.914510 -0.538333
C57   C     C_R   0.073183 0.449172 0.111994 0.703796
C58   C     C_R   0.926816 0.949159 0.888008 0.703824
O15   O     O_R   0.063520 0.618570 0.944410 -0.534790
O16   O     O_R   0.936480 0.118570 0.055590 -0.534785
O17   O     O_R   0.948420 0.787670 0.915740 -0.534150
O18   O     O_R   0.051580 0.287670 0.084260 -0.534156
C59   C     C_R   0.079056 0.449958 0.924319 0.722607
C60   C     C_R   0.920945 0.949959 0.075684 0.722560
O19   O     O_3   0.962260 0.453430 0.990800 -0.367563
O20   O     O_3   0.037740 0.953430 0.009200 -0.367582
V3    V     V_3+5 0.007000 0.728750 0.001710 1.454817
V4    V     V_3+5 0.993000 0.228750 0.998290 1.454860
Br1   Br    Br    0.900333 0.931439 0.316623 -0.548796
Br2   Br    Br    0.099662 0.431217 0.683407 -0.548790
Br3   Br    Br    0.726759 0.275421 0.347461 -0.564615
Br4   Br    Br    0.273316 0.775458 0.652600 -0.564711
Br5   Br    Br    0.639065 0.194389 0.213658 -0.382993
Br6   Br    Br    0.360957 0.694280 0.786421 -0.382884
Br7   Br    Br    0.697098 0.894824 0.083486 -0.448821
Br8   Br    Br    0.302918 0.394875 0.916527 -0.448785
Br9   Br    Br    0.771564 0.194808 0.549639 -0.562304
Br10  Br    Br    0.228468 0.694726 0.450409 -0.562409
Br11  Br    Br    0.604753 0.734143 0.186517 -0.332020
Br12  Br    Br    0.395250 0.234009 0.813495 -0.332044
C61   C     C_3   0.895525 0.159636 0.643090 -0.617022
H21   H     H_    0.887860 0.063460 0.596904 0.244212
H22   H     H_    0.878112 0.306988 0.630413 0.245478
H23   H     H_    0.945839 0.173307 0.657992 0.213956
C62   C     C_3   0.104580 0.661525 0.356699 -0.617117
H24   H     H_    0.111991 0.565525 0.402938 0.244448
H25   H     H_    0.122257 0.808630 0.369323 0.245308
H26   H     H_    0.054297 0.676114 0.341696 0.213978
C63   C     C_3   0.715077 0.962577 0.883507 -0.736734
H27   H     H_    0.732307 0.845333 0.920325 0.225820
H28   H     H_    0.751409 0.070121 0.880787 0.204737
H29   H     H_    0.679407 0.043414 0.905127 0.244808
C64   C     C_3   0.284886 0.461984 0.116466 -0.736709
H30   H     H_    0.267634 0.344635 0.079700 0.225754
H31   H     H_    0.248569 0.569601 0.119150 0.204729
H32   H     H_    0.320559 0.542686 0.094799 0.244876
C65   C     C_3   0.602768 0.730447 0.866645 -0.610322
H33   H     H_    0.559173 0.651846 0.850535 0.229231
H34   H     H_    0.634954 0.631632 0.899158 0.218608
H35   H     H_    0.593127 0.855438 0.898564 0.241668
C66   C     C_3   0.397157 0.229679 0.133391 -0.610441
H36   H     H_    0.440754 0.151112 0.149523 0.229216
H37   H     H_    0.364956 0.130747 0.100952 0.218524
H38   H     H_    0.406787 0.354513 0.101394 0.241715
C67   C     C_3   0.797109 0.884360 0.403359 -0.476032
H39   H     H_    0.815585 0.031618 0.402199 0.284671
H40   H     H_    0.760810 0.882207 0.436231 0.221004
H41   H     H_    0.834693 0.791389 0.429648 0.228697
C68   C     C_3   0.202912 0.384544 0.596691 -0.476001
H42   H     H_    0.184435 0.531781 0.597911 0.284628
H43   H     H_    0.239212 0.382496 0.563824 0.221118
H44   H     H_    0.165326 0.291625 0.570370 0.228762

loop_
_geom_bond_atom_site_label_1
_geom_bond_atom_site_label_2
_ccdc_geom_bond_type
C25   H7    S    
C9    C31   A    
C35   H9    S    
C13   C15   A    
O1    C3    A    
C12   C66   S    
O2    C4    A    
C2    O7    A    
C68   H42   S    
O3    V1    S    
C8    C28   A    
O5    C3    A    
C66   H37   S    
O16   C60   A    
O11   C59   A    
C21   C23   A    
C10   C12   A    
C61   H22   S    
C50   Br8   S    
C24   Br10  S    
O15   C59   A    
C9    H5    S    
C34   C44   S    
C7    C58   S    
C42   C50   S    
C15   C19   A    
C41   C49   S    
C14   C64   S    
C49   H13   S    
C45   C47   S    
C62   H26   S    
C68   H43   S    
C7    C29   A    
C8    C30   A    
O15   V3    S    
C14   C16   A    
C20   C28   A    
C63   H29   S    
O10   V2    S    
C36   C38   S    
C16   C18   A    
C11   C65   S    
C20   C22   A    
C5    C61   S    
C64   H32   S    
O5    V1    S    
O6    V2    S    
C50   H14   S    
O12   C60   A    
C35   C41   S    
H1    C29   S    
C49   Br7   S    
C47   H15   S    
C53   C55   T    
C10   H6    S    
C42   C54   S    
C66   H38   S    
C37   Br5   S    
O17   V3    S    
C41   C53   S    
C16   C20   A    
C27   H3    S    
C48   C50   S    
C61   H23   S    
C47   C49   S    
C34   Br2   S    
C38   C46   S    
C58   O17   A    
C26   H8    S    
C36   H10   S    
C1    C40   S    
C43   H19   S    
C43   C45   S    
C2    C39   S    
O4    V2    S    
C5    C29   A    
C35   C37   S    
C63   H28   S    
C6    C30   A    
O13   C57   A    
C55   C60   S    
O6    C4    A    
O14   C58   A    
C40   C52   T    
C54   C56   T    
C47   Br11  S    
O1    V2    S    
C28   H4    S    
O20   V4    S    
O2    V1    S    
C62   H24   S    
C48   H16   S    
C65   H35   S    
C7    C27   A    
O4    C2    A    
C37   Br3   S    
H2    C30   S    
O19   V4    S    
O9    V1    S    
O11   V4    S    
C46   C52   S    
C65   H33   S    
C44   H20   S    
C8    C57   S    
C36   H12   S    
C67   H41   S    
C56   C59   S    
C43   C67   S    
C68   H44   S    
C33   C41   S    
C34   H18   S    
C64   H30   S    
O16   V4    S    
C38   Br6   S    
C18   C32   A    
O13   V3    S    
C4    C31   S    
O3    C1    A    
C46   C48   S    
C34   C42   S    
C11   C13   A    
C66   H36   S    
C48   Br12  S    
C12   C14   A    
C19   C27   A    
C67   H40   S    
O7    V1    S    
C10   C32   A    
C1    O8    A    
C15   C17   A    
O8    V2    S    
C67   H39   S    
C24   C26   A    
C13   C63   S    
C63   H27   S    
C39   C51   T    
C36   C42   S    
C35   H11   S    
C22   C24   A    
C19   C21   A    
C17   C25   A    
C45   C51   S    
C38   Br4   S    
C18   C26   A    
O20   V3    S    
C33   C43   S    
O12   V3    S    
C62   H25   S    
O14   V4    S    
C6    C62   S    
C33   Br1   S    
C23   C25   A    
C9    C11   A    
C23   Br9   S    
O19   V3    S    
C17   C31   A    
O9    V2    S    
C65   H34   S    
C44   C46   S    
O10   V1    S    
C3    C32   S    
C33   H17   S    
C5    C21   A    
C37   C45   S    
C61   H21   S    
C6    C22   A    
C57   O18   A    
O18   V4    S    
C44   C68   S    
C64   H31   S    
