data_mof_unit_18830.cif
_audit_creation_date              2012-12-10T17:02:28-0500
_audit_creation_method            fapswitch 2.2
_symmetry_space_group_name_H-M    P1
_symmetry_Int_Tables_number       1
_space_group_crystal_system       triclinic
_cell_length_a                    10.779795
_cell_length_b                    11.073673
_cell_length_c                    9.833855
_cell_angle_alpha                 111.189137
_cell_angle_beta                  97.872071
_cell_angle_gamma                 90.877833
_cell_volume                      1081.5342976

loop_
_atom_site_label
_atom_site_type_symbol
_atom_type_description
_atom_site_fract_x
_atom_site_fract_y
_atom_site_fract_z
_atom_type_partial_charge
C1    C     C_R   0.494848 0.254651 0.440670 0.814052
C2    C     C_R   0.505160 0.745351 0.559332 0.814052
C3    C     C_2   0.482748 0.116263 0.407925 -0.388666
C4    C     C_2   0.517284 0.883738 0.592081 -0.388641
C5    C     C_2   0.528500 0.063604 0.506631 0.182007
C6    C     C_2   0.471518 0.936407 0.493390 0.182012
C7    C     C_2   0.510505 0.510392 0.081206 -0.045960
C8    C     C_2   0.489495 0.489608 0.918794 -0.045964
C9    C     C_R   0.263141 0.500281 0.501798 0.789887
C10   C     C_R   0.736861 0.499709 0.498201 0.789867
C11   C     C_R   0.141183 0.738315 0.569678 -0.152360
C12   C     C_R   0.858813 0.261665 0.430319 -0.152397
C13   C     C_R   0.081563 0.853412 0.593674 -0.142251
C14   C     C_R   0.918437 0.146569 0.406309 -0.142225
C15   C     C_R   0.951695 0.852195 0.584415 -0.138095
C16   C     C_R   0.048306 0.147787 0.415572 -0.138094
C17   C     C_R   0.881087 0.736020 0.552155 -0.151328
C18   C     C_R   0.118914 0.263963 0.447848 -0.151351
C19   C     C_R   0.939837 0.617841 0.526833 0.070142
C20   C     C_R   0.060162 0.382142 0.473170 0.070149
C21   C     C_R   0.071235 0.618801 0.533998 0.074776
C22   C     C_R   0.928762 0.381182 0.466004 0.074774
C23   C     C_R   0.870196 0.499208 0.494405 -0.175912
C24   C     C_R   0.129805 0.500777 0.505594 -0.175916
Cu1   Cu    Cu3+1 0.521920 0.521810 0.644910 0.952539
Cu2   Cu    Cu3+1 0.478080 0.478190 0.355090 0.952550
H1    H     H_    0.094446 0.058334 0.397064 0.127314
H2    H     H_    0.905554 0.941647 0.602914 0.127313
H3    H     H_    0.242360 0.744046 0.580331 0.114364
H4    H     H_    0.757640 0.255933 0.419666 0.114371
H5    H     H_    0.136395 0.943830 0.619783 0.133712
H6    H     H_    0.863599 0.056150 0.380186 0.133711
H7    H     H_    0.780367 0.739753 0.546485 0.120830
H8    H     H_    0.219629 0.260232 0.453522 0.120835
H9    H     H_    0.579496 0.940261 0.692686 0.161291
H10   H     H_    0.420554 0.059726 0.307308 0.161300
H11   H     H_    0.416855 0.417482 0.846018 0.164350
H12   H     H_    0.583145 0.582517 0.153982 0.164347
H13   H     H_    0.623239 0.622460 0.934225 0.197060
H14   H     H_    0.376761 0.377539 0.065774 0.197060
N1    N     N_2   0.445130 0.445420 0.137360 -0.282851
N2    N     N_2   0.554870 0.554580 0.862640 -0.282854
O1    O     O_R   0.511700 0.332340 0.577400 -0.560820
O2    O     O_R   0.488300 0.667660 0.422600 -0.560797
O3    O     O_R   0.474680 0.295500 0.332650 -0.570951
O4    O     O_R   0.525320 0.704500 0.667350 -0.570952
O5    O     O_R   0.338170 0.518410 0.622370 -0.576085
O6    O     O_R   0.661830 0.481590 0.377630 -0.576081
O7    O     O_R   0.301150 0.481570 0.377630 -0.569624
O8    O     O_R   0.698850 0.518430 0.622370 -0.569631
N3    N     N_3   0.367146 0.873537 0.377223 -0.566778
H15   H     H_    0.297187 0.939282 0.388290 0.187937
H16   H     H_    0.323007 0.796433 0.393285 0.231402
N4    N     N_3   0.632854 0.126486 0.622820 -0.566782
H17   H     H_    0.702831 0.060761 0.611749 0.187935
H18   H     H_    0.676979 0.203618 0.606793 0.231430

loop_
_geom_bond_atom_site_label_1
_geom_bond_atom_site_label_2
_ccdc_geom_bond_type
Cu1   N2    S    
C19   C23   A    
C9    C24   S    
C10   C23   S    
C11   C13   A    
Cu1   O5    S    
C2    C4    S    
Cu2   O6    S    
C3    C5    D    
Cu1   O1    S    
C16   H1    S    
C7    N1    D    
C12   C14   A    
C4    H9    S    
Cu2   O2    S    
C7    C8    S    
C2    O4    A    
C18   H8    S    
C1    O3    A    
C15   H2    S    
C17   H7    S    
C3    H10   S    
C16   C18   A    
H14   N1    S    
C19   C21   A    
C7    H12   S    
C8    N2    D    
C9    O5    A    
H13   N2    S    
C18   C20   A    
C13   C15   A    
C10   O6    A    
C5    C6    S    
C6    N3    S    
C14   C16   A    
Cu2   O7    S    
C8    H11   S    
C11   C21   A    
N3    H15   S    
C10   O8    A    
C12   C22   A    
C5    N4    S    
C9    O7    A    
C2    O2    A    
C11   H3    S    
C4    C6    D    
C21   C24   A    
C14   H6    S    
C1    C3    S    
C15   C17   A    
C13   H5    S    
N4    H17   S    
C17   C19   A    
Cu2   O3    S    
C12   H4    S    
Cu1   Cu2   S    
Cu1   O8    S    
Cu1   O4    S    
C1    O1    A    
C22   C23   A    
C20   C24   A    
Cu2   N1    S    
C20   C22   A    
N4    H18   S    
N3    H16   S    
