data_mof_unit_54048.cif
_audit_creation_date              2012-12-11T15:28:45-0500
_audit_creation_method            fapswitch 2.2
_symmetry_space_group_name_H-M    P1
_symmetry_Int_Tables_number       1
_space_group_crystal_system       triclinic
_cell_length_a                    6.951405
_cell_length_b                    19.453803
_cell_length_c                    23.421381
_cell_angle_alpha                 96.044456
_cell_angle_beta                  90.62675
_cell_angle_gamma                 89.173037
_cell_volume                      3149.22493777

loop_
_atom_site_label
_atom_site_type_symbol
_atom_type_description
_atom_site_fract_x
_atom_site_fract_y
_atom_site_fract_z
_atom_type_partial_charge
O1    O     O_R   0.617180 0.809390 0.808140 -0.506284
O2    O     O_R   0.382820 0.190610 0.191860 -0.513579
O3    O     O_R   0.293300 0.672410 0.795490 -0.547323
O4    O     O_R   0.706700 0.327590 0.204510 -0.519088
O5    O     O_R   0.117220 0.690610 0.691850 -0.533474
O6    O     O_R   0.882780 0.309390 0.308150 -0.526022
C1    C     C_R   0.463263 0.647034 0.805011 0.821240
C2    C     C_R   0.536588 0.353273 0.195211 0.815721
O7    O     O_R   0.287840 0.807750 0.814460 -0.518974
O8    O     O_R   0.712160 0.192250 0.185540 -0.511576
O9    O     O_R   0.111720 0.826910 0.710960 -0.528500
O10   O     O_R   0.888280 0.173090 0.289040 -0.532821
C3    C     C_R   0.456424 0.830792 0.833168 0.763919
C4    C     C_R   0.543584 0.169227 0.166819 0.764003
O11   O     O_R   0.622680 0.673080 0.789040 -0.518451
O12   O     O_R   0.377320 0.326920 0.210960 -0.545484
O13   O     O_3   0.448820 0.756130 0.716020 -0.373878
O14   O     O_3   0.551180 0.243870 0.283980 -0.372055
V1    V     V_3+5 0.176220 0.748860 0.756300 1.489022
V2    V     V_3+5 0.823780 0.251140 0.243700 1.505983
O15   O     O_R   0.781670 0.827580 0.704500 -0.533944
O16   O     O_R   0.218330 0.172420 0.295500 -0.528150
C5    C     C_R   0.949276 0.851590 0.693548 0.781604
C6    C     C_R   0.050562 0.147911 0.305887 0.784887
O17   O     O_R   0.787130 0.692240 0.685530 -0.528319
O18   O     O_R   0.212870 0.307760 0.314470 -0.534184
C7    C     C_R   0.956204 0.669770 0.666468 0.671759
C8    C     C_R   0.043514 0.329899 0.333735 0.668667
V3    V     V_3+5 0.675510 0.751130 0.743690 1.493111
V4    V     V_3+5 0.324490 0.248870 0.256310 1.474043
O19   O     O_3   0.952780 0.743870 0.783980 -0.341454
O20   O     O_3   0.047220 0.256130 0.216020 -0.346169
C9    C     C_1   0.966821 0.617781 0.614367 -0.218243
C10   C     C_1   0.032558 0.381805 0.385902 -0.217915
C11   C     C_1   0.978291 0.574016 0.571693 -0.002223
C12   C     C_1   0.021120 0.425553 0.428595 -0.000532
C13   C     C_1   0.993239 0.521823 0.521359 0.003152
C14   C     C_1   0.006164 0.477752 0.478929 0.004832
C15   C     C_R   0.952318 0.915077 0.663717 -0.159239
C16   C     C_R   0.043905 0.083942 0.335048 -0.154692
C17   C     C_R   0.895614 0.039027 0.666430 0.387689
C18   C     C_R   0.046878 0.958264 0.330200 0.429475
C19   C     C_R   0.923326 0.979528 0.695010 0.149233
C20   C     C_R   0.061887 0.019235 0.303058 0.128161
C21   C     C_R   0.972198 0.910993 0.603867 -0.257040
C22   C     C_R   0.010358 0.087453 0.394299 -0.252944
C23   C     C_R   0.965463 0.971150 0.573868 0.011277
C24   C     C_R   0.004555 0.026809 0.423537 0.003999
C25   C     C_R   0.920654 0.035879 0.605872 -0.099087
C26   C     C_R   0.038698 0.961842 0.391067 -0.081578
C27   C     C_R   0.996362 0.968465 0.512896 0.039521
C28   C     C_R   0.971621 0.029116 0.484190 0.038096
C29   C     C_R   0.912553 0.090392 0.516776 -0.275775
C30   C     C_R   0.056106 0.907234 0.479985 -0.287490
C31   C     C_R   0.899698 0.095791 0.576688 0.429939
C32   C     C_R   0.068462 0.902044 0.419729 0.432479
H1    H     H_    0.998271 0.138593 0.416798 0.114091
H2    H     H_    0.988166 0.859746 0.581852 0.114862
H3    H     H_    0.870930 0.135631 0.496532 0.129639
H4    H     H_    0.100456 0.862731 0.500516 0.128711
C33   C     C_R   0.473599 0.583827 0.835724 -0.244734
C34   C     C_R   0.522429 0.416523 0.164336 -0.246387
C35   C     C_R   0.448367 0.458807 0.832352 0.266443
C36   C     C_R   0.472570 0.541227 0.168435 0.261440
C37   C     C_R   0.415827 0.520219 0.806981 0.293694
C38   C     C_R   0.456255 0.479205 0.193727 0.296510
C39   C     C_R   0.542076 0.586171 0.892807 0.162695
C40   C     C_R   0.580548 0.415640 0.106683 0.165978
C41   C     C_R   0.522197 0.527248 0.924090 -0.035791
C42   C     C_R   0.542194 0.474319 0.075974 -0.034728
C43   C     C_R   0.494363 0.461482 0.891976 -0.120935
C44   C     C_R   0.508480 0.539488 0.108527 -0.120720
C45   C     C_R   0.528644 0.531371 0.985798 0.052457
C46   C     C_R   0.536531 0.470391 0.014342 0.052199
C47   C     C_R   0.513236 0.407070 0.980835 -0.221117
C48   C     C_R   0.502384 0.594455 0.019752 -0.223497
C49   C     C_R   0.508544 0.401138 0.920921 0.459148
C50   C     C_R   0.507222 0.600080 0.079733 0.456792
H5    H     H_    0.484698 0.360697 0.000573 0.179636
H6    H     H_    0.463086 0.640678 0.000563 0.181103
C51   C     C_1   0.467001 0.882864 0.885191 -0.138800
C52   C     C_1   0.533051 0.117193 0.114769 -0.140361
C53   C     C_1   0.478502 0.926406 0.928015 0.044027
C54   C     C_1   0.521597 0.073681 0.071922 0.044396
C55   C     C_1   0.493565 0.978196 0.978626 0.026417
C56   C     C_1   0.506561 0.021912 0.021295 0.026815
O21   O     O_3   0.843395 0.158575 0.605952 -0.557515
C57   C     C_3   0.983583 0.209948 0.601362 0.098227
H7    H     H_    0.909526 0.261128 0.607835 0.141706
H8    H     H_    0.051606 0.207194 0.558350 0.094545
C58   C     C_3   0.138531 0.207264 0.648040 -0.301404
H9    H     H_    0.070668 0.217537 0.690900 0.232808
H10   H     H_    0.206963 0.155029 0.644550 0.189766
C59   C     C_3   0.293769 0.260752 0.642498 -0.778849
H11   H     H_    0.366067 0.250700 0.600321 0.228775
H12   H     H_    0.403458 0.257586 0.676899 0.267282
H13   H     H_    0.229808 0.313660 0.646684 0.242194
O22   O     O_3   0.144417 0.842614 0.389154 -0.543804
C60   C     C_3   0.058860 0.780925 0.403271 0.106969
H14   H     H_    0.006526 0.752288 0.362778 0.150968
H15   H     H_    0.931017 0.789094 0.431697 0.086264
C61   C     C_3   0.210726 0.735311 0.429229 -0.315814
H16   H     H_    0.330063 0.724181 0.398246 0.217382
H17   H     H_    0.271531 0.762705 0.469209 0.183561
C62   C     C_3   0.125503 0.667121 0.442915 -0.810096
H18   H     H_    0.008064 0.676934 0.474645 0.228970
H19   H     H_    0.239071 0.635161 0.461430 0.239061
H20   H     H_    0.067803 0.637876 0.403254 0.237209
Br1   Br    Br    0.109105 0.013037 0.221653 -0.576255
Br2   Br    Br    0.921411 0.987233 0.777875 -0.574511
O23   O     O_3   0.854801 0.101059 0.698850 -0.543715
C63   C     C_3   0.656103 0.104514 0.711714 0.156277
H21   H     H_    0.602587 0.055246 0.725730 0.134696
H22   H     H_    0.571500 0.116145 0.673195 0.131026
C64   C     C_3   0.621981 0.162250 0.760175 -0.292882
H23   H     H_    0.725707 0.156207 0.795808 0.222002
H24   H     H_    0.647006 0.213032 0.744027 0.211514
C65   C     C_3   0.418122 0.160669 0.783520 -0.777328
H25   H     H_    0.310597 0.162690 0.748495 0.240844
H26   H     H_    0.394060 0.205844 0.815759 0.263735
H27   H     H_    0.397094 0.112717 0.804457 0.250714
O24   O     O_3   0.039331 0.894873 0.297034 -0.534283
C66   C     C_3   0.857034 0.886982 0.269110 0.147691
H28   H     H_    0.882115 0.869597 0.223058 0.161792
H29   H     H_    0.768824 0.935627 0.270346 0.117694
C67   C     C_3   0.740712 0.831838 0.294836 -0.394507
H30   H     H_    0.816032 0.781096 0.286618 0.210015
H31   H     H_    0.728167 0.845448 0.341942 0.199694
C68   C     C_3   0.538962 0.825612 0.268509 -0.670993
H32   H     H_    0.458617 0.875375 0.276877 0.259769
H33   H     H_    0.459018 0.785093 0.288029 0.268328
H34   H     H_    0.547230 0.811018 0.221447 0.231771
O25   O     O_3   0.499670 0.335595 0.891477 -0.551359
C69   C     C_3   0.673288 0.298021 0.898971 0.105999
H35   H     H_    0.643127 0.242378 0.887527 0.148130
H36   H     H_    0.725317 0.302439 0.944277 0.151098
C70   C     C_3   0.832331 0.319011 0.859508 -0.331034
H37   H     H_    0.784893 0.309227 0.814022 0.235212
H38   H     H_    0.862434 0.375017 0.869043 0.206262
C71   C     C_3   0.017684 0.278054 0.867442 -0.761122
H39   H     H_    0.073619 0.289179 0.912021 0.256418
H40   H     H_    0.127485 0.293126 0.837319 0.283183
H41   H     H_    0.992286 0.221725 0.858192 0.229029
O26   O     O_3   0.491904 0.665357 0.109514 -0.546998
C72   C     C_3   0.658570 0.704556 0.101567 0.114692
H42   H     H_    0.620069 0.759951 0.112551 0.145933
H43   H     H_    0.707516 0.699865 0.056211 0.146865
C73   C     C_3   0.824101 0.686060 0.141443 -0.341426
H44   H     H_    0.780797 0.698666 0.186866 0.237711
H45   H     H_    0.857980 0.629839 0.134150 0.208989
C74   C     C_3   0.005241 0.726192 0.131119 -0.735911
H46   H     H_    0.057997 0.711870 0.086795 0.251032
H47   H     H_    0.119574 0.713648 0.161959 0.285197
H48   H     H_    0.975309 0.782695 0.137453 0.223025
Br3   Br    Br    0.752191 0.341360 0.076525 -0.610619
Br4   Br    Br    0.703356 0.663399 0.920412 -0.610070
O27   O     O_3   0.406631 0.482261 0.251013 -0.558971
C75   C     C_3   0.209642 0.466399 0.255887 0.133992
H49   H     H_    0.197601 0.439883 0.295058 0.134811
H50   H     H_    0.152578 0.430603 0.219442 0.112645
C76   C     C_3   0.083588 0.531882 0.263556 -0.336667
H51   H     H_    0.147569 0.569803 0.296989 0.242556
H52   H     H_    0.074280 0.555182 0.222285 0.223177
C77   C     C_3   0.880535 0.515653 0.281569 -0.772239
H53   H     H_    0.817131 0.475239 0.250307 0.242353
H54   H     H_    0.789292 0.563084 0.283136 0.275195
H55   H     H_    0.882935 0.497233 0.324836 0.227792
O28   O     O_3   0.356281 0.516287 0.750147 -0.558525
C78   C     C_3   0.156054 0.530184 0.746923 0.131058
H56   H     H_    0.133674 0.561134 0.710433 0.136073
H57   H     H_    0.096026 0.561160 0.785706 0.110387
C79   C     C_3   0.042807 0.463265 0.734626 -0.331466
H58   H     H_    0.112161 0.429382 0.699341 0.235311
H59   H     H_    0.041159 0.435756 0.773838 0.224813
C80   C     C_3   0.835631 0.478141 0.717251 -0.766494
H60   H     H_    0.766315 0.514348 0.750851 0.244827
H61   H     H_    0.754122 0.429215 0.711868 0.273658
H62   H     H_    0.831437 0.501352 0.675939 0.226345
Br5   Br    Br    0.422372 0.374211 0.781651 -0.625394
Br6   Br    Br    0.440082 0.625394 0.219618 -0.602075

loop_
_geom_bond_atom_site_label_1
_geom_bond_atom_site_label_2
_ccdc_geom_bond_type
O21   C57   S    
C35   C37   A    
C67   H30   S    
O11   V3    S    
C78   H57   S    
C45   C46   A    
C57   H8    S    
O23   C63   S    
C73   C74   S    
C32   O22   S    
O4    C2    A    
C40   Br3   S    
V1    O19   S    
C76   C77   S    
C69   C70   S    
C63   H22   S    
C76   H51   S    
C29   H3    S    
C35   Br5   S    
C66   H28   S    
C23   C25   A    
C30   H4    S    
C55   C56   T    
C79   H58   S    
C16   C22   A    
C62   H19   S    
C37   O28   S    
O9    V1    S    
O27   C75   S    
C18   C20   A    
C77   H53   S    
C11   C13   S    
C48   C50   A    
O3    C1    A    
C36   Br6   S    
C66   H29   S    
O12   V4    S    
C64   H23   S    
C3    C51   S    
O13   V3    S    
C61   C62   S    
C78   H56   S    
C21   C23   A    
C41   C43   A    
O7    C3    A    
C65   H25   S    
C1    C33   S    
C44   C50   A    
C75   C76   S    
C76   H52   S    
O5    C7    A    
O7    V1    S    
O6    C8    A    
C80   H60   S    
O8    V2    S    
C64   H24   S    
C42   C46   A    
C74   H46   S    
C71   H41   S    
O3    V1    S    
O14   V4    S    
C19   Br2   S    
C10   C12   T    
C79   C80   S    
C15   C21   A    
C68   H34   S    
C20   Br1   S    
C24   C26   A    
C70   H37   S    
C8    C10   S    
C2    O12   A    
C74   H47   S    
C75   H50   S    
C17   C19   A    
C61   H16   S    
C49   O25   S    
C17   C25   A    
C63   H21   S    
C51   C53   T    
C79   H59   S    
C72   H42   S    
C80   H62   S    
C22   C24   A    
C29   C31   A    
O17   V3    S    
C62   H20   S    
C30   C32   A    
C21   H2    S    
C46   C47   A    
C72   H43   S    
C27   C28   A    
C73   H44   S    
C80   H61   S    
O8    C4    A    
C58   H9    S    
C34   C38   A    
C66   C67   S    
C23   C27   A    
C1    O11   A    
C59   H13   S    
C25   C31   A    
O15   V3    S    
C26   C32   A    
C39   Br4   S    
C39   C41   A    
C65   H27   S    
C36   C38   A    
C61   H17   S    
C13   C14   T    
C50   O26   S    
C58   H10   S    
C70   H38   S    
C41   C45   A    
C33   C39   A    
C60   H14   S    
C57   C58   S    
C24   C28   A    
C64   C65   S    
O10   V2    S    
O1    V3    S    
C71   H39   S    
C59   H12   S    
C47   C49   A    
C18   C26   A    
O28   C78   S    
C53   C55   S    
C35   C43   A    
O18   V4    S    
C52   C54   T    
O15   C5    A    
C22   H1    S    
O25   C69   S    
C45   C48   A    
O16   C6    A    
O1    C3    A    
C4    C52   S    
C12   C14   S    
C43   C49   A    
C72   C73   S    
C28   C29   A    
C18   O24   S    
C68   H32   S    
V2    O20   S    
C6    C16   S    
C67   H31   S    
O16   V4    S    
C60   H15   S    
C77   H55   S    
C48   H6    S    
C73   H45   S    
O26   C72   S    
C69   H36   S    
C74   H48   S    
C69   H35   S    
O5    V1    S    
O17   C7    A    
O6    V2    S    
C62   H18   S    
O10   C6    A    
O18   C8    A    
C67   C68   S    
C34   C40   A    
O2    V4    S    
C27   C30   A    
C77   H54   S    
V3    O19   S    
C58   C59   S    
V4    O20   S    
C9    C11   T    
C75   H49   S    
C5    C15   S    
C70   C71   S    
C38   O27   S    
O9    C5    A    
O13   V1    S    
O14   V2    S    
C36   C44   A    
C31   O21   S    
C59   H11   S    
O2    C4    A    
C65   H26   S    
O4    V2    S    
C33   C37   A    
C16   C20   A    
C60   C61   S    
C57   H7    S    
C15   C19   A    
C40   C42   A    
O22   C60   S    
C17   O23   S    
C7    C9    S    
C54   C56   S    
C42   C44   A    
C78   C79   S    
C71   H40   S    
O24   C66   S    
C47   H5    S    
C63   C64   S    
C2    C34   S    
C68   H33   S    
