data_mof_unit_63883.cif
_audit_creation_date              2012-12-10T22:09:27-0500
_audit_creation_method            fapswitch 2.2
_symmetry_space_group_name_H-M    P1
_symmetry_Int_Tables_number       1
_space_group_crystal_system       triclinic
_cell_length_a                    16.401904
_cell_length_b                    16.620789
_cell_length_c                    28.689942
_cell_angle_alpha                 90.213973
_cell_angle_beta                  90.822307
_cell_angle_gamma                 91.057621
_cell_volume                      7819.0389042

loop_
_atom_site_label
_atom_site_type_symbol
_atom_type_description
_atom_site_fract_x
_atom_site_fract_y
_atom_site_fract_z
_atom_type_partial_charge
C1    C     C_R   0.616982 0.998512 0.560803 0.907435
C2    C     C_R   0.323002 0.948928 0.362942 0.162338
C3    C     C_R   0.726905 0.053491 0.328533 0.211470
C4    C     C_R   0.611749 0.002091 0.438272 0.876357
C5    C     C_R   0.663859 0.052442 0.361804 0.160483
C6    C     C_3   0.992830 0.011390 0.253261 0.011394
C7    C     C_R   0.193939 0.004993 0.337035 0.095659
C8    C     C_R   0.321540 0.001733 0.401967 -0.086427
C9    C     C_R   0.795733 0.005227 0.336597 0.096796
C10   C     C_R   0.672521 0.003495 0.401916 -0.078372
C11   C     C_R   0.994925 0.211013 0.172872 0.050626
C12   C     C_R   0.043993 0.270898 0.102365 -0.217554
C13   C     C_R   0.993364 0.336410 0.109387 -0.120142
C14   C     C_R   0.987044 0.820797 0.164897 0.153058
C15   C     C_R   0.986864 0.693865 0.101483 -0.039015
C16   C     C_R   0.386025 0.997972 0.560696 0.825626
C17   C     C_1   0.065334 0.009180 0.282222 -0.005186
C18   C     C_1   0.993479 0.084113 0.226121 0.014393
C19   C     C_1   0.921964 0.009228 0.282238 0.012323
C20   C     C_1   0.990106 0.942844 0.222329 -0.011715
C21   C     C_1   0.124587 0.007340 0.306793 -0.033242
C22   C     C_1   0.987976 0.886694 0.196314 -0.062128
C23   C     C_R   0.912892 0.787851 0.148783 -0.149795
C24   C     C_1   0.994047 0.143072 0.202577 0.004358
C25   C     C_1   0.863779 0.007257 0.306624 -0.031574
C26   C     C_R   0.911387 0.047936 0.830075 -0.179593
C27   C     C_R   0.897680 0.088500 0.871741 -0.196910
C28   C     C_R   0.385015 0.001509 0.438159 0.876511
C29   C     C_R   0.073971 0.913365 0.823351 0.198665
C30   C     C_R   0.069960 0.845200 0.852043 -0.165721
C31   C     C_R   0.868640 0.062543 0.724402 -0.235260
C32   C     C_R   0.805401 0.060829 0.691394 -0.165448
C33   C     C_R   0.145756 0.988598 0.727043 -0.166648
C34   C     C_R   0.912704 0.724274 0.117077 -0.175142
C35   C     C_R   0.212324 0.017449 0.701641 0.174891
C36   C     C_R   0.074717 0.112191 0.712091 -0.179056
C37   C     C_R   0.140980 0.141142 0.686801 -0.192375
C38   C     C_R   0.929805 0.947919 0.686438 0.161511
C39   C     C_R   0.865654 0.947251 0.653691 -0.190572
C40   C     C_R   0.195591 0.058286 0.374599 -0.202107
C41   C     C_R   0.032815 0.129412 0.818067 -0.214730
C42   C     C_R   0.020255 0.168832 0.860464 0.157672
C43   C     C_R   0.947902 0.866518 0.785318 -0.202281
C44   C     C_R   0.945251 0.800007 0.814643 -0.161745
C45   C     C_R   0.060940 0.790817 0.149775 -0.159669
C46   C     C_3   0.001151 0.007520 0.762020 -0.047290
C47   C     C_R   0.980617 0.065613 0.802782 0.078929
C48   C     C_R   0.952918 0.147513 0.887800 0.096511
C49   C     C_R   0.011932 0.925481 0.788001 0.123521
C50   C     C_R   0.005440 0.790064 0.848461 0.118288
C51   C     C_R   0.930988 0.004324 0.724411 0.046406
C52   C     C_R   0.258888 0.056776 0.406787 -0.240308
C53   C     C_R   0.803209 0.002597 0.656419 0.123967
C54   C     C_R   0.076562 0.036388 0.734203 0.080377
C55   C     C_R   0.210339 0.094544 0.681884 0.088938
C56   C     C_R   0.060976 0.727503 0.118148 -0.186886
C57   C     C_1   0.998165 0.727216 0.882414 -0.046466
C58   C     C_1   0.993988 0.676354 0.912050 -0.172520
C59   C     C_1   0.941387 0.182013 0.933335 -0.036112
C60   C     C_1   0.931160 0.209237 0.971781 -0.007879
C61   C     C_1   0.737473 0.000408 0.622693 -0.040870
C62   C     C_1   0.682417 0.998939 0.594436 -0.172358
C63   C     C_1   0.278821 0.127041 0.656765 -0.034387
C64   C     C_R   0.801189 0.955405 0.375374 -0.200649
C65   C     C_1   0.336033 0.154853 0.635939 0.030687
C66   C     C_R   0.987792 0.626995 0.068328 0.874209
C67   C     C_R   0.945212 0.277264 0.181470 0.169712
C68   C     C_R   0.992902 0.398763 0.074190 0.909493
C69   C     C_R   0.992660 0.616641 0.947791 0.899404
C70   C     C_R   0.997759 0.387359 0.953583 0.838778
C71   C     C_R   0.739802 0.954215 0.407730 -0.239763
C72   C     C_R   0.044506 0.208305 0.133914 -0.187182
C73   C     C_3   0.254903 0.892222 0.289056 -0.917142
C74   C     C_3   0.720929 0.106026 0.285548 -0.858167
C75   C     C_3   0.143011 0.971445 0.835686 -0.899029
C76   C     C_3   0.394779 0.893725 0.356597 -0.868045
C77   C     C_3   0.587306 0.101365 0.355091 -0.867388
C78   C     C_R   0.944463 0.341079 0.149384 0.113683
C79   C     C_R   0.257395 0.949930 0.330182 0.229533
H1    H     H_    0.258035 0.097728 0.436260 0.171212
H2    H     H_    0.138196 0.200359 0.671249 0.156381
H3    H     H_    0.864519 0.903112 0.625775 0.167913
H4    H     H_    0.893899 0.758146 0.812237 0.152859
H5    H     H_    0.868974 0.000258 0.819774 0.153474
H6    H     H_    0.868283 0.111254 0.749391 0.166209
H7    H     H_    0.148978 0.928541 0.741077 0.194535
H8    H     H_    0.022055 0.150027 0.715355 0.157147
H9    H     H_    0.081813 0.267399 0.071772 0.169850
H10   H     H_    0.087054 0.146012 0.799323 0.171754
H11   H     H_    0.895476 0.873219 0.762662 0.161578
H12   H     H_    0.854063 0.918271 0.381071 0.161824
H13   H     H_    0.854878 0.699144 0.104800 0.166913
H14   H     H_    0.119015 0.705088 0.106763 0.163336
H15   H     H_    0.146779 0.100504 0.379471 0.164612
H16   H     H_    0.259556 0.829393 0.301709 0.251637
H17   H     H_    0.198049 0.895079 0.267857 0.243536
H18   H     H_    0.306209 0.906284 0.265438 0.242462
H19   H     H_    0.713476 0.169768 0.296127 0.265696
H20   H     H_    0.775352 0.103841 0.263203 0.256644
H21   H     H_    0.668049 0.085956 0.263598 0.236225
H22   H     H_    0.136129 0.992677 0.872155 0.255129
H23   H     H_    0.082731 0.156994 0.127542 0.157094
H24   H     H_    0.201995 0.940089 0.833027 0.249871
H25   H     H_    0.147497 0.024955 0.813712 0.252746
H26   H     H_    0.397463 0.866027 0.321560 0.243621
H27   H     H_    0.452926 0.928183 0.361542 0.224443
H28   H     H_    0.391743 0.844217 0.382385 0.258803
H29   H     H_    0.580610 0.127728 0.319948 0.245824
H30   H     H_    0.532429 0.062522 0.360362 0.220535
H31   H     H_    0.587435 0.151730 0.380581 0.260437
H32   H     H_    0.855548 0.811445 0.160562 0.141765
H33   H     H_    0.118416 0.816600 0.162277 0.138055
H34   H     H_    0.845257 0.071588 0.892340 0.153353
H35   H     H_    0.115865 0.837088 0.879173 0.151917
H36   H     H_    0.758313 0.105602 0.693031 0.151680
H37   H     H_    0.745814 0.916195 0.438160 0.168052
I1    I     I_    0.872412 0.279131 0.242670 -0.339852
I2    I     I_    0.314035 0.941719 0.694267 -0.378433
I3    I     I_    0.109714 0.254707 0.882751 -0.415659
I4    I     I_    0.017861 0.858000 0.673860 -0.377838
I5    I     I_    0.874491 0.446021 0.162491 -0.293051
O1    O     O_R   0.589050 0.066000 0.546390 -0.605675
O2    O     O_R   0.586750 0.068930 0.454890 -0.609955
O3    O     O_R   0.587650 0.931070 0.545110 -0.604345
O4    O     O_R   0.413250 0.931070 0.545110 -0.589600
O5    O     O_R   0.412350 0.068930 0.454890 -0.617467
O6    O     O_R   0.410950 0.934000 0.453610 -0.609284
O7    O     O_R   0.414650 0.066000 0.546390 -0.611162
O8    O     O_R   0.056930 0.600420 0.055130 -0.624802
O9    O     O_R   0.924600 0.421430 0.056650 -0.587525
O10   O     O_R   0.061270 0.426220 0.059090 -0.614497
O11   O     O_R   0.920260 0.595630 0.052680 -0.609545
O12   O     O_R   0.924170 0.588160 0.962540 -0.610965
O13   O     O_R   0.065180 0.418740 0.968950 -0.588255
O14   O     O_R   0.928510 0.413960 0.966510 -0.613502
O15   O     O_R   0.060840 0.592940 0.964990 -0.606939
O16   O     O_R   0.585350 0.934000 0.453610 -0.618608
Zn1   Zn    Zn3+2 0.500940 0.090730 0.500860 0.972136
Zn2   Zn    Zn3+2 0.499060 0.909270 0.499140 0.984640
Zn3   Zn    Zn3+2 0.084620 0.510410 0.012460 0.991546
Zn4   Zn    Zn3+2 0.900820 0.503970 0.009170 1.000357

loop_
_geom_bond_atom_site_label_1
_geom_bond_atom_site_label_2
_ccdc_geom_bond_type
C27   C48   A    
C41   H10   S    
C63   C65   T    
C76   H26   S    
C31   H6    S    
C9    C64   A    
C41   C42   A    
O3    Zn2   S    
O15   Zn3   S    
C44   H4    S    
C1    C62   S    
C45   H33   S    
C9    C25   S    
C74   H19   S    
C29   C49   A    
O4    Zn2   S    
C73   H18   S    
C6    C19   S    
O16   Zn2   S    
O2    Zn1   S    
C26   C27   A    
C18   C24   T    
C36   C37   A    
C39   C53   A    
O13   Zn3   S    
C38   C39   A    
C42   I3    S    
C11   C24   S    
O11   Zn4   S    
C64   C71   A    
O9    Zn4   S    
C78   I5    S    
O7    Zn1   S    
C1    O1    A    
C2    C79   A    
C4    O16   A    
C13   C78   A    
C53   C61   S    
C45   C56   A    
C11   C67   A    
C55   C63   S    
C76   H27   S    
C7    C40   A    
O10   Zn3   S    
C16   O4    A    
C8    C52   A    
C15   C34   A    
C75   H22   S    
C28   O6    A    
C66   O8    A    
C38   I4    S    
C10   C71   A    
C12   C72   A    
C59   C60   T    
C75   H24   S    
C37   H2    S    
C61   C62   T    
C67   C78   A    
O6    Zn2   S    
C28   O5    A    
C14   C45   A    
C66   O11   A    
C36   H8    S    
C73   C79   S    
C56   H14   S    
C6    C18   S    
C43   H11   S    
C12   H9    S    
C35   C55   A    
O1    Zn1   S    
C31   C51   A    
C23   H32   S    
C11   C72   A    
C43   C49   A    
C74   H21   S    
C38   C51   A    
C40   C52   A    
C15   C66   S    
C46   C51   S    
C17   C21   T    
C4    O2    A    
C3    C74   S    
C14   C23   A    
C68   O10   A    
C77   H30   S    
C33   H7    S    
C29   C30   A    
C3    C9    A    
C67   I1    S    
C31   C32   A    
C46   C49   S    
C23   C34   A    
C46   C54   S    
C41   C47   A    
C42   C48   A    
C68   O9    A    
C16   O7    A    
C26   C47   A    
C27   H34   S    
C20   C22   T    
C69   O15   A    
C43   C44   A    
C75   H25   S    
C8    C28   S    
C73   H16   S    
C4    C10   S    
C32   C53   A    
C2    C76   S    
C48   C59   S    
C7    C79   A    
C30   H35   S    
C44   C50   A    
C33   C54   A    
C6    C17   S    
C46   C47   S    
O5    Zn1   S    
C69   O12   A    
C50   C57   S    
C77   H29   S    
C2    C8    A    
C39   H3    S    
C40   H15   S    
C3    C5    A    
C58   C69   S    
C74   H20   S    
C29   C75   S    
C76   H28   S    
C6    C20   S    
O12   Zn4   S    
C64   H12   S    
C15   C56   A    
C14   C22   S    
C1    O3    A    
C5    C10   A    
C7    C21   S    
C26   H5    S    
C57   C58   T    
C70   O14   A    
O8    Zn3   S    
C72   H23   S    
C33   C35   A    
C71   H37   S    
C32   H36   S    
C30   C50   A    
C77   H31   S    
C19   C25   T    
C34   H13   S    
C36   C54   A    
C37   C55   A    
O14   Zn4   S    
C12   C13   A    
C70   O13   A    
C35   I2    S    
C73   H17   S    
C52   H1    S    
C5    C77   S    
C13   C68   S    
