data_mof_unit_17098.cif
_audit_creation_date              2012-12-11T14:50:46-0500
_audit_creation_method            fapswitch 2.2
_symmetry_space_group_name_H-M    P1
_symmetry_Int_Tables_number       1
_space_group_crystal_system       triclinic
_cell_length_a                    10.801576
_cell_length_b                    11.008858
_cell_length_c                    18.753362
_cell_angle_alpha                 90.009348
_cell_angle_beta                  90.127173
_cell_angle_gamma                 60.379575
_cell_volume                      1938.5913925

loop_
_atom_site_label
_atom_site_type_symbol
_atom_type_description
_atom_site_fract_x
_atom_site_fract_y
_atom_site_fract_z
_atom_type_partial_charge
Br1   Br    Br    0.435404 0.073711 0.810076 -0.353056
Br2   Br    Br    0.473615 0.045085 0.640801 -0.418777
Br3   Br    Br    0.367056 0.839551 0.151032 -0.390304
Br4   Br    Br    0.804692 0.301907 0.143222 -0.342731
Br5   Br    Br    0.965862 0.378030 0.811049 -0.313693
Br6   Br    Br    0.686589 0.399479 0.871266 -0.426769
C1    C     C_R   0.235925 0.645690 0.609254 0.554713
C2    C     C_R   0.598758 0.079081 0.770733 0.168394
C3    C     C_R   0.598106 0.090012 0.697017 0.156408
C4    C     C_R   0.626991 0.585555 0.608761 0.540752
C5    C     C_R   0.684909 0.136190 0.665107 0.008093
C6    C     C_R   0.231220 0.540509 0.725387 -0.053006
C7    C     C_R   0.218917 0.552168 0.799399 0.241500
C8    C     C_R   0.165124 0.683536 0.831257 0.014256
C9    C     C_R   0.131116 0.800798 0.788807 -0.194027
C10   C     C_R   0.137751 0.790633 0.715579 -0.150465
C11   C     C_R   0.189611 0.660371 0.683099 0.007404
C12   C     C_3   0.756843 0.486045 0.803218 0.290555
C13   C     C_R   0.787112 0.610854 0.290605 -0.086422
C14   C     C_R   0.797610 0.618214 0.217959 -0.122962
C15   C     C_R   0.674854 0.683956 0.174726 0.041001
C16   C     C_R   0.632970 0.219651 0.599950 0.561230
C17   C     C_R   0.539434 0.747846 0.205916 0.139833
C18   C     C_R   0.529420 0.737222 0.279331 -0.054015
C19   C     C_R   0.653454 0.665734 0.321301 0.035386
C20   C     C_R   0.583845 0.113121 0.291485 0.174542
C21   C     C_R   0.581310 0.102666 0.218766 -0.159301
C22   C     C_R   0.648101 0.156633 0.175230 -0.059530
C23   C     C_3   0.688154 0.648104 0.819059 0.031966
C24   C     C_R   0.719884 0.220970 0.204194 0.148730
C25   C     C_R   0.730396 0.225046 0.277776 0.214087
C26   C     C_R   0.653112 0.179765 0.321798 0.034511
C27   C     C_R   0.044861 0.807879 0.312659 0.242399
C28   C     C_R   0.219470 0.649624 0.402000 0.575191
C29   C     C_R   0.003558 0.830308 0.241528 -0.080259
C30   C     C_R   0.059535 0.718034 0.193798 -0.017885
C31   C     C_R   0.149094 0.581713 0.217884 -0.137280
C32   C     C_R   0.190717 0.559147 0.288401 -0.172706
C33   C     C_R   0.144290 0.672757 0.335152 0.030256
C34   C     C_3   0.648846 0.608426 0.684803 -0.002669
C35   C     C_R   0.726244 0.042696 0.888331 0.565941
C36   C     C_R   0.715733 0.680623 0.892472 0.566220
C37   C     C_R   0.115780 0.709038 0.904892 0.578928
C38   C     C_R   0.673114 0.109375 0.103023 0.593052
C39   C     C_R   0.698396 0.692537 0.099230 0.581538
C40   C     C_R   0.642395 0.624307 0.392946 0.577578
C41   C     C_R   0.027873 0.745357 0.118757 0.530579
C42   C     C_R   0.618636 0.229511 0.394489 0.624016
C43   C     C_3   0.526496 0.715736 0.802473 -0.270331
C44   C     C_3   0.504135 0.704383 0.722012 -0.286852
C45   C     C_3   0.745181 0.676790 0.690627 0.122494
C46   C     C_3   0.756835 0.709684 0.768762 -0.207445
C47   C     C_3   0.717966 0.467131 0.725726 -0.181257
C48   C     C_R   0.798012 0.132179 0.703861 -0.185655
C49   C     C_R   0.812773 0.100418 0.776458 -0.159559
C50   C     C_R   0.712015 0.077149 0.811481 0.009737
Cl1   Cl    Cl    0.921395 0.573498 0.654444 -0.548737
Cl2   Cl    Cl    0.282425 0.401212 0.851719 -0.428195
Cl3   Cl    Cl    0.504375 0.034985 0.342314 -0.532704
Cl4   Cl    Cl    0.851292 0.276203 0.310989 -0.451411
Cl5   Cl    Cl    0.973836 0.949418 0.372288 -0.511471
Cr1   Cr    Cr6+3 0.392930 0.397900 0.502230 1.130832
Cr2   Cr    Cr6+3 0.398240 0.708600 0.501260 1.125882
Cr3   Cr    Cr6+3 0.708800 0.393470 0.496460 1.138736
Cr4   Cr    Cr6+3 0.937620 0.938540 0.007640 1.129229
Cr5   Cr    Cr6+3 0.625150 0.937450 0.994520 1.124045
Cr6   Cr    Cr6+3 0.937990 0.625080 0.001190 1.138190
H1    H     H_    0.466797 0.824980 0.819565 0.202223
H2    H     H_    0.883350 0.555447 0.322240 0.174944
H3    H     H_    0.903375 0.570225 0.195469 0.162149
H4    H     H_    0.424769 0.778373 0.302882 0.189461
H5    H     H_    0.532410 0.045546 0.196498 0.203315
H6    H     H_    0.432862 0.659782 0.714885 0.125772
H7    H     H_    0.931397 0.935088 0.222984 0.152484
H8    H     H_    0.192503 0.493504 0.181736 0.176002
H9    H     H_    0.267671 0.453957 0.304886 0.167931
H10   H     H_    0.450740 0.810316 0.697878 0.210310
H11   H     H_    0.702258 0.823229 0.775567 0.102768
H12   H     H_    0.813948 0.388887 0.696878 0.194793
H13   H     H_    0.696392 0.775250 0.659634 0.188029
H14   H     H_    0.642392 0.425952 0.726096 0.112293
H15   H     H_    0.869752 0.672311 0.783883 0.187462
H16   H     H_    0.870151 0.160897 0.679002 0.158112
H17   H     H_    0.896408 0.104597 0.806131 0.186439
H18   H     H_    0.279467 0.437544 0.701506 0.203634
H19   H     H_    0.096026 0.902066 0.812216 0.163660
H20   H     H_    0.478077 0.663452 0.833038 0.175352
H21   H     H_    0.110096 0.883749 0.684605 0.171512
O1    O     O_R   0.507430 0.255570 0.581420 -0.455135
O2    O     O_R   0.837200 0.593290 0.915250 -0.438750
O3    O     O_R   0.065330 0.635370 0.931590 -0.439063
O4    O     O_R   0.280190 0.527390 0.578910 -0.483566
O5    O     O_R   0.068300 0.828790 0.091860 -0.435644
O6    O     O_R   0.798730 0.057480 0.079370 -0.475381
O7    O     O_R   0.584680 0.080480 0.076790 -0.498277
O8    O     O_R   0.626790 0.809640 0.067050 -0.480308
O9    O     O_R   0.816010 0.596460 0.076500 -0.486497
O10   O     O_R   0.045680 0.638310 0.081070 -0.500517
O11   O     O_3   0.833590 0.833690 0.001120 -0.359768
O12   O     O_R   0.524460 0.695920 0.424060 -0.483102
O13   O     O_R   0.260310 0.739740 0.584580 -0.515459
O14   O     O_R   0.532250 0.695150 0.573830 -0.475693
O15   O     O_R   0.744930 0.503430 0.576380 -0.441488
O16   O     O_R   0.699250 0.276390 0.571950 -0.531694
O17   O     O_R   0.499020 0.256400 0.419850 -0.460232
O18   O     O_R   0.272400 0.528160 0.429140 -0.511404
O19   O     O_R   0.251910 0.740570 0.423020 -0.448311
O20   O     O_R   0.736530 0.504260 0.414810 -0.456080
O21   O     O_R   0.691460 0.277160 0.422180 -0.439908
O22   O     O_3   0.499990 0.499990 0.499980 -0.336875
O23   O     O_R   0.089490 0.825610 0.930610 -0.521210
O24   O     O_R   0.818370 0.054540 0.929880 -0.461090
O25   O     O_R   0.605870 0.077310 0.915530 -0.408904
O26   O     O_R   0.646440 0.806700 0.917570 -0.513018

loop_
_geom_bond_atom_site_label_1
_geom_bond_atom_site_label_2
_ccdc_geom_bond_type
Cr5   O11   S    
Cr3   O15   S    
C49   C50   A    
C29   H7    S    
C20   C26   A    
Cr5   O25   S    
C23   C36   S    
Br1   C2    S    
C43   H20   S    
Br3   C17   S    
C29   C30   A    
Cr2   O13   S    
Br5   C12   S    
C2    C50   A    
Cr4   O24   S    
Cr1   O17   S    
C32   H9    S    
C20   C21   A    
C27   C33   A    
C41   O10   A    
C6    H18   S    
C28   O19   A    
C4    C34   S    
C30   C31   A    
C43   H1    S    
C32   C33   A    
C9    C10   A    
Cr1   O1    S    
C16   O16   A    
C30   C41   S    
C47   H14   S    
C45   H13   S    
Cr4   O23   S    
Cr6   O10   S    
C36   O26   A    
C42   O17   A    
C10   C11   A    
C1    C11   S    
C35   O24   A    
C40   O20   A    
C6    C11   A    
C17   C18   A    
C45   Cl1   S    
C20   Cl3   S    
C12   C47   S    
Cr6   O11   S    
Cr4   O5    S    
C42   O21   A    
C31   H8    S    
C7    C8    A    
C26   C42   S    
C14   H3    S    
C37   O23   A    
Cr2   O14   S    
C46   H11   S    
C48   H16   S    
Cr3   O20   S    
C15   C39   S    
Br6   C12   S    
C45   C46   S    
C28   O18   A    
C4    O14   A    
C18   C19   A    
Cr4   O11   S    
C44   H6    S    
C2    C3    A    
C23   C43   S    
C7    Cl2   S    
Cr2   O12   S    
C22   C38   S    
Cr6   O2    S    
C37   O3    A    
C28   C33   S    
Cr1   O4    S    
C36   O2    A    
C25   Cl4   S    
C35   C50   S    
C31   C32   A    
Cr3   O22   S    
C25   C26   A    
Cr1   O22   S    
Cr6   O3    S    
C41   O5    A    
C12   C23   S    
C6    C7    A    
C46   H15   S    
C3    C5    A    
C5    C48   A    
C9    H19   S    
Cr4   O6    S    
C43   C44   S    
C15   C17   A    
C13   H2    S    
Cr2   O19   S    
C44   H10   S    
Cr5   O8    S    
Cr3   O16   S    
C40   O12   A    
C48   C49   A    
C4    O15   A    
Cr5   O26   S    
C47   H12   S    
C35   O25   A    
Cr1   O18   S    
C34   C45   S    
C5    C16   S    
C13   C14   A    
C22   C24   A    
C38   O7    A    
C39   O9    A    
C39   O8    A    
Cr3   O21   S    
C24   C25   A    
Cr2   O22   S    
C34   C44   S    
C1    O4    A    
C27   C29   A    
C16   O1    A    
C13   C19   A    
C38   O6    A    
Cr6   O9    S    
C14   C15   A    
C27   Cl5   S    
C34   C47   S    
C1    O13   A    
C21   C22   A    
C10   H21   S    
C8    C9    A    
C8    C37   S    
C49   H17   S    
Br2   C3    S    
C19   C40   S    
Br4   C24   S    
C21   H5    S    
C18   H4    S    
Cr5   O7    S    
C23   C46   S    
