data_mof_unit_67010.cif
_audit_creation_date              2012-12-11T17:41:06-0500
_audit_creation_method            fapswitch 2.2
_symmetry_space_group_name_H-M    P1
_symmetry_Int_Tables_number       1
_space_group_crystal_system       triclinic
_cell_length_a                    8.181542
_cell_length_b                    12.664958
_cell_length_c                    14.195957
_cell_angle_alpha                 92.772342
_cell_angle_beta                  90.649095
_cell_angle_gamma                 98.32062
_cell_volume                      1453.53199083

loop_
_atom_site_label
_atom_site_type_symbol
_atom_type_description
_atom_site_fract_x
_atom_site_fract_y
_atom_site_fract_z
_atom_type_partial_charge
Ba1   Ba    Ba6+2 0.855630 0.555280 0.454520 1.645064
Ba2   Ba    Ba6+2 0.334200 0.444810 0.545490 1.635131
C1    C     C_3   0.624837 0.953400 0.182704 -0.365965
C2    C     C_R   0.183228 0.498452 0.195872 0.042843
C3    C     C_R   0.338244 0.550383 0.225985 -0.279935
C4    C     C_3   0.156914 0.807922 0.194595 0.480789
C5    C     C_R   0.450993 0.597412 0.162280 0.013614
C6    C     C_R   0.406040 0.600527 0.067422 -0.153155
C7    C     C_R   0.248903 0.552026 0.034654 -0.002558
C8    C     C_R   0.137583 0.496865 0.098022 -0.023124
C9    C     C_R   0.052940 0.502043 0.901874 -0.017738
C10   C     C_R   0.941754 0.446697 0.965225 -0.000381
C11   C     C_R   0.007775 0.499813 0.803897 0.042523
C12   C     C_3   0.657479 0.857220 0.236129 0.366291
C13   C     C_R   0.854429 0.445274 0.773425 -0.295721
C14   C     C_R   0.740989 0.399079 0.837233 0.013210
C15   C     C_R   0.785146 0.397349 0.932337 -0.146156
C16   C     C_3   0.183116 0.857537 0.099030 0.223498
C17   C     C_R   0.204518 0.556361 0.938799 -0.012050
C18   C     C_R   0.764314 0.176524 0.536177 -0.276994
C19   C     C_R   0.429029 0.813264 0.461441 -0.282885
C20   C     C_R   0.405816 0.994915 0.427748 -0.106569
C21   C     C_R   0.340606 0.887475 0.423222 -0.001073
C22   C     C_R   0.576224 0.846296 0.512367 0.063048
C23   C     C_3   0.475049 0.310228 0.257691 0.301505
C24   C     C_R   0.641211 0.956906 0.521801 -0.058349
C25   C     C_R   0.555413 0.031508 0.476963 -0.060814
C26   C     C_R   0.619428 0.141248 0.484489 0.043636
C27   C     C_R   0.853397 0.104469 0.576746 -0.009617
C28   C     C_3   0.226467 0.762926 0.656674 0.283241
C29   C     C_R   0.789855 0.995607 0.572759 -0.092346
C30   C     C_3   0.241212 0.882534 0.678039 -0.339458
C31   C     C_3   0.972146 0.236471 0.344625 0.275847
C32   C     C_3   0.976006 0.118029 0.325626 -0.331032
C33   C     C_3   0.713380 0.672361 0.737909 0.276924
C34   C     C_3   0.454108 0.287660 0.151659 -0.388426
C35   C     C_3   0.731036 0.695978 0.843935 -0.347242
C36   C     C_3   0.047204 0.195730 0.805780 0.344268
C37   C     C_3   0.061892 0.159052 0.905624 -0.331906
C38   C     C_3   0.542549 0.141764 0.765187 0.333657
C39   C     C_3   0.590271 0.052259 0.822649 -0.393303
C40   C     C_R   0.985760 0.442887 0.061182 -0.030042
Cl1   Cl    Cl    0.992283 0.867261 0.041118 -0.703264
H1    H     H_    0.750916 0.883602 0.292981 0.073506
H2    H     H_    0.829911 0.649213 0.710944 0.013917
H3    H     H_    0.610811 0.605720 0.724038 0.069841
H4    H     H_    0.578834 0.013263 0.231487 0.081124
H5    H     H_    0.839491 0.758055 0.859742 0.184603
H6    H     H_    0.748391 0.622891 0.880355 0.065207
H7    H     H_    0.618112 0.725177 0.871245 0.123615
H8    H     H_    0.540251 0.823690 0.269115 -0.054835
H9    H     H_    0.531617 0.927565 0.125951 0.102496
H10   H     H_    0.357875 0.332007 0.285796 0.017371
H11   H     H_    0.576117 0.378139 0.270814 0.057514
H12   H     H_    0.325792 0.905651 0.739321 0.118067
H13   H     H_    0.348771 0.223078 0.136231 0.134696
H14   H     H_    0.429662 0.360587 0.116991 0.060643
H15   H     H_    0.568481 0.262458 0.122299 0.120342
H16   H     H_    0.739475 0.990206 0.149040 0.173831
H17   H     H_    0.253534 0.807580 0.052984 0.006567
H18   H     H_    0.128731 0.273280 0.800839 0.093681
H19   H     H_    0.917169 0.207059 0.792627 -0.071136
H20   H     H_    0.192134 0.150821 0.922448 0.158796
H21   H     H_    0.020748 0.218440 0.956787 0.060754
H22   H     H_    0.983635 0.080657 0.912644 0.156988
H23   H     H_    0.290678 0.926543 0.616650 0.074275
H24   H     H_    0.655445 0.179021 0.729832 -0.053110
H25   H     H_    0.451008 0.107358 0.709581 0.082213
H26   H     H_    0.685922 0.085443 0.876378 0.120446
H27   H     H_    0.640248 0.992435 0.775622 0.095264
H28   H     H_    0.066293 0.733657 0.186565 0.086688
H29   H     H_    0.480934 0.012569 0.859508 0.138163
H30   H     H_    0.374547 0.550141 0.299503 0.068277
H31   H     H_    0.494150 0.639802 0.019326 0.081100
H32   H     H_    0.696664 0.358723 0.980574 0.069851
H33   H     H_    0.818973 0.444121 0.699676 0.070196
H34   H     H_    0.117955 0.904619 0.694778 0.146862
H35   H     H_    0.899617 0.397475 0.106350 0.095590
H36   H     H_    0.290678 0.601782 0.893655 0.095279
H37   H     H_    0.335136 0.048798 0.394601 0.098026
H38   H     H_    0.859767 0.942965 0.608174 0.104652
H39   H     H_    0.813209 0.260753 0.540274 0.062708
H40   H     H_    0.277255 0.786440 0.217778 -0.245796
H41   H     H_    0.377806 0.729458 0.456321 0.070472
H42   H     H_    0.253981 0.939044 0.108500 0.054916
H43   H     H_    0.348769 0.742011 0.638386 0.003798
H44   H     H_    0.138808 0.741754 0.596222 0.072785
H45   H     H_    0.845828 0.249724 0.362075 -0.001950
H46   H     H_    0.056891 0.263488 0.405278 0.082845
H47   H     H_    0.895908 0.088696 0.263929 0.122050
H48   H     H_    0.931062 0.073262 0.387492 0.083164
H49   H     H_    0.104134 0.103921 0.310500 0.135091
O1    O     O_2   0.887370 0.460630 0.272300 -0.468360
O2    O     O_2   0.194793 0.110936 0.568060 -0.483854
O3    O     O_3   0.095409 0.118547 0.741599 -0.596982
O4    O     O_3   0.129410 0.451380 0.388510 -0.495924
O5    O     O_3   0.575400 0.626570 0.547370 -0.490909
O6    O     O_2   0.344320 0.238700 0.455090 -0.467537
O7    O     O_3   0.513703 0.218342 0.298957 -0.650009
O8    O     O_2   0.402142 0.408086 0.835865 -0.497498
O9    O     O_3   0.470164 0.212990 0.825305 -0.591330
O10   O     O_3   0.670210 0.653170 0.329170 -0.488345
O11   O     O_2   0.790140 0.590929 0.164960 -0.479917
O12   O     O_3   0.680516 0.764785 0.695848 -0.639418
O13   O     O_3   0.018231 0.289040 0.262643 -0.638328
O14   O     O_3   0.719173 0.784533 0.172727 -0.532682
O15   O     O_2   0.845380 0.761330 0.544970 -0.472063
O16   O     O_3   0.088930 0.704860 0.376040 -0.482740
O17   O     O_2   0.001063 0.889223 0.434122 -0.492749
O18   O     O_3   0.099064 0.881230 0.259199 -0.602819
O19   O     O_2   0.302330 0.539400 0.727760 -0.472066
O20   O     O_3   0.060300 0.548700 0.611500 -0.497334
O21   O     O_3   0.519500 0.346920 0.670840 -0.470073
O22   O     O_3   0.171563 0.711011 0.737559 -0.628882
O23   O     O_3   0.614310 0.373510 0.452640 -0.479622
O24   O     O_3   0.100780 0.295230 0.623970 -0.486997
P1    P     P_3+3 0.054400 0.427280 0.286870 0.970922
P2    P     P_3+3 0.668300 0.742890 0.573060 0.970809
P3    P     P_3+3 0.132514 0.842843 0.374023 0.959824
P4    P     P_3+3 0.135310 0.572810 0.713130 0.974394
P5    P     P_3+3 0.060252 0.155943 0.626781 0.950580
P6    P     P_3+3 0.657723 0.654184 0.206459 0.992538
P7    P     P_3+3 0.526695 0.241651 0.421535 0.933067
P8    P     P_3+3 0.533018 0.344098 0.793426 0.957868

loop_
_geom_bond_atom_site_label_1
_geom_bond_atom_site_label_2
_ccdc_geom_bond_type
C18   H39   S    
C8    C40   A    
C37   H22   S    
C12   H1    S    
C26   P7    S    
C5    C6    A    
C37   H21   S    
C9    C17   A    
C24   C25   A    
O7    P7    S    
C33   C35   S    
C31   H45   S    
C22   C24   A    
C34   H15   S    
Ba1   O20   S    
C21   P3    S    
C36   C37   S    
Ba2   O21   S    
O11   P6    D    
C13   C14   A    
C9    C11   A    
Ba1   Ba2   S    
C1    H4    S    
O5    P2    S    
C32   H48   S    
C10   C40   A    
C38   O9    S    
Ba2   O24   S    
C23   O7    S    
Ba2   O5    S    
C14   C15   A    
C38   H24   S    
C27   P5    S    
C36   O3    S    
C3    C5    A    
C28   H43   S    
C7    C8    A    
C30   H12   S    
C36   H18   S    
O3    P5    S    
C13   H33   S    
C30   H34   S    
C24   C29   A    
C4    O18   S    
O16   P3    S    
O13   P1    S    
C4    H28   S    
O1    P1    D    
C7    C17   A    
O12   P2    S    
C18   C27   A    
O6    P7    D    
C4    C16   S    
Ba2   O19   S    
C16   H42   S    
O23   P7    S    
O24   P5    S    
O9    P8    S    
O4    P1    S    
C31   O13   S    
C23   H11   S    
C34   H14   S    
Ba1   O5    S    
O20   P4    S    
Ba2   P4    S    
C6    C7    A    
C18   C26   A    
O19   P4    D    
O8    P8    D    
C10   C15   A    
C32   H47   S    
C34   H13   S    
C31   H46   S    
C35   H6    S    
Ba2   O23   S    
C12   H8    S    
C19   H41   S    
C9    C10   A    
Ba2   O20   S    
O14   P6    S    
C6    H31   S    
C31   C32   S    
Ba1   P1    S    
C35   H5    S    
C17   H36   S    
C1    C12   S    
Ba1   O15   S    
C39   H29   S    
C16   H17   S    
C38   C39   S    
C33   O12   S    
C20   C25   A    
C19   C21   A    
C2    P1    S    
C5    P6    S    
C2    C8    A    
C33   H2    S    
C11   P4    S    
O17   P3    D    
C30   H23   S    
C28   O22   S    
C4    H40   S    
O15   P2    D    
C23   C34   S    
C23   H10   S    
C2    C3    A    
O18   P3    S    
C1    H9    S    
C40   H35   S    
C37   H20   S    
C22   P2    S    
C29   H38   S    
C11   C13   A    
C14   P8    S    
C20   H37   S    
C27   C29   A    
C16   Cl1   S    
C28   C30   S    
C35   H7    S    
C33   H3    S    
O21   P8    S    
Ba1   O4    S    
Ba2   O4    S    
Ba1   P2    S    
C3    H30   S    
C32   H49   S    
Ba1   O16   S    
O2    P5    D    
C12   O14   S    
Ba2   O6    S    
Ba1   O1    S    
C38   H25   S    
C19   C22   A    
C25   C26   A    
C15   H32   S    
C20   C21   A    
Ba1   O23   S    
C28   H44   S    
O10   P6    S    
C39   H26   S    
Ba1   O10   S    
O22   P4    S    
C39   H27   S    
C36   H19   S    
C1    H16   S    
