data_mof_unit_49801.cif
_audit_creation_date              2012-12-11T14:13:26-0500
_audit_creation_method            fapswitch 2.2
_symmetry_space_group_name_H-M    P1
_symmetry_Int_Tables_number       1
_space_group_crystal_system       triclinic
_cell_length_a                    11.658792
_cell_length_b                    18.379727
_cell_length_c                    10.069241
_cell_angle_alpha                 90.241587
_cell_angle_beta                  111.994864
_cell_angle_gamma                 90.004008
_cell_volume                      2000.6281989

loop_
_atom_site_label
_atom_site_type_symbol
_atom_type_description
_atom_site_fract_x
_atom_site_fract_y
_atom_site_fract_z
_atom_type_partial_charge
C1    C     C_R   0.073950 0.645935 0.140171 0.571176
C2    C     C_2   0.621826 0.058054 0.016218 0.048368
C3    C     C_2   0.601745 0.431559 0.069527 0.079570
C4    C     C_2   0.370110 0.557750 0.987455 0.045797
C5    C     C_2   0.479757 0.952567 0.936808 -0.128945
C6    C     C_2   0.519252 0.026540 0.920561 -0.171601
C7    C     C_2   0.493424 0.447270 0.080265 -0.162124
C8    C     C_2   0.458661 0.522739 0.094190 -0.181955
C9    C     C_2   0.011453 0.922770 0.113659 -0.058821
C10   C     C_2   0.984329 0.075441 0.882824 -0.110141
C11   C     C_2   0.999500 0.419680 0.895360 -0.079499
C12   C     C_R   0.927762 0.353426 0.861380 0.576415
C13   C     C_2   0.020340 0.574254 0.117459 -0.102439
C14   C     C_2   0.002863 0.959453 0.996858 -0.120915
C15   C     C_2   0.982119 0.036663 0.992498 -0.131717
C16   C     C_2   0.011216 0.455069 0.015676 -0.143467
C17   C     C_2   0.054039 0.529006 0.035651 -0.186908
C18   C     C_R   0.468939 0.646210 0.441782 0.552341
C19   C     C_R   0.530204 0.353096 0.557257 0.586296
C20   C     C_R   0.530901 0.146216 0.557794 0.558547
C21   C     C_R   0.469726 0.853264 0.442885 0.582237
C22   C     C_R   0.352939 0.636379 0.007205 0.547088
C23   C     C_R   0.926862 0.146209 0.859834 0.542969
C24   C     C_R   0.626324 0.357852 0.031718 0.601687
C25   C     C_R   0.644829 0.135803 0.994498 0.549198
C26   C     C_R   0.356292 0.864099 0.003844 0.565302
C27   C     C_R   0.501831 0.423295 0.480367 -0.066047
C28   C     C_R   0.492103 0.573915 0.512541 0.030405
C29   C     C_R   0.498209 0.923728 0.520150 -0.066809
C30   C     C_R   0.506831 0.074018 0.485491 0.043273
C31   C     C_R   0.274016 0.416438 0.415390 0.031484
C32   C     C_R   0.720050 0.577745 0.599880 0.029886
C33   C     C_R   0.725291 0.917585 0.583620 0.025150
C34   C     C_R   0.072707 0.853423 0.139618 0.585550
C35   C     C_R   0.280039 0.077847 0.407963 0.095916
C36   C     C_R   0.165608 0.449708 0.412313 -0.144420
C37   C     C_R   0.825526 0.549153 0.584419 -0.149628
C38   C     C_R   0.832752 0.950229 0.582301 -0.146232
C39   C     C_R   0.177437 0.051480 0.432387 -0.137970
C40   C     C_R   0.168400 0.519702 0.463845 -0.139154
C41   C     C_R   0.819611 0.485036 0.509726 -0.089603
C42   C     C_R   0.828889 0.019404 0.527600 -0.136944
C43   C     C_R   0.184609 0.987012 0.505665 -0.133779
C44   C     C_R   0.279566 0.558447 0.519158 0.098940
C45   C     C_R   0.387537 0.456160 0.463312 -0.040608
C46   C     C_R   0.712377 0.441680 0.461950 0.041559
C47   C     C_R   0.717972 0.058275 0.474930 0.097907
C48   C     C_R   0.290507 0.942687 0.545377 0.026184
C49   C     C_R   0.387234 0.530330 0.500659 -0.014178
C50   C     C_R   0.604837 0.467463 0.486065 -0.059344
C51   C     C_R   0.611269 0.030508 0.495945 -0.016126
C52   C     C_R   0.395812 0.967847 0.516109 -0.064125
C53   C     C_2   0.261698 0.341870 0.356553 0.604254
C54   C     C_2   0.733865 0.638015 0.706409 0.628313
C55   C     C_2   0.737666 0.843659 0.643938 0.608241
C56   C     C_R   0.605580 0.540359 0.532498 0.005327
C57   C     C_2   0.261235 0.137408 0.301577 0.638589
C58   C     C_2   0.281394 0.624098 0.606957 0.667497
C59   C     C_2   0.721973 0.371479 0.388604 0.605521
C60   C     C_2   0.715722 0.124149 0.388776 0.662290
C61   C     C_2   0.283186 0.872715 0.618732 0.617332
C62   C     C_2   0.712013 0.016988 0.139638 0.563152
C63   C     C_2   0.306857 0.998323 0.000464 0.561978
C64   C     C_2   0.287547 0.518847 0.854864 0.563764
C65   C     C_2   0.690326 0.489174 0.068227 0.579448
C66   C     C_R   0.611807 0.956836 0.535474 -0.047556
C67   C     C_R   0.394187 0.040297 0.468705 0.004340
C68   C     C_2   0.381335 0.939076 0.972181 0.076562
Cr1   Cr    Cr6+3 0.187610 0.750000 0.979860 1.098021
Cr2   Cr    Cr6+3 0.812390 0.250000 0.020140 1.126350
Cr3   Cr    Cr6+3 0.245810 0.750000 0.341640 1.120437
Cr4   Cr    Cr6+3 0.754190 0.250000 0.658360 1.121874
Cr5   Cr    Cr6+3 0.485760 0.750000 0.219910 1.141482
Cr6   Cr    Cr6+3 0.514240 0.250000 0.780090 1.118813
H1    H     H_    0.078236 0.420683 0.372092 0.149661
H2    H     H_    0.541237 0.908561 0.935247 0.164096
H3    H     H_    0.515466 0.552124 0.190136 0.173769
H4    H     H_    0.424102 0.404999 0.061274 0.143584
H5    H     H_    0.960157 0.061730 0.077415 0.217177
H6    H     H_    0.023332 0.934250 0.910247 0.161725
H7    H     H_    0.112842 0.547310 0.981626 0.192724
H8    H     H_    0.975702 0.432810 0.092707 0.180833
H9    H     H_    0.008729 0.050576 0.798933 0.121495
H10   H     H_    0.995973 0.949075 0.201624 0.115404
H11   H     H_    0.966975 0.555784 0.179214 0.145492
H12   H     H_    0.915115 0.574510 0.632041 0.136271
H13   H     H_    0.027726 0.443949 0.814874 0.124410
H14   H     H_    0.316642 0.370678 0.197772 0.272246
H15   H     H_    0.900154 0.677668 0.713426 0.322265
H16   H     H_    0.684166 0.873811 0.804392 0.270837
H17   H     H_    0.326928 0.192449 0.171616 0.378389
H18   H     H_    0.185286 0.708071 0.643569 0.385109
H19   H     H_    0.537315 0.352244 0.288599 0.289851
H20   H     H_    0.811371 0.209014 0.355171 0.388979
H21   H     H_    0.468070 0.857700 0.719632 0.290117
H22   H     H_    0.882900 0.012478 0.291926 0.314979
H23   H     H_    0.920102 0.921356 0.621637 0.144096
H24   H     H_    0.236126 0.099478 0.954407 0.351973
H25   H     H_    0.118959 0.511497 0.698147 0.315013
H26   H     H_    0.780234 0.536774 0.955298 0.353916
H27   H     H_    0.090077 0.080207 0.392606 0.175403
H28   H     H_    0.083329 0.542579 0.465394 0.150316
H29   H     H_    0.903285 0.467406 0.496302 0.141020
H30   H     H_    0.913210 0.041921 0.523307 0.142026
H31   H     H_    0.103496 0.970177 0.525609 0.138627
H32   H     H_    0.457509 0.057147 0.829904 0.185911
O1    O     O_R   0.267710 0.668200 0.902110 -0.441485
O2    O     O_R   0.883280 0.330790 0.732340 -0.483880
O3    O     O_R   0.883280 0.169210 0.732340 -0.490325
O4    O     O_R   0.116720 0.830790 0.267660 -0.479950
O5    O     O_R   0.366710 0.675440 0.427590 -0.491554
O6    O     O_R   0.633290 0.324560 0.572410 -0.473776
O7    O     O_R   0.633290 0.175440 0.572410 -0.487937
O8    O     O_R   0.366710 0.824560 0.427590 -0.475723
O9    O     O_R   0.534870 0.669390 0.371760 -0.510366
O10   O     O_R   0.465130 0.330610 0.628240 -0.456953
O11   O     O_R   0.465130 0.169390 0.628240 -0.518092
O12   O     O_R   0.732290 0.331800 0.097890 -0.468235
O13   O     O_R   0.534870 0.830610 0.371760 -0.463446
O14   O     O_R   0.453080 0.674480 0.075160 -0.452582
O15   O     O_R   0.546920 0.325520 0.924840 -0.470703
O16   O     O_R   0.546920 0.174480 0.924840 -0.481789
O17   O     O_R   0.453080 0.825520 0.075160 -0.456777
O18   O     O_3   0.306390 0.750000 0.180470 -0.342792
O19   O     O_3   0.693610 0.250000 0.819530 -0.321711
O20   O     O_2   0.218047 0.294339 0.407778 -0.408197
O21   O     O_R   0.294860 0.325517 0.240395 -0.680984
O22   O     O_2   0.651255 0.649210 0.750727 -0.388457
O23   O     O_R   0.732290 0.168200 0.097890 -0.435832
O24   O     O_R   0.842365 0.679150 0.767016 -0.600486
O25   O     O_2   0.778850 0.795395 0.591166 -0.434056
O26   O     O_R   0.705752 0.828371 0.761448 -0.614649
O27   O     O_2   0.161036 0.167952 0.250678 -0.469225
O28   O     O_R   0.354068 0.154854 0.250606 -0.631466
O29   O     O_2   0.378463 0.645036 0.698727 -0.419360
O30   O     O_R   0.171922 0.662666 0.582419 -0.657354
O31   O     O_2   0.824222 0.348762 0.402068 -0.484827
O32   O     O_R   0.619872 0.328727 0.308583 -0.641853
O33   O     O_2   0.618396 0.145204 0.298338 -0.435116
O34   O     O_R   0.267710 0.831800 0.902110 -0.461761
O35   O     O_R   0.825112 0.163037 0.413971 -0.649703
O36   O     O_2   0.181562 0.847726 0.602001 -0.481061
O37   O     O_R   0.387012 0.833057 0.703311 -0.613046
O38   O     O_2   0.682895 0.960074 0.181318 -0.504279
O39   O     O_R   0.830620 0.044778 0.210952 -0.710473
O40   O     O_2   0.269912 0.991869 0.098476 -0.538163
O41   O     O_R   0.281311 0.061830 0.918632 -0.698256
O42   O     O_2   0.323508 0.464992 0.810128 -0.499122
O43   O     O_R   0.168421 0.544851 0.779466 -0.718241
O44   O     O_2   0.724983 0.535180 0.163099 -0.527999
O45   O     O_R   0.099480 0.674460 0.038850 -0.495333
O46   O     O_R   0.730750 0.491384 0.954082 -0.694586
O47   O     O_R   0.900520 0.325540 0.961150 -0.488581
O48   O     O_R   0.900520 0.174460 0.961150 -0.491629
O49   O     O_R   0.099480 0.825540 0.038850 -0.504583
O50   O     O_R   0.116720 0.669210 0.267660 -0.486733

loop_
_geom_bond_atom_site_label_1
_geom_bond_atom_site_label_2
_ccdc_geom_bond_type
C44   C49   A    
C33   C55   S    
C30   C51   A    
Cr4   O6    S    
H21   O37   S    
Cr5   O13   S    
C46   C59   S    
Cr2   O47   S    
C12   O47   A    
C4    C8    D    
C25   O23   A    
C28   C56   A    
C7    C8    S    
C2    C6    D    
C19   O6    A    
H26   O46   S    
C22   O14   A    
H22   O39   S    
H25   O43   S    
Cr1   O49   S    
Cr2   O12   S    
C38   C42   A    
H14   O21   S    
C3    C7    D    
C10   C15   D    
C5    C68   D    
C20   O7    A    
Cr6   O19   S    
H24   O41   S    
C59   O31   D    
C22   O1    A    
Cr3   O4    S    
C10   H9    S    
C43   H31   S    
C63   O41   S    
C65   O44   D    
H19   O32   S    
C53   O21   S    
C47   C60   S    
Cr4   O3    S    
C61   O37   S    
C15   H5    S    
Cr4   O2    S    
C11   H13   S    
C16   C17   S    
Cr5   O17   S    
C62   O39   S    
Cr3   O5    S    
C41   C46   A    
C58   O29   D    
C14   H6    S    
C19   C27   S    
C25   O16   A    
C63   O40   D    
C30   C67   A    
C27   C50   A    
H16   O26   S    
C27   C45   A    
Cr1   O34   S    
Cr5   O14   S    
C64   O42   D    
C57   O27   D    
C3    C24   S    
C3    C65   S    
C64   O43   S    
C38   H23   S    
C23   O3    A    
C32   C54   S    
C20   O11   A    
C33   C66   A    
C39   H27   S    
C40   C44   A    
Cr1   O1    S    
C54   O24   S    
Cr1   O45   S    
C37   H12   S    
C36   C40   A    
C18   C28   S    
C18   O5    A    
C44   C58   S    
C12   O2    A    
C20   C30   S    
C60   O33   D    
C59   O32   S    
C58   O30   S    
C34   O49   A    
C54   O22   D    
Cr4   O7    S    
Cr2   O23   S    
C50   C56   A    
H15   O24   S    
C41   H29   S    
Cr3   O8    S    
C51   C66   A    
C1    O50   A    
C35   C39   A    
C9    C14   D    
C36   H1    S    
C47   C51   A    
C60   O35   S    
C4    C22   S    
C28   C49   A    
Cr3   O18   S    
C14   C15   S    
C45   C49   A    
Cr5   O18   S    
Cr6   O10   S    
C16   H8    S    
C6    H32   S    
C32   C37   A    
C31   C53   S    
C52   C67   A    
C7    H4    S    
Cr2   O19   S    
Cr6   O16   S    
C55   O25   D    
C35   C67   A    
C8    H3    S    
C34   O4    A    
C57   O28   S    
C1    C13   S    
C26   O17   A    
C43   C48   A    
Cr6   O11   S    
C46   C50   A    
C63   C68   S    
Cr2   O48   S    
H20   O35   S    
C24   O12   A    
C62   O38   D    
C21   O8    A    
C42   H30   S    
C18   O9    A    
C39   C43   A    
C11   C12   S    
C10   C23   S    
C4    C64   S    
C26   O34   A    
C33   C38   A    
Cr5   O9    S    
C13   C17   D    
Cr4   O19   S    
C35   C57   S    
C26   C68   S    
C65   O46   S    
C21   O13   A    
C48   C61   S    
C5    C6    S    
H17   O28   S    
C21   C29   S    
C19   O10   A    
C5    H2    S    
Cr3   O50   S    
C24   O15   A    
C9    C34   S    
C1    O45   A    
C2    C25   S    
C17   H7    S    
C42   C47   A    
C37   C41   A    
C11   C16   D    
C53   O20   D    
Cr1   O18   S    
C9    H10   S    
C40   H28   S    
C29   C66   A    
C61   O36   D    
C48   C52   A    
Cr6   O15   S    
H18   O30   S    
C55   O26   S    
C31   C45   A    
C23   O48   A    
C13   H11   S    
C31   C36   A    
C32   C56   A    
C2    C62   S    
C29   C52   A    
