data_mof_unit_33519.cif
_audit_creation_date              2012-12-11T14:45:57-0500
_audit_creation_method            fapswitch 2.2
_symmetry_space_group_name_H-M    P1
_symmetry_Int_Tables_number       1
_space_group_crystal_system       triclinic
_cell_length_a                    10.864008
_cell_length_b                    10.982052
_cell_length_c                    18.806182
_cell_angle_alpha                 90.195925
_cell_angle_beta                  89.523339
_cell_angle_gamma                 119.89108
_cell_volume                      1945.20452793

loop_
_atom_site_label
_atom_site_type_symbol
_atom_type_description
_atom_site_fract_x
_atom_site_fract_y
_atom_site_fract_z
_atom_type_partial_charge
C1    C     C_R   0.866101 0.636992 0.604105 0.535914
C2    C     C_R   0.929288 0.158507 0.711939 -0.010810
C3    C     C_R   0.953714 0.160346 0.785501 -0.000494
C4    C     C_R   0.265862 0.628961 0.605100 0.536658
C5    C     C_R   0.770897 0.257514 0.734850 0.009947
C6    C     C_R   0.805854 0.265761 0.807653 -0.030082
C7    C     C_R   0.652288 0.278462 0.718166 0.301357
C8    C     C_R   0.590157 0.320428 0.772002 -0.112377
C9    C     C_R   0.641237 0.344919 0.840391 -0.156796
C10   C     C_R   0.753798 0.326199 0.857160 -0.098580
C11   C     C_R   0.850230 0.219885 0.685658 -0.026220
C12   C     C_R   0.264058 0.549894 0.796893 -0.149674
C13   C     C_R   0.714950 0.635178 0.703414 -0.133223
C14   C     C_R   0.698313 0.645651 0.776070 -0.123737
C15   C     C_R   0.806649 0.663943 0.822903 0.043271
C16   C     C_R   0.877609 0.274232 0.611740 0.553518
C17   C     C_R   0.931975 0.673940 0.797444 -0.132882
C18   C     C_R   0.948611 0.664112 0.725272 -0.123713
C19   C     C_R   0.841063 0.646300 0.678379 0.050209
C20   C     C_R   0.242988 0.536947 0.275250 -0.127831
C21   C     C_R   0.258653 0.553570 0.202629 -0.137689
C22   C     C_R   0.332993 0.688527 0.173689 0.022955
C23   C     C_R   0.246602 0.533803 0.724315 -0.142794
C24   C     C_R   0.378599 0.807020 0.217628 -0.139839
C25   C     C_R   0.360020 0.789980 0.290862 -0.150871
C26   C     C_R   0.297671 0.654905 0.319817 0.031083
C27   C     C_R   0.785726 0.252341 0.275313 -0.128567
C28   C     C_R   0.869901 0.636396 0.395519 0.544287
C29   C     C_R   0.784425 0.235868 0.202658 -0.139771
C30   C     C_R   0.852014 0.168199 0.172433 0.023880
C31   C     C_R   0.932969 0.129551 0.215031 -0.138988
C32   C     C_R   0.936178 0.148388 0.288272 -0.152770
C33   C     C_R   0.857554 0.204547 0.318706 0.029427
C34   C     C_R   0.299342 0.652123 0.679923 0.021990
C35   C     C_R   0.966125 0.715512 0.276385 -0.127075
C36   C     C_R   0.950720 0.716812 0.203848 -0.138059
C37   C     C_R   0.814885 0.650919 0.174588 0.023773
C38   C     C_R   0.694939 0.571973 0.218061 -0.139548
C39   C     C_R   0.710857 0.568429 0.291186 -0.150619
C40   C     C_R   0.266193 0.630646 0.394881 0.546150
C41   C     C_R   0.846217 0.645130 0.320623 0.032109
C42   C     C_R   0.814390 0.111242 0.898037 0.540334
C43   C     C_R   0.394599 0.701229 0.896914 0.539133
C44   C     C_R   0.795924 0.693772 0.896366 0.540377
C45   C     C_R   0.875868 0.196451 0.832888 -0.039574
C46   C     C_R   0.809393 0.108359 0.101999 0.541893
C47   C     C_R   0.393512 0.704523 0.103131 0.545010
C48   C     C_R   0.797774 0.692960 0.104057 0.546211
C49   C     C_R   0.864719 0.235057 0.393930 0.547101
C50   C     C_R   0.363920 0.786668 0.709040 -0.155793
C51   C     C_R   0.383027 0.803370 0.782113 -0.142991
C52   C     C_R   0.337117 0.684667 0.825977 0.017299
C53   C     C_3   0.446658 0.167237 0.649969 -0.023535
C54   C     C_3   0.405673 0.091714 0.578677 -0.336423
C55   C     C_R   0.052077 0.121137 0.809709 -0.079914
C56   C     C_R   0.108298 0.061766 0.763471 -0.125049
C57   C     C_R   0.067127 0.040087 0.692773 -0.128926
C58   C     C_R   0.978782 0.087824 0.666976 -0.083461
Cr1   Cr    Cr6+3 0.791660 0.390250 0.499930 1.040245
Cr2   Cr    Cr6+3 0.098520 0.708290 0.500540 0.986656
Cr3   Cr    Cr6+3 0.109770 0.401430 0.499480 1.003355
Cr4   Cr    Cr6+3 0.874790 0.925890 0.000070 1.005604
Cr5   Cr    Cr6+3 0.574120 0.948670 0.999300 1.009562
Cr6   Cr    Cr6+3 0.551420 0.625320 0.000920 0.998390
H1    H     H_    0.402734 0.877598 0.675058 0.118324
H2    H     H_    0.436810 0.912444 0.196089 0.140274
H3    H     H_    0.441525 0.908812 0.803491 0.142863
H4    H     H_    0.397219 0.881369 0.324805 0.121270
H5    H     H_    0.730388 0.303063 0.297496 0.142440
H6    H     H_    0.723146 0.268159 0.170644 0.129208
H7    H     H_    0.985958 0.076759 0.192534 0.139751
H8    H     H_    0.996546 0.116322 0.321095 0.121886
H9    H     H_    0.072578 0.769289 0.297790 0.143944
H10   H     H_    0.044610 0.776539 0.171122 0.130403
H11   H     H_    0.588779 0.520554 0.196310 0.139658
H12   H     H_    0.502950 0.338153 0.760338 0.107460
H13   H     H_    0.618189 0.509180 0.324705 0.121949
H14   H     H_    0.227344 0.457185 0.829820 0.128834
H15   H     H_    0.191028 0.428274 0.702941 0.145245
H16   H     H_    0.181015 0.029261 0.782936 0.105801
H17   H     H_    0.104386 0.986944 0.657711 0.128743
H18   H     H_    0.088226 0.138144 0.864114 0.130722
H19   H     H_    0.945429 0.063608 0.612290 0.143878
H20   H     H_    0.791225 0.345652 0.911542 0.124761
H21   H     H_    0.391863 0.229434 0.655483 0.133137
H22   H     H_    0.409010 0.087142 0.693139 0.101266
H23   H     H_    0.592603 0.377906 0.880721 0.138751
H24   H     H_    0.462493 0.032226 0.570209 0.165660
H25   H     H_    0.289715 0.017210 0.577255 0.098899
H26   H     H_    0.434376 0.169205 0.534959 0.146079
H27   H     H_    0.631788 0.620832 0.667167 0.118072
H28   H     H_    0.602428 0.641889 0.795665 0.138816
H29   H     H_    0.016827 0.690941 0.833193 0.117684
H30   H     H_    0.045930 0.671114 0.705723 0.133651
H31   H     H_    0.187408 0.431231 0.296527 0.143398
H32   H     H_    0.220975 0.460980 0.169483 0.129709
O1    O     O_R   0.766500 0.250040 0.579790 -0.444774
O2    O     O_R   0.413330 0.603360 0.920440 -0.529953
O3    O     O_R   0.676110 0.626250 0.926750 -0.519173
O4    O     O_R   0.798570 0.516780 0.574780 -0.470498
O5    O     O_R   0.895350 0.809870 0.080950 -0.524948
O6    O     O_R   0.872490 0.049760 0.073800 -0.509228
O7    O     O_R   0.691680 0.088070 0.079070 -0.527815
O8    O     O_R   0.451720 0.825250 0.074050 -0.505484
O9    O     O_R   0.413580 0.606370 0.080960 -0.523045
O10   O     O_R   0.676340 0.629040 0.075550 -0.505367
O11   O     O_3   0.666780 0.833290 0.000090 -0.236743
O12   O     O_R   0.218690 0.701900 0.425960 -0.505522
O13   O     O_R   0.984000 0.732950 0.581090 -0.538565
O14   O     O_R   0.218600 0.700890 0.574760 -0.513204
O15   O     O_R   0.249390 0.515350 0.579940 -0.523397
O16   O     O_R   0.982790 0.280900 0.573700 -0.521842
O17   O     O_R   0.766600 0.251130 0.419260 -0.527176
O18   O     O_R   0.798660 0.517790 0.425980 -0.509527
O19   O     O_R   0.984100 0.734040 0.420570 -0.524351
O20   O     O_3   0.595452 0.258570 0.650686 -0.516356
O21   O     O_R   0.249490 0.516440 0.419420 -0.521930
O22   O     O_R   0.982880 0.281910 0.424890 -0.505066
O23   O     O_3   0.999980 0.499990 0.499980 -0.263905
O24   O     O_R   0.895110 0.806860 0.920430 -0.516387
O25   O     O_R   0.872260 0.046970 0.925000 -0.509613
O26   O     O_R   0.691430 0.085060 0.918550 -0.513718
O27   O     O_R   0.451490 0.822460 0.925250 -0.503967

loop_
_geom_bond_atom_site_label_1
_geom_bond_atom_site_label_2
_ccdc_geom_bond_type
C49   O17   A    
C55   C56   A    
C6    C45   A    
Cr4   O6    S    
C27   C29   A    
C35   C36   A    
C43   O2    A    
C7    C8    A    
C39   C41   A    
C53   C54   S    
C27   C33   A    
C46   O6    A    
C12   C23   A    
C16   O16   A    
C29   C30   A    
C39   H13   S    
C36   C37   A    
C15   C44   S    
C54   H26   S    
C5    C6    A    
C44   O3    A    
C16   O1    A    
Cr3   O23   S    
C44   O24   A    
C33   C49   S    
C28   C41   S    
C8    H12   S    
C56   C57   A    
Cr2   O23   S    
C18   C19   A    
Cr2   O13   S    
C1    O13   A    
C3    C55   A    
Cr6   O3    S    
C48   O10   A    
C31   C32   A    
C8    C9    A    
C47   O9    A    
C12   H14   S    
C53   H22   S    
C9    C10   A    
Cr4   O24   S    
Cr2   O12   S    
C53   O20   S    
C24   H2    S    
C40   O12   A    
Cr4   O5    S    
Cr6   O2    S    
C22   C47   S    
C13   C14   A    
C13   H27   S    
Cr1   O4    S    
C25   H4    S    
C35   C41   A    
C2    C11   A    
C1    O4    A    
C12   C52   A    
C30   C46   S    
C50   C51   A    
C38   H11   S    
C38   C39   A    
C4    C34   S    
C34   C50   A    
C1    C19   S    
C13   C19   A    
Cr3   O21   S    
C51   C52   A    
Cr6   O9    S    
C24   C25   A    
C54   H25   S    
Cr5   O7    S    
C5    C7    A    
Cr4   O11   S    
C25   C26   A    
C3    C45   A    
C55   H18   S    
C42   C45   S    
C7    O20   S    
C37   C38   A    
C28   O19   A    
C11   C16   S    
C49   O22   A    
Cr1   O17   S    
C23   C34   A    
C17   C18   A    
C51   H3    S    
C37   C48   S    
Cr6   O10   S    
C14   H28   S    
C28   O18   A    
C20   H31   S    
Cr1   O1    S    
C57   H17   S    
C17   H29   S    
Cr5   O11   S    
Cr3   O15   S    
C43   O27   A    
Cr5   O26   S    
C42   O26   A    
Cr6   O11   S    
C29   H6    S    
C15   C17   A    
C4    O14   A    
C35   H9    S    
Cr1   O23   S    
C47   O8    A    
Cr3   O22   S    
C4    O15   A    
Cr5   O8    S    
C27   H5    S    
C6    C10   A    
Cr5   O27   S    
C2    C58   A    
C5    C11   A    
C21   H32   S    
C46   O7    A    
C56   H16   S    
C32   C33   A    
C2    C3    A    
C58   H19   S    
C9    H23   S    
C54   H24   S    
C26   C40   S    
C57   C58   A    
C30   C31   A    
C20   C26   A    
Cr1   O18   S    
C18   H30   S    
C48   O5    A    
C10   H20   S    
C40   O21   A    
C22   C24   A    
Cr4   O25   S    
C43   C52   S    
C50   H1    S    
Cr2   O14   S    
C20   C21   A    
C14   C15   A    
Cr2   O19   S    
C53   H21   S    
C23   H15   S    
C21   C22   A    
Cr3   O16   S    
C36   H10   S    
C42   O25   A    
C31   H7    S    
C32   H8    S    
