data_mof_unit_6100.cif
_audit_creation_date              2012-10-26T17:11:06-0400
_audit_creation_method            fapswitch 2.2
_symmetry_space_group_name_H-M    P1
_symmetry_Int_Tables_number       1
_space_group_crystal_system       triclinic
_cell_length_a                    28.210183
_cell_length_b                    18.801712
_cell_length_c                    16.867551
_cell_angle_alpha                 89.639236
_cell_angle_beta                  62.292533
_cell_angle_gamma                 89.736286
_cell_volume                      7920.50032518

loop_
_atom_site_label
_atom_site_type_symbol
_atom_type_description
_atom_site_fract_x
_atom_site_fract_y
_atom_site_fract_z
_atom_type_partial_charge
C1    C     C_R   0.295347 0.729070 0.329132 0.557930
C2    C     C_R   0.447817 0.126445 0.512615 0.126404
C3    C     C_R   0.925228 0.094957 0.067902 0.562850
C4    C     C_R   0.427769 0.401961 0.066123 0.567980
C5    C     C_R   0.572287 0.598552 0.934454 0.555437
C6    C     C_R   0.574473 0.404274 0.932737 0.560645
C7    C     C_R   0.425229 0.594957 0.067902 0.562850
C8    C     C_R   0.055000 0.496982 0.486362 -0.052757
C9    C     C_R   0.952806 0.499220 0.492482 -0.051786
C10   C     C_R   0.554999 0.996982 0.486365 -0.052758
C11   C     C_R   0.452805 0.999220 0.492486 -0.051786
C12   C     C_R   0.022314 0.558403 0.513797 0.046790
C13   C     C_R   0.462589 0.878397 0.442785 0.137199
C14   C     C_R   0.984529 0.436194 0.466582 0.041841
C15   C     C_R   0.974164 0.561731 0.507767 0.048114
C16   C     C_R   0.036502 0.434562 0.462901 0.041310
C17   C     C_R   0.522313 0.058403 0.513800 0.046790
C18   C     C_R   0.484528 0.936193 0.466586 0.041841
C19   C     C_R   0.474162 0.061731 0.507771 0.048114
C20   C     C_R   0.536501 0.934562 0.462904 0.041311
C21   C     C_R   0.135810 0.435542 0.471784 -0.016453
C22   C     C_R   0.871896 0.565159 0.511317 -0.023925
C23   C     C_R   0.877741 0.435854 0.489320 -0.025801
C24   C     C_R   0.539146 0.114259 0.549072 0.135365
C25   C     C_R   0.125104 0.562807 0.503661 -0.030377
C26   C     C_R   0.635809 0.935542 0.471786 -0.016453
C27   C     C_R   0.371895 0.065159 0.511319 -0.023924
C28   C     C_R   0.377740 0.935854 0.489323 -0.025801
C29   C     C_R   0.625103 0.062807 0.503663 -0.030378
C30   C     C_R   0.180827 0.435147 0.489161 -0.006874
C31   C     C_R   0.822930 0.565220 0.504122 -0.010805
C32   C     C_R   0.825881 0.435595 0.493108 -0.011339
C33   C     C_R   0.175748 0.564173 0.504263 -0.017350
C34   C     C_R   0.680827 0.935147 0.489162 -0.006874
C35   C     C_R   0.070094 0.373190 0.440607 0.121582
C36   C     C_R   0.322929 0.065220 0.504123 -0.010808
C37   C     C_R   0.325880 0.935595 0.493109 -0.011338
C38   C     C_R   0.675748 0.064173 0.504264 -0.017350
C39   C     C_R   0.204098 0.500106 0.492590 0.202377
C40   C     C_R   0.798012 0.500143 0.506010 0.199996
C41   C     C_R   0.704098 0.000106 0.492590 0.202378
C42   C     C_R   0.298011 0.000143 0.506010 0.199995
C43   C     C_R   0.104999 0.497809 0.488823 -0.055783
C44   C     C_R   0.901068 0.500605 0.495789 -0.057177
C45   C     C_R   0.604998 0.997809 0.488826 -0.055783
C46   C     C_R   0.947818 0.626445 0.512613 0.126405
C47   C     C_R   0.401067 0.000605 0.495792 -0.057176
C48   C     C_R   0.621729 0.877449 0.434189 0.104162
C49   C     C_R   0.394085 0.126263 0.531785 0.105511
C50   C     C_R   0.406946 0.873192 0.483811 0.119433
C51   C     C_R   0.593655 0.124265 0.515061 0.128002
C52   C     C_R   0.121729 0.377449 0.434187 0.104161
C53   C     C_R   0.894085 0.626263 0.531783 0.105511
C54   C     C_R   0.906947 0.373192 0.483807 0.119433
C55   C     C_R   0.093656 0.624265 0.515057 0.128002
C56   C     C_3   0.292372 0.501451 0.392504 -0.071293
C57   C     C_R   0.962590 0.378398 0.442780 0.137199
C58   C     C_3   0.711315 0.499498 0.613367 -0.074262
C59   C     C_3   0.792372 0.001451 0.392504 -0.071294
C60   C     C_3   0.211314 0.999498 0.613364 -0.074261
C61   C     C_3   0.248212 0.944707 0.943614 -0.127173
C62   C     C_3   0.904254 0.262572 0.866543 -0.096971
C63   C     C_3   0.843708 0.893422 0.895444 -0.065579
C64   C     C_3   0.123966 0.326657 0.084508 -0.102208
C65   C     C_3   0.748214 0.444700 0.943609 -0.127173
C66   C     C_3   0.404257 0.762584 0.866545 -0.096971
C67   C     C_3   0.343697 0.393440 0.895466 -0.065585
C68   C     C_R   0.039147 0.614260 0.549068 0.135364
C69   C     C_3   0.623971 0.826656 0.084501 -0.102211
C70   C     C_3   0.101256 0.783976 0.079147 -0.096312
C71   C     C_3   0.806367 0.070250 0.038082 -0.103530
C72   C     C_3   0.922143 0.726090 0.953142 -0.082475
C73   C     C_3   0.158113 0.088961 0.031875 -0.045357
C74   C     C_3   0.601254 0.283975 0.079148 -0.096312
C75   C     C_3   0.306370 0.570259 0.038069 -0.103531
C76   C     C_3   0.422137 0.226093 0.953137 -0.082477
C77   C     C_3   0.658115 0.588956 0.031872 -0.045357
C78   C     C_3   0.206481 0.642195 0.834883 -0.119344
C79   C     C_R   0.237388 0.789613 0.933786 -0.019801
C80   C     C_3   0.703179 0.224706 0.241361 -0.102395
C81   C     C_3   0.778523 0.641384 0.181996 -0.102044
C82   C     C_3   0.272800 0.118044 0.776793 -0.123797
C83   C     C_3   0.706475 0.142191 0.834885 -0.119346
C84   C     C_3   0.203180 0.724708 0.241358 -0.102396
C85   C     C_3   0.278522 0.141387 0.181996 -0.102045
C86   C     C_3   0.772801 0.618038 0.776797 -0.123820
C87   C     C_R   0.795902 0.254819 0.026689 -0.025357
C88   C     C_R   0.784646 0.775091 0.037030 -0.022219
C89   C     C_R   0.704692 0.271136 0.670343 0.565713
C90   C     C_R   0.220888 0.242719 0.950713 -0.023079
C91   C     C_R   0.737386 0.289607 0.933788 -0.019801
C92   C     C_R   0.295904 0.754825 0.026688 -0.025358
C93   C     C_R   0.284642 0.275097 0.037033 -0.022223
C94   C     C_R   0.720892 0.742712 0.950709 -0.023082
C95   C     C_R   0.284550 0.748354 0.892691 -0.139622
C96   C     C_R   0.760613 0.313383 0.053187 -0.133473
C97   C     C_R   0.728488 0.767504 0.086187 -0.129326
C98   C     C_R   0.273939 0.266683 0.901725 -0.144102
C99   C     C_R   0.784546 0.248345 0.892694 -0.139624
C100  C     C_R   0.705827 0.725810 0.669722 0.577579
C101  C     C_R   0.260614 0.813387 0.053187 -0.133474
C102  C     C_R   0.228484 0.267507 0.086191 -0.129328
C103  C     C_R   0.773944 0.766670 0.901721 -0.144117
C104  C     C_R   0.315738 0.735119 0.935613 0.281375
C105  C     C_R   0.734130 0.333669 0.004087 0.297243
C106  C     C_R   0.696487 0.755452 0.044238 0.279994
C107  C     C_R   0.304682 0.286118 0.943265 0.257101
C108  C     C_R   0.815735 0.235110 0.935615 0.281373
C109  C     C_R   0.234131 0.833674 0.004088 0.297242
C110  C     C_R   0.196483 0.255456 0.044242 0.279989
C111  C     C_R   0.294569 0.272659 0.329719 0.571537
C112  C     C_R   0.804687 0.786106 0.943260 0.257096
C113  C     C_R   0.148618 0.833010 0.941245 0.262746
C114  C     C_R   0.850449 0.162033 0.061268 0.270341
C115  C     C_R   0.869405 0.811464 0.049106 0.261470
C116  C     C_R   0.143586 0.171947 0.946531 0.263058
C117  C     C_R   0.648617 0.333008 0.941246 0.262747
C118  C     C_R   0.350451 0.662037 0.061266 0.270340
C119  C     C_R   0.369403 0.311467 0.049107 0.261472
C120  C     C_R   0.643588 0.671943 0.946530 0.263063
C121  C     C_R   0.120920 0.855625 0.893346 -0.038643
C122  C     C_R   0.795347 0.229070 0.329132 0.557929
C123  C     C_R   0.880506 0.145777 0.106330 -0.036647
C124  C     C_R   0.885122 0.849088 0.104321 -0.029870
C125  C     C_R   0.115478 0.151949 0.898372 -0.034615
C126  C     C_R   0.620920 0.355624 0.893347 -0.038642
C127  C     C_R   0.380507 0.645779 0.106329 -0.036646
C128  C     C_R   0.385122 0.349088 0.104321 -0.029870
C129  C     C_R   0.615479 0.651949 0.898372 -0.034615
C130  C     C_R   0.140312 0.835801 0.804323 -0.257066
C131  C     C_R   0.865157 0.174430 0.190742 -0.251541
C132  C     C_R   0.858819 0.837826 0.196242 -0.254931
C133  C     C_R   0.204693 0.771136 0.670343 0.565712
C134  C     C_R   0.132589 0.177959 0.811601 -0.249203
C135  C     C_R   0.640312 0.335801 0.804323 -0.257066
C136  C     C_R   0.365157 0.674430 0.190742 -0.251541
C137  C     C_R   0.358820 0.337825 0.196242 -0.254931
C138  C     C_R   0.632589 0.677959 0.811601 -0.249202
C139  C     C_R   0.182786 0.788275 0.765462 -0.020400
C140  C     C_R   0.818760 0.215517 0.231883 -0.022731
C141  C     C_R   0.817259 0.788864 0.233292 -0.014653
C142  C     C_R   0.183238 0.208289 0.765504 -0.015601
C143  C     C_R   0.682786 0.288274 0.765463 -0.020399
C144  C     C_R   0.205827 0.225810 0.669722 0.577573
C145  C     C_R   0.318760 0.715517 0.231883 -0.022731
C146  C     C_R   0.317258 0.288864 0.233292 -0.014653
C147  C     C_R   0.683238 0.708288 0.765504 -0.015595
C148  C     C_R   0.207290 0.761622 0.815514 0.221845
C149  C     C_R   0.793162 0.238921 0.180892 0.217798
C150  C     C_R   0.796437 0.759308 0.178528 0.214894
C151  C     C_R   0.215608 0.211632 0.808159 0.222687
C152  C     C_R   0.707288 0.261618 0.815515 0.221845
C153  C     C_R   0.293163 0.738923 0.180891 0.217800
C154  C     C_R   0.296435 0.259311 0.178529 0.214895
C155  C     C_R   0.794569 0.772659 0.329719 0.571535
C156  C     C_R   0.715610 0.711628 0.808156 0.222689
C157  C     C_R   0.197916 0.795430 0.896163 0.001973
C158  C     C_R   0.815060 0.220835 0.088766 -0.001761
C159  C     C_R   0.817604 0.781019 0.087199 -0.009429
C160  C     C_R   0.191429 0.212196 0.902812 0.000851
C161  C     C_R   0.697914 0.295425 0.896165 0.001973
C162  C     C_R   0.315062 0.720839 0.088765 -0.001762
C163  C     C_R   0.317600 0.281024 0.087201 -0.009430
C164  C     C_R   0.691432 0.712191 0.902810 0.000849
C165  C     C_R   0.200147 0.631079 0.515482 0.569595
C166  C     C_R   0.570093 0.873190 0.440610 0.121582
C167  C     C_R   0.800010 0.368924 0.484431 0.574748
C168  C     C_R   0.798200 0.631468 0.490530 0.589939
C169  C     C_R   0.203074 0.368395 0.506696 0.588147
C170  C     C_R   0.700147 0.131079 0.515482 0.569595
C171  C     C_R   0.300010 0.868924 0.484431 0.574749
C172  C     C_R   0.298200 0.131468 0.490531 0.589936
C173  C     C_R   0.703074 0.868395 0.506697 0.588146
C174  C     C_R   0.927769 0.901961 0.066123 0.567983
C175  C     C_R   0.072287 0.098553 0.934454 0.555438
C176  C     C_R   0.074473 0.904274 0.932737 0.560647
Cu1   Cu    Cu3+1 0.209920 0.785290 0.495070 0.983630
Cu2   Cu    Cu3+1 0.504760 0.500000 0.075850 0.978057
Cu3   Cu    Cu3+1 0.995240 0.000000 0.924150 0.982778
Cu4   Cu    Cu3+1 0.004760 0.000000 0.075850 0.978057
Cu5   Cu    Cu3+1 0.790080 0.214710 0.504930 0.990961
Cu6   Cu    Cu3+1 0.790080 0.785290 0.504930 0.954214
Cu7   Cu    Cu3+1 0.209920 0.214710 0.495070 0.963465
Cu8   Cu    Cu3+1 0.709920 0.285290 0.495070 0.983632
Cu9   Cu    Cu3+1 0.290080 0.714710 0.504930 0.990960
Cu10  Cu    Cu3+1 0.290080 0.285290 0.504930 0.954215
Cu11  Cu    Cu3+1 0.709920 0.714710 0.495070 0.963468
Cu12  Cu    Cu3+1 0.495240 0.500000 0.924150 0.982785
H1    H     H_    0.301123 0.730879 0.824472 0.209555
H2    H     H_    0.886498 0.159365 0.227609 0.169154
H3    H     H_    0.268154 0.600825 0.068434 0.089338
H4    H     H_    0.309139 0.535080 0.089082 0.092354
H5    H     H_    0.305407 0.536138 0.985547 0.125248
H6    H     H_    0.388485 0.191850 0.959507 0.117450
H7    H     H_    0.435900 0.209614 0.002638 0.080199
H8    H     H_    0.455931 0.217602 0.885284 0.143329
H9    H     H_    0.698769 0.606647 0.017805 0.090355
H10   H     H_    0.660637 0.547811 0.982805 0.116164
H11   H     H_    0.639474 0.563660 0.099111 0.170017
H12   H     H_    0.170588 0.636450 0.824200 0.112473
H13   H     H_    0.871858 0.865722 0.238684 0.160350
H14   H     H_    0.194285 0.646553 0.907631 0.097107
H15   H     H_    0.230734 0.593028 0.810157 0.149372
H16   H     H_    0.704708 0.179405 0.282955 0.134599
H17   H     H_    0.704470 0.204239 0.178693 0.090890
H18   H     H_    0.664277 0.252363 0.279052 0.150316
H19   H     H_    0.811349 0.628653 0.198986 0.115084
H20   H     H_    0.793192 0.637349 0.108500 0.099961
H21   H     H_    0.746839 0.600722 0.214713 0.155496
H22   H     H_    0.244259 0.084564 0.764909 0.094637
H23   H     H_    0.266661 0.110083 0.846286 0.095639
H24   H     H_    0.109226 0.167792 0.776930 0.163851
H25   H     H_    0.313508 0.098223 0.731653 0.147085
H26   H     H_    0.670582 0.136449 0.824202 0.112473
H27   H     H_    0.694280 0.146548 0.907633 0.097108
H28   H     H_    0.730727 0.093023 0.810159 0.149373
H29   H     H_    0.204709 0.679407 0.282952 0.134599
H30   H     H_    0.204472 0.704243 0.178690 0.090889
H31   H     H_    0.164278 0.752365 0.279050 0.150315
H32   H     H_    0.311348 0.128656 0.198984 0.115085
H33   H     H_    0.293189 0.137354 0.108499 0.099960
H34   H     H_    0.246837 0.100725 0.214712 0.155495
H35   H     H_    0.621631 0.356396 0.765455 0.168891
H36   H     H_    0.744243 0.584557 0.764955 0.094618
H37   H     H_    0.766683 0.610090 0.846279 0.095664
H38   H     H_    0.813500 0.598208 0.731633 0.147094
H39   H     H_    0.386497 0.659363 0.227610 0.169154
H40   H     H_    0.371859 0.365720 0.238683 0.160352
H41   H     H_    0.609225 0.667795 0.776932 0.163850
H42   H     H_    0.287175 0.549407 0.358191 0.104761
H43   H     H_    0.289333 0.452382 0.358569 0.105409
H44   H     H_    0.333396 0.503236 0.385679 0.140828
H45   H     H_    0.756452 0.347648 0.107099 0.197835
H46   H     H_    0.715691 0.549126 0.644976 0.107000
H47   H     H_    0.718408 0.452087 0.646393 0.100370
H48   H     H_    0.669285 0.497023 0.625035 0.145129
H49   H     H_    0.787174 0.049407 0.358191 0.104761
H50   H     H_    0.789333 0.952382 0.358569 0.105408
H51   H     H_    0.833396 0.003236 0.385677 0.140828
H52   H     H_    0.215688 0.049127 0.644973 0.106995
H53   H     H_    0.218407 0.952088 0.646391 0.100369
H54   H     H_    0.169284 0.997020 0.625029 0.145129
H55   H     H_    0.667370 0.834716 0.311932 0.219603
H56   H     H_    0.707968 0.775271 0.157764 0.181387
H57   H     H_    0.649659 0.776356 0.397672 0.259793
H58   H     H_    0.374310 0.230985 0.554690 0.237575
H59   H     H_    0.368190 0.185525 0.643999 0.246507
H60   H     H_    0.391570 0.838793 0.607510 0.214683
H61   H     H_    0.402157 0.773205 0.533144 0.235744
H62   H     H_    0.595877 0.227885 0.477934 0.235015
H63   H     H_    0.607261 0.168280 0.396579 0.206575
H64   H     H_    0.167372 0.334716 0.311930 0.219603
H65   H     H_    0.149660 0.276356 0.397671 0.259793
H66   H     H_    0.874310 0.730984 0.554693 0.237575
H67   H     H_    0.292033 0.275356 0.830480 0.200459
H68   H     H_    0.868189 0.685521 0.644000 0.246511
H69   H     H_    0.891572 0.338793 0.607506 0.214683
H70   H     H_    0.902160 0.273205 0.533139 0.235743
H71   H     H_    0.095879 0.727885 0.477930 0.235015
H72   H     H_    0.107263 0.668279 0.396575 0.206574
H73   H     H_    0.553107 0.769817 0.477525 0.220039
H74   H     H_    0.576390 0.785554 0.366220 0.252908
H75   H     H_    0.475110 0.213900 0.433825 0.217868
H76   H     H_    0.458060 0.228644 0.542376 0.233333
H77   H     H_    0.481514 0.872647 0.311886 0.214394
H78   H     H_    0.801119 0.230868 0.824476 0.209556
H79   H     H_    0.480510 0.793654 0.360307 0.245030
H80   H     H_    0.507060 0.141188 0.679058 0.217004
H81   H     H_    0.512943 0.209329 0.610689 0.234994
H82   H     H_    0.053107 0.269817 0.477520 0.220038
H83   H     H_    0.076391 0.285555 0.366215 0.252909
H84   H     H_    0.975110 0.713901 0.433824 0.217868
H85   H     H_    0.958060 0.728644 0.542374 0.233333
H86   H     H_    0.981515 0.372648 0.311882 0.214392
H87   H     H_    0.980512 0.293655 0.360302 0.245031
H88   H     H_    0.007061 0.641188 0.679054 0.217007
H89   H     H_    0.256452 0.847652 0.107101 0.197836
H90   H     H_    0.012944 0.709329 0.610687 0.234994
H91   H     H_    0.235687 0.944314 0.890166 0.115943
H92   H     H_    0.291279 0.929144 0.914952 0.090415
H93   H     H_    0.245927 0.999906 0.967199 0.103865
H94   H     H_    0.904688 0.280850 0.928793 0.110727
H95   H     H_    0.896670 0.308243 0.831547 0.090294
H96   H     H_    0.944695 0.241407 0.821546 0.147572
H97   H     H_    0.828554 0.912545 0.965361 0.107744
H98   H     H_    0.815612 0.908911 0.868911 0.084109
H99   H     H_    0.882409 0.920435 0.853865 0.167984
H100  H     H_    0.207965 0.275272 0.157769 0.181389
H101  H     H_    0.131311 0.334755 0.014296 0.106770
H102  H     H_    0.143169 0.369803 0.104398 0.089813
H103  H     H_    0.080134 0.330303 0.128469 0.153227
H104  H     H_    0.735689 0.444306 0.890161 0.115942
H105  H     H_    0.791280 0.429137 0.914948 0.090416
H106  H     H_    0.745929 0.499901 0.967191 0.103864
H107  H     H_    0.404690 0.780859 0.928797 0.110728
H108  H     H_    0.396672 0.808257 0.831552 0.090293
H109  H     H_    0.444699 0.741421 0.821547 0.147571
H110  H     H_    0.328544 0.412555 0.965386 0.107737
H111  H     H_    0.792040 0.775340 0.830475 0.200459
H112  H     H_    0.315597 0.408931 0.868940 0.084104
H113  H     H_    0.382395 0.420458 0.853889 0.167988
H114  H     H_    0.631318 0.834755 0.014289 0.106770
H115  H     H_    0.643175 0.869801 0.104392 0.089812
H116  H     H_    0.580140 0.830303 0.128461 0.153227
H117  H     H_    0.130546 0.740088 0.066024 0.089098
H118  H     H_    0.069139 0.766875 0.062626 0.099500
H119  H     H_    0.082162 0.795377 0.151920 0.141102
H120  H     H_    0.768151 0.100815 0.068446 0.089340
H121  H     H_    0.809138 0.035077 0.089098 0.092354
H122  H     H_    0.121630 0.856395 0.765456 0.168891
H123  H     H_    0.805404 0.036124 0.985565 0.125249
H124  H     H_    0.888492 0.691844 0.959513 0.117452
H125  H     H_    0.935905 0.709615 0.002645 0.080199
H126  H     H_    0.955938 0.717598 0.885291 0.143329
H127  H     H_    0.198766 0.106653 0.017810 0.090356
H128  H     H_    0.160636 0.047816 0.982808 0.116163
H129  H     H_    0.139472 0.063666 0.099115 0.170016
H130  H     H_    0.630544 0.240086 0.066026 0.089098
H131  H     H_    0.569137 0.266874 0.062627 0.099500
H132  H     H_    0.582160 0.295376 0.151922 0.141102
N1    N     N_3   0.662340 0.828470 0.377019 -0.586776
N2    N     N_3   0.476688 0.192559 0.489943 -0.636907
N3    N     N_3   0.492302 0.846791 0.356223 -0.602326
N4    N     N_3   0.502146 0.155757 0.623407 -0.618196
N5    N     N_3   0.051414 0.304774 0.430436 -0.612216
N6    N     N_3   0.976689 0.692559 0.489941 -0.636907
N7    N     N_3   0.992303 0.346791 0.356218 -0.602327
N8    N     N_3   0.002147 0.655757 0.623404 -0.618194
N9    N     N_3   0.361283 0.182406 0.588354 -0.536644
N10   N     N_3   0.383527 0.822510 0.555778 -0.574237
N11   N     N_3   0.615403 0.180145 0.449557 -0.590578
N12   N     N_3   0.162341 0.328470 0.377018 -0.586775
N13   N     N_3   0.861283 0.682404 0.588354 -0.536643
N14   N     N_3   0.883529 0.322510 0.555774 -0.574238
N15   N     N_3   0.115405 0.680145 0.449554 -0.590578
N16   N     N_3   0.551413 0.804773 0.430441 -0.612215
O1    O     O_R   0.255040 0.869590 0.478480 -0.455652
O2    O     O_R   0.817950 0.203450 0.375560 -0.540848
O3    O     O_R   0.817950 0.796550 0.375560 -0.542503
O4    O     O_R   0.182050 0.203450 0.624440 -0.536872
O5    O     O_R   0.682050 0.296550 0.624440 -0.541381
O6    O     O_R   0.317950 0.703450 0.375560 -0.540849
O7    O     O_R   0.317950 0.296550 0.375560 -0.542504
O8    O     O_R   0.682050 0.703450 0.624440 -0.536871
O9    O     O_R   0.250530 0.763330 0.367210 -0.445918
O10   O     O_R   0.749470 0.236670 0.632790 -0.440801
O11   O     O_R   0.749470 0.763330 0.632790 -0.459461
O12   O     O_R   0.744960 0.130410 0.521520 -0.457142
O13   O     O_R   0.250530 0.236670 0.367210 -0.448493
O14   O     O_R   0.750530 0.263330 0.367210 -0.445919
O15   O     O_R   0.249470 0.736670 0.632790 -0.440800
O16   O     O_R   0.249470 0.263330 0.632790 -0.459458
O17   O     O_R   0.750530 0.736670 0.367210 -0.448494
O18   O     O_R   0.177260 0.690030 0.513710 -0.495227
O19   O     O_R   0.822740 0.309970 0.486290 -0.494669
O20   O     O_R   0.822740 0.690030 0.486290 -0.504941
O21   O     O_R   0.177260 0.309970 0.513710 -0.510940
O22   O     O_R   0.677260 0.190030 0.513710 -0.495227
O23   O     O_R   0.744960 0.869590 0.521520 -0.461949
O24   O     O_R   0.322740 0.809970 0.486290 -0.494670
O25   O     O_R   0.322740 0.190030 0.486290 -0.504942
O26   O     O_R   0.677260 0.809970 0.513710 -0.510940
O27   O     O_R   0.051640 0.926880 0.885090 -0.525520
O28   O     O_R   0.948360 0.073120 0.114910 -0.530384
O29   O     O_R   0.948360 0.926880 0.114910 -0.537012
O30   O     O_R   0.051640 0.073120 0.885090 -0.532436
O31   O     O_R   0.551640 0.426880 0.885090 -0.525520
O32   O     O_R   0.448360 0.573120 0.114910 -0.530385
O33   O     O_R   0.448360 0.426880 0.114910 -0.537012
O34   O     O_R   0.255040 0.130410 0.478480 -0.458385
O35   O     O_R   0.551640 0.573120 0.885090 -0.532435
O36   O     O_R   0.940620 0.926560 0.986760 -0.464213
O37   O     O_R   0.059380 0.073440 0.013240 -0.459163
O38   O     O_R   0.059380 0.926560 0.013240 -0.456976
O39   O     O_R   0.940620 0.073440 0.986760 -0.451508
O40   O     O_R   0.440620 0.426560 0.986760 -0.464209
O41   O     O_R   0.559380 0.573440 0.013240 -0.459162
O42   O     O_R   0.559380 0.426560 0.013240 -0.456976
O43   O     O_R   0.440620 0.573440 0.986760 -0.451508
O44   O     O_3   0.255230 0.500819 0.484572 -0.521164
O45   O     O_R   0.755040 0.369590 0.478480 -0.455652
O46   O     O_3   0.745574 0.499671 0.520097 -0.521503
O47   O     O_3   0.755230 0.000819 0.484572 -0.521164
O48   O     O_3   0.245574 0.999671 0.520095 -0.521502
O49   O     O_3   0.213299 0.901746 0.016554 -0.514138
O50   O     O_3   0.866561 0.207798 0.884546 -0.503592
O51   O     O_3   0.852572 0.819301 0.889952 -0.511687
O52   O     O_3   0.141610 0.259020 0.096254 -0.504468
O53   O     O_3   0.713300 0.401741 0.016551 -0.514140
O54   O     O_3   0.366565 0.707809 0.884543 -0.503592
O55   O     O_3   0.352564 0.319319 0.889959 -0.511683
O56   O     O_R   0.244960 0.630410 0.521520 -0.457143
O57   O     O_3   0.641614 0.759018 0.096249 -0.504467
O58   O     O_3   0.126716 0.846361 0.032003 -0.488999
O59   O     O_3   0.851411 0.115173 0.997640 -0.480926
O60   O     O_3   0.907828 0.798715 0.962011 -0.489421
O61   O     O_3   0.126158 0.147286 0.033096 -0.487407
O62   O     O_3   0.626715 0.346359 0.032003 -0.489000
O63   O     O_3   0.351415 0.615181 0.997633 -0.480926
O64   O     O_3   0.407824 0.298719 0.962010 -0.489418
O65   O     O_3   0.626161 0.647282 0.033094 -0.487407
O66   O     O_3   0.238046 0.700644 0.786485 -0.559552
O67   O     O_R   0.244960 0.369590 0.521520 -0.461948
O68   O     O_3   0.744598 0.273989 0.223554 -0.556360
O69   O     O_3   0.756197 0.708927 0.214344 -0.560334
O70   O     O_3   0.268559 0.191008 0.758849 -0.560905
O71   O     O_3   0.738042 0.200638 0.786486 -0.559554
O72   O     O_3   0.244599 0.773992 0.223553 -0.556360
O73   O     O_3   0.256196 0.208929 0.214345 -0.560336
O74   O     O_3   0.768559 0.691000 0.758843 -0.560906
O75   O     O_R   0.755040 0.630410 0.478480 -0.458385
O76   O     O_R   0.182050 0.796550 0.624440 -0.541381

loop_
_geom_bond_atom_site_label_1
_geom_bond_atom_site_label_2
_ccdc_geom_bond_type
C81   H21   S    
C28   C47   A    
C69   H116  S    
C67   H112  S    
C175  O30   A    
C36   C42   A    
H65   N12   S    
C60   H53   S    
C13   C18   A    
C64   H103  S    
C73   H127  S    
C137  H40   S    
C16   C35   A    
C72   H125  S    
C131  H2    S    
C175  O37   A    
Cu9   O15   S    
C37   C42   A    
C70   H118  S    
C131  C140  A    
C10   C20   A    
C167  O45   A    
C85   H34   S    
C71   H121  S    
C88   C97   A    
C63   H99   S    
C81   H19   S    
C99   H78   S    
Cu2   Cu12  S    
C119  C128  A    
C24   C51   A    
H71   N15   S    
C8    C16   A    
C172  O25   A    
H69   N14   S    
C78   H12   S    
C3    C123  S    
C55   C68   A    
H83   N5    S    
C150  C159  A    
C79   C109  A    
C64   O52   S    
C137  C146  A    
C72   O60   S    
C127  C136  A    
H72   N15   S    
C58   H47   S    
C69   H114  S    
C89   C143  S    
C120  C129  A    
C29   C45   A    
C103  C112  A    
C61   H93   S    
H62   N11   S    
C122  O2    A    
C30   C169  S    
C76   H7    S    
C146  C154  A    
C66   H108  S    
Cu4   O37   S    
C132  H13   S    
C73   O61   S    
C115  O60   S    
H73   N16   S    
Cu2   O41   S    
C84   H30   S    
C56   O44   S    
C165  O18   A    
C51   N11   S    
C133  C139  S    
C67   H110  S    
C27   C36   A    
C61   H92   S    
C142  C144  S    
C111  C146  S    
H58   N9    S    
C14   C57   A    
C118  C162  A    
C107  O55   S    
C59   H49   S    
C2    C19   A    
C171  O24   A    
C73   H129  S    
C25   C55   A    
C71   H120  S    
Cu12  O43   S    
Cu12  O40   S    
C63   O51   S    
C135  H35   S    
C117  C161  A    
C9    C15   A    
C46   C53   A    
C111  O7    A    
C83   O71   S    
C69   O57   S    
C92   C104  A    
Cu9   O24   S    
H66   N13   S    
C113  C157  A    
C168  O20   A    
C80   H18   S    
C11   C18   A    
H76   N2    S    
Cu7   O34   S    
C55   N15   S    
C91   C105  A    
C1    C145  S    
Cu3   O36   S    
C121  C130  A    
C25   C43   A    
C83   H28   S    
C150  O69   S    
Cu12  O31   S    
C85   O73   S    
C156  O74   S    
C99   C108  A    
C12   C68   A    
C67   H113  S    
C84   O72   S    
C84   H31   S    
C170  O12   A    
C122  O14   A    
C124  C174  S    
H68   N13   S    
C93   C163  S    
C6    C126  S    
C77   O65   S    
C124  C132  A    
C64   H102  S    
C102  H100  S    
Cu11  O75   S    
C1    O9    A    
C26   C45   A    
Cu3   O39   S    
C29   C38   A    
C96   H45   S    
C77   H10   S    
C152  C161  A    
C135  C143  A    
H85   N6    S    
C74   H132  S    
C98   H67   S    
C151  O70   S    
H79   N3    S    
C141  C150  A    
C148  O66   S    
C139  C148  A    
C36   C172  S    
C176  O27   A    
C116  O61   S    
C78   H15   S    
C38   C41   A    
Cu7   Cu10  S    
C63   H97   S    
C113  O58   S    
C89   O10   A    
C56   H43   S    
C54   N14   S    
C75   H3    S    
C82   H25   S    
H74   N16   S    
H59   N9    S    
C8    C12   A    
C10   C45   A    
C31   C168  S    
C76   H6    S    
C60   H52   S    
C114  C123  A    
C65   H104  S    
C116  C125  A    
H82   N5    S    
C144  O16   A    
C118  C127  A    
C5    O41   A    
C83   H26   S    
C29   C51   A    
C27   C47   A    
C132  C141  A    
C69   H115  S    
C33   C165  S    
Cu2   O42   S    
C37   C171  S    
H63   N11   S    
Cu1   O76   S    
C167  O19   A    
C42   O48   S    
C74   O62   S    
C122  C140  S    
C97   H56   S    
C72   H126  S    
C28   C37   A    
C153  O72   S    
C30   C39   A    
C148  C157  A    
C171  O1    A    
C70   H119  S    
H57   N1    S    
C120  C164  A    
C13   C50   A    
C60   O48   S    
C113  C121  A    
C89   O5    A    
C86   H37   S    
C71   O59   S    
C15   C46   A    
C7    C127  S    
C74   H130  S    
C85   H33   S    
C140  C149  A    
C27   C49   A    
H88   N8    S    
C25   C33   A    
C82   H22   S    
C54   C57   A    
C125  C134  A    
C96   C105  A    
Cu9   O56   S    
C11   C47   A    
C8    C43   A    
C174  O36   A    
C68   N8    S    
Cu10  O25   S    
C40   O46   S    
C155  O3    A    
C67   O55   S    
Cu8   O22   S    
Cu6   O11   S    
C168  O75   A    
C114  O59   S    
C95   C104  A    
C103  H111  S    
H80   N4    S    
C11   C19   A    
C82   O70   S    
C75   O63   S    
Cu4   O29   S    
C76   O64   S    
C101  H89   S    
C85   H32   S    
C62   H96   S    
C70   O58   S    
C58   H48   S    
C130  H122  S    
C6    O42   A    
C100  C147  S    
C101  C109  A    
C149  O68   S    
Cu1   Cu9   S    
C31   C40   A    
C53   N13   S    
C13   N3    S    
C174  O29   A    
Cu5   O10   S    
C114  C158  A    
C76   H8    S    
Cu7   O4    S    
C65   H106  S    
C9    C44   A    
Cu4   O38   S    
C152  O71   S    
C169  O67   A    
C26   C48   A    
C5    C129  S    
C117  O62   S    
C86   O74   S    
Cu8   O14   S    
C61   H91   S    
C34   C41   A    
C130  C139  A    
H90   N8    S    
C38   C170  S    
C78   O66   S    
C73   H128  S    
C35   N5    S    
Cu1   O1    S    
C4    C128  S    
C141  C155  S    
C173  O23   A    
C65   O53   S    
C23   C44   A    
C100  O11   A    
C115  C159  A    
C9    C14   A    
C70   H117  S    
C79   C95   A    
H70   N14   S    
C134  C142  A    
C12   C15   A    
C144  O4    A    
C59   H50   S    
C56   H42   S    
C62   H95   S    
C147  C156  A    
Cu6   O20   S    
C166  N16   S    
C92   C101  A    
H64   N12   S    
C81   H20   S    
C97   C106  A    
C143  C152  A    
C136  H39   S    
C126  C135  A    
C50   N10   S    
C102  C110  A    
C59   O47   S    
C94   C164  S    
Cu5   Cu8   S    
C92   C162  S    
H86   N7    S    
C115  C124  A    
C123  C131  A    
C60   H54   S    
C4    O40   A    
C62   H94   S    
C58   H46   S    
C93   C102  A    
C79   C157  S    
C83   H27   S    
C48   N1    S    
C20   C166  A    
C21   C30   A    
C61   O49   S    
C153  C162  A    
C23   C32   A    
Cu5   O12   S    
H55   N1    S    
C34   C173  S    
Cu8   O45   S    
C80   H16   S    
C66   H107  S    
Cu3   O30   S    
C90   C160  S    
C84   H29   S    
C98   C107  A    
Cu3   Cu4   S    
C88   C112  A    
C4    O33   A    
C48   C166  A    
C173  O26   A    
C118  O63   S    
C32   C167  S    
C35   C52   A    
C100  O8    A    
C77   H9    S    
C93   C107  A    
C39   O44   S    
H75   N2    S    
H81   N4    S    
C142  C151  A    
C91   C161  S    
C24   N4    S    
Cu7   O21   S    
H87   N7    S    
Cu2   O33   S    
C57   N7    S    
C56   H44   S    
Cu8   O5    S    
C33   C39   A    
C3    O39   A    
Cu3   O27   S    
C169  O21   A    
H61   N10   S    
C58   O46   S    
C109  O49   S    
C49   N9    S    
C121  C176  S    
C10   C17   A    
Cu4   O28   S    
C105  O53   S    
C88   C159  S    
C1    O6    A    
Cu10  O67   S    
Cu12  O35   S    
C63   H98   S    
C21   C43   A    
C28   C50   A    
C26   C34   A    
C22   C44   A    
C87   C108  A    
C7    O43   A    
C62   O50   S    
C52   N12   S    
C3    O28   A    
C136  C145  A    
Cu7   O13   S    
C145  C153  A    
Cu10  O7    S    
C80   H17   S    
C165  O56   A    
Cu5   O19   S    
C86   H36   S    
C81   O69   S    
C22   C53   A    
C112  O51   S    
C46   N6    S    
C17   C24   A    
C134  H24   S    
C22   C31   A    
C129  C138  A    
C154  C163  A    
C80   O68   S    
H84   N6    S    
Cu9   O6    S    
C119  C163  A    
Cu10  O16   S    
Cu11  O8    S    
C2    N2    S    
Cu1   O18   S    
C64   H101  S    
C59   H51   S    
C128  C137  A    
H77   N3    S    
C2    C49   A    
C133  O76   A    
H60   N10   S    
C6    O31   A    
C41   O47   S    
C138  C147  A    
C87   C96   A    
C172  O34   A    
C77   H11   S    
C104  O54   S    
C170  O22   A    
Cu6   O3    S    
C133  O15   A    
C116  C160  A    
C86   H38   S    
C14   C16   A    
C90   C110  A    
C74   H131  S    
C125  C175  S    
C71   H123  S    
Cu6   O23   S    
C7    O32   A    
C72   H124  S    
C23   C54   A    
C82   H23   S    
C149  C158  A    
C94   C106  A    
C154  O73   S    
C176  O38   A    
C66   O54   S    
C138  H41   S    
C78   H14   S    
Cu5   O2    S    
C106  O57   S    
C94   C103  A    
C110  O52   S    
C66   H109  S    
C108  O50   S    
C87   C158  S    
C91   C99   A    
C151  C160  A    
Cu2   O32   S    
C75   H4    S    
C120  O65   S    
C5    O35   A    
C119  O64   S    
C75   H5    S    
C17   C19   A    
C18   C20   A    
Cu6   Cu11  S    
C32   C40   A    
Cu11  O17   S    
C95   H1    S    
Cu11  O26   S    
C65   H105  S    
C156  C164  A    
C111  O13   A    
C155  O17   A    
C117  C126  A    
C90   C98   A    
C21   C52   A    
Cu1   O9    S    
