data_mof_unit_47166.cif
_audit_creation_date              2012-12-10T18:53:03-0500
_audit_creation_method            fapswitch 2.2
_symmetry_space_group_name_H-M    P1
_symmetry_Int_Tables_number       1
_space_group_crystal_system       triclinic
_cell_length_a                    9.81118
_cell_length_b                    10.692556
_cell_length_c                    16.551859
_cell_angle_alpha                 89.952153
_cell_angle_beta                  82.341313
_cell_angle_gamma                 89.552262
_cell_volume                      1720.85707295

loop_
_atom_site_label
_atom_site_type_symbol
_atom_type_description
_atom_site_fract_x
_atom_site_fract_y
_atom_site_fract_z
_atom_type_partial_charge
C1    C     C_R   0.499331 0.740073 0.499854 0.940495
C2    C     C_R   0.062007 0.590024 0.541136 -0.101705
C3    C     C_R   0.082128 0.410344 0.458505 -0.091406
C4    C     C_R   0.917912 0.589782 0.541376 -0.091366
C5    C     C_R   0.477085 0.502296 0.654360 0.993811
C6    C     C_R   0.522704 0.505170 0.345928 0.980993
C7    C     C_R   0.455384 0.527960 0.742051 -0.347595
C8    C     C_R   0.545622 0.537882 0.259436 -0.323860
C9    C     C_R   0.551585 0.483170 0.790678 0.473039
C10   C     C_R   0.458330 0.491532 0.206278 0.464823
C11   C     C_R   0.545105 0.526330 0.870487 -0.360251
C12   C     C_R   0.500383 0.259935 0.501050 0.948342
C13   C     C_R   0.477574 0.529902 0.125075 -0.332108
C14   C     C_R   0.457851 0.626723 0.898409 -0.152776
C15   C     C_R   0.576097 0.620670 0.097541 -0.135656
C16   C     C_R   0.358206 0.669059 0.851031 0.474625
C17   C     C_R   0.669211 0.661185 0.148972 0.441806
C18   C     C_R   0.350420 0.612765 0.774950 0.352168
C19   C     C_R   0.649614 0.624923 0.231339 0.327327
C20   C     C_2   0.463306 0.679691 0.980435 0.435324
C21   C     C_2   0.582409 0.670260 0.013897 0.439696
C22   C     C_3   0.780345 0.436471 0.758249 -0.224902
C23   C     C_R   0.595141 0.933178 0.539743 -0.375848
C24   C     C_3   0.228012 0.454701 0.232809 -0.249564
C25   C     C_3   0.683783 0.796917 0.306671 -0.235759
C26   C     C_3   0.137470 0.568329 0.743668 -0.320907
C27   C     C_3   0.728982 0.791686 0.928388 -0.298710
C28   C     C_3   0.338002 0.822057 0.063603 -0.308158
C29   C     C_3   0.147369 0.750478 0.903759 -0.175601
C30   C     C_3   0.898475 0.683667 0.109069 -0.215346
C31   C     C_3   0.826624 0.100487 0.548455 -0.284995
C32   C     C_3   0.172119 0.899934 0.453371 -0.286702
C33   C     C_R   0.403906 0.066785 0.462015 -0.369316
C34   C     C_R   0.599836 0.062079 0.539598 0.553883
C35   C     C_R   0.398974 0.937979 0.462318 0.531670
C36   C     C_R   0.501510 0.127558 0.501546 -0.205927
C37   C     C_R   0.497574 0.872453 0.500151 -0.211169
C38   C     C_R   0.938109 0.410557 0.458276 -0.066474
H1    H     H_    0.413968 0.489330 0.083413 0.198983
H2    H     H_    0.792154 0.530322 0.728910 0.140350
H3    H     H_    0.851468 0.371501 0.720838 0.183822
H4    H     H_    0.203878 0.468622 0.169675 0.160271
H5    H     H_    0.215589 0.544341 0.267399 0.177884
H6    H     H_    0.151470 0.388357 0.263435 0.170316
H7    H     H_    0.570877 0.799147 0.326782 0.150599
H8    H     H_    0.710262 0.863681 0.255662 0.191032
H9    H     H_    0.735452 0.829286 0.358458 0.176981
H10   H     H_    0.109826 0.543356 0.809080 0.127447
H11   H     H_    0.158538 0.480801 0.708152 0.192775
H12   H     H_    0.611834 0.483344 0.909752 0.209253
H13   H     H_    0.045750 0.613670 0.723494 0.162384
H14   H     H_    0.663358 0.802670 0.879031 0.162693
H15   H     H_    0.837406 0.798853 0.899929 0.174627
H16   H     H_    0.709117 0.869415 0.973295 0.186512
H17   H     H_    0.232153 0.844092 0.092802 0.185972
H18   H     H_    0.367196 0.894806 0.016376 0.188394
H19   H     H_    0.406513 0.826398 0.111819 0.161222
H20   H     H_    0.134244 0.658224 0.935244 0.144582
H21   H     H_    0.082391 0.756811 0.854040 0.171959
H22   H     H_    0.109123 0.823172 0.949100 0.170133
H23   H     H_    0.665748 0.880385 0.571964 0.177574
H24   H     H_    0.898045 0.603967 0.065846 0.170279
H25   H     H_    0.929545 0.650609 0.167678 0.180153
H26   H     H_    0.977674 0.750463 0.082121 0.170692
H27   H     H_    0.894519 0.168753 0.573551 0.191245
H28   H     H_    0.841190 0.112274 0.480952 0.132195
H29   H     H_    0.860300 0.005513 0.565036 0.142688
H30   H     H_    0.157473 0.888180 0.520876 0.155071
H31   H     H_    0.104111 0.831790 0.428262 0.191216
H32   H     H_    0.138618 0.994945 0.436755 0.144206
H33   H     H_    0.333533 0.119461 0.429555 0.185365
H34   H     H_    0.891498 0.339363 0.424789 0.118026
H35   H     H_    0.108836 0.662062 0.573771 0.157741
H36   H     H_    0.144927 0.338758 0.425334 0.135822
H37   H     H_    0.855161 0.661392 0.574557 0.118577
H38   H     H_    0.812336 0.439444 0.820124 0.153176
N1    N     N_R   0.142790 0.500030 0.500020 -0.072224
N2    N     N_R   0.857210 0.499970 0.499980 -0.060022
O1    O     O_R   0.385380 0.683250 0.500010 -0.573789
O2    O     O_3   0.360642 0.402531 0.232923 -0.600181
O3    O     O_3   0.731735 0.675227 0.284791 -0.583574
O4    O     O_3   0.249330 0.652080 0.729681 -0.567476
O5    O     O_3   0.710363 0.673640 0.966334 -0.626288
O6    O     O_3   0.338429 0.701338 0.029057 -0.632377
O7    O     O_3   0.285067 0.777941 0.873248 -0.580422
O8    O     O_3   0.770190 0.746263 0.120901 -0.598661
O9    O     O_3   0.689587 0.124871 0.583165 -0.565633
O10   O     O_3   0.309142 0.875354 0.418710 -0.602729
O11   O     O_R   0.614620 0.316750 0.499990 -0.587945
O12   O     O_R   0.614710 0.683220 0.500000 -0.640448
O13   O     O_R   0.385290 0.316780 0.500000 -0.642124
O14   O     O_R   0.371780 0.500040 0.615800 -0.602065
O15   O     O_R   0.628220 0.499960 0.384200 -0.583968
O16   O     O_R   0.601110 0.500010 0.615800 -0.591396
O17   O     O_R   0.398890 0.499990 0.384200 -0.591894
O18   O     O_3   0.645087 0.390778 0.761121 -0.566458
Zn1   Zn    Zn3+2 0.346870 0.500020 0.500000 0.977738
Zn2   Zn    Zn3+2 0.653130 0.499980 0.500000 0.987814

loop_
_geom_bond_atom_site_label_1
_geom_bond_atom_site_label_2
_ccdc_geom_bond_type
C31   H28   S    
C1    O12   A    
C30   H26   S    
C28   O6    S    
C24   H4    S    
C12   O13   A    
C22   H38   S    
C5    O16   A    
C28   H18   S    
C27   H16   S    
C28   H19   S    
C31   H29   S    
C21   O5    S    
C29   H20   S    
C6    O15   A    
C35   C37   A    
C11   C14   A    
C22   H3    S    
O16   Zn2   S    
C32   O10   S    
C33   C36   A    
C15   C17   A    
C3    H36   S    
C4    H37   S    
C17   C19   A    
C24   O2    S    
C29   H21   S    
C3    C38   A    
N2    Zn2   S    
N1    Zn1   S    
C12   C36   S    
C25   H9    S    
C29   O7    S    
C26   H10   S    
C32   H30   S    
C23   C34   A    
C26   O4    S    
C30   H25   S    
C25   O3    S    
C18   O4    S    
C28   H17   S    
O14   Zn1   S    
C38   H34   S    
C8    C19   A    
C31   O9    S    
C17   O8    S    
C14   C20   S    
C12   O11   A    
C26   H11   S    
C5    C7    S    
C10   O2    S    
C6    C8    S    
C38   N2    A    
C23   C37   A    
C2    C4    A    
C4    N2    A    
C35   O10   S    
C29   H22   S    
C23   H23   S    
C7    C18   A    
C22   H2    S    
O17   Zn1   S    
O13   Zn1   S    
C9    C11   A    
C9    O18   S    
C2    H35   S    
C8    C10   A    
C30   H24   S    
C13   C15   A    
C16   O7    S    
C1    O1    A    
C14   C16   A    
C30   O8    S    
C3    N1    A    
C25   H7    S    
C27   H14   S    
C31   H27   S    
C22   O18   S    
O1    Zn1   S    
C10   C13   A    
C32   H32   S    
C27   H15   S    
C32   H31   S    
C1    C37   S    
O11   Zn2   S    
C20   O6    S    
C11   H12   S    
C26   H13   S    
C24   H6    S    
C25   H8    S    
C27   O5    S    
C33   C35   A    
C34   C36   A    
C34   O9    S    
C13   H1    S    
C5    O14   A    
C33   H33   S    
C7    C9    A    
C15   C21   S    
C20   C21   D    
C16   C18   A    
C6    O17   A    
C2    N1    A    
C24   H5    S    
C19   O3    S    
O15   Zn2   S    
O12   Zn2   S    
