data_mof_unit_47482.cif
_audit_creation_date              2012-12-10T16:34:44-0500
_audit_creation_method            fapswitch 2.2
_symmetry_space_group_name_H-M    P1
_symmetry_Int_Tables_number       1
_space_group_crystal_system       triclinic
_cell_length_a                    28.289983
_cell_length_b                    18.502174
_cell_length_c                    17.073694
_cell_angle_alpha                 89.728671
_cell_angle_beta                  61.389134
_cell_angle_gamma                 90.579411
_cell_volume                      7844.69496498

loop_
_atom_site_label
_atom_site_type_symbol
_atom_type_description
_atom_site_fract_x
_atom_site_fract_y
_atom_site_fract_z
_atom_type_partial_charge
C1    C     C_R   0.703199 0.271196 0.674859 0.966596
C2    C     C_R   0.298699 0.732262 0.323675 0.960232
C3    C     C_R   0.297707 0.269360 0.324809 0.969663
C4    C     C_R   0.700145 0.735292 0.676415 0.976701
C5    C     C_R   0.203200 0.771198 0.674858 0.966850
C6    C     C_R   0.798699 0.232263 0.323675 0.960268
C7    C     C_R   0.797706 0.769362 0.324809 0.969689
C8    C     C_R   0.200144 0.235294 0.676416 0.976653
C9    C     C_R   0.903746 0.498013 0.489601 -0.037481
C10   C     C_R   0.090642 0.502861 0.531574 -0.035991
C11   C     C_R   0.403746 0.998018 0.489607 -0.037498
C12   C     C_R   0.590645 0.002866 0.531573 -0.035889
C13   C     C_R   0.117564 0.390794 0.449530 0.438393
C14   C     C_R   0.876664 0.611492 0.567672 0.351100
C15   C     C_R   0.928952 0.380613 0.419369 0.360306
C16   C     C_R   0.065974 0.620395 0.603783 0.367680
C17   C     C_R   0.617572 0.890804 0.449514 0.438246
C18   C     C_R   0.376664 0.111497 0.567678 0.351113
C19   C     C_R   0.428956 0.880627 0.419361 0.360313
C20   C     C_R   0.565972 0.120395 0.603793 0.367550
C21   C     C_R   0.714980 0.254064 0.958267 0.132724
C22   C     C_R   0.273094 0.721753 0.051940 0.131744
C23   C     C_R   0.278583 0.264422 0.047544 0.108138
C24   C     C_R   0.719097 0.738950 0.954383 0.103874
C25   C     C_R   0.214985 0.754073 0.958263 0.132740
C26   C     C_R   0.773089 0.221742 0.051945 0.131747
C27   C     C_R   0.778579 0.764429 0.047548 0.108113
C28   C     C_R   0.219100 0.238948 0.954380 0.103856
C29   C     C_R   0.771570 0.250398 0.913211 -0.175678
C30   C     C_R   0.216439 0.724734 0.097210 -0.170121
C31   C     C_R   0.221962 0.259701 0.093516 -0.130327
C32   C     C_R   0.775688 0.743472 0.908498 -0.120988
C33   C     C_R   0.271575 0.750412 0.913208 -0.175676
C34   C     C_R   0.716434 0.224727 0.097214 -0.170139
C35   C     C_R   0.721958 0.759709 0.093518 -0.130281
C36   C     C_R   0.275691 0.243474 0.908494 -0.120999
C37   C     C_R   0.800079 0.234495 0.959192 -0.180980
C38   C     C_R   0.187799 0.740652 0.051029 -0.172768
C39   C     C_R   0.192702 0.247191 0.047708 -0.184928
C40   C     C_R   0.804976 0.755693 0.954296 -0.183535
C41   C     C_R   0.300085 0.734509 0.959188 -0.180969
C42   C     C_R   0.687794 0.240645 0.051034 -0.172781
C43   C     C_R   0.692698 0.747197 0.047711 -0.184949
C44   C     C_R   0.304979 0.255691 0.954291 -0.183506
C45   C     C_R   0.641257 0.322610 0.947257 -0.267561
C46   C     C_R   0.349996 0.662127 0.060824 -0.274115
C47   C     C_R   0.354270 0.329857 0.056765 -0.260342
C48   C     C_R   0.643800 0.674233 0.944182 -0.277066
C49   C     C_R   0.141260 0.822615 0.947255 -0.267582
C50   C     C_R   0.849991 0.162118 0.060830 -0.274146
C51   C     C_R   0.854266 0.829866 0.056768 -0.260347
C52   C     C_R   0.143803 0.174228 0.944177 -0.277063
C53   C     C_R   0.620347 0.353777 0.894663 -0.179972
C54   C     C_R   0.382007 0.650875 0.102505 -0.209078
C55   C     C_R   0.378750 0.355444 0.106666 -0.186277
C56   C     C_R   0.614850 0.656186 0.898778 -0.172146
C57   C     C_R   0.120348 0.853779 0.894662 -0.179966
C58   C     C_R   0.882005 0.150872 0.102506 -0.209094
C59   C     C_R   0.878746 0.855451 0.106670 -0.186323
C60   C     C_R   0.114852 0.156185 0.898775 -0.172139
C61   C     C_R   0.645134 0.342775 0.803650 0.442745
C62   C     C_R   0.372106 0.688693 0.179209 0.408642
C63   C     C_R   0.357458 0.339872 0.196173 0.371529
C64   C     C_R   0.627588 0.688154 0.817298 0.377341
C65   C     C_R   0.145135 0.842778 0.803649 0.442651
C66   C     C_R   0.872106 0.188698 0.179205 0.408669
C67   C     C_R   0.857453 0.839881 0.196177 0.371657
C68   C     C_R   0.127588 0.188156 0.817298 0.377338
C69   C     C_R   0.682530 0.288370 0.768148 -0.133901
C70   C     C_R   0.321356 0.719369 0.227804 -0.141476
C71   C     C_R   0.317778 0.287407 0.232352 -0.138025
C72   C     C_R   0.675642 0.726407 0.773079 -0.151542
C73   C     C_R   0.182533 0.788374 0.768147 -0.133993
C74   C     C_R   0.821356 0.219369 0.227804 -0.141538
C75   C     C_R   0.817774 0.787416 0.232355 -0.137699
C76   C     C_R   0.175641 0.226410 0.773080 -0.151600
C77   C     C_R   0.703758 0.256037 0.819708 -0.283359
C78   C     C_R   0.289195 0.731862 0.185894 -0.281607
C79   C     C_R   0.293174 0.259127 0.183200 -0.199672
C80   C     C_R   0.703501 0.748373 0.819685 -0.165521
C81   C     C_R   0.203763 0.756044 0.819705 -0.283181
C82   C     C_R   0.789192 0.231856 0.185898 -0.281644
C83   C     C_R   0.793168 0.759138 0.183204 -0.199444
C84   C     C_R   0.203501 0.248377 0.819685 -0.165550
C85   C     C_R   0.690776 0.129803 0.537640 1.000879
C86   C     C_R   0.308264 0.871073 0.466844 0.965265
C87   C     C_R   0.303706 0.127697 0.481468 0.992701
C88   C     C_R   0.695430 0.872636 0.521689 0.974670
C89   C     C_R   0.190777 0.629801 0.537639 1.001550
C90   C     C_R   0.808263 0.371073 0.466845 0.965204
C91   C     C_R   0.803708 0.627697 0.481463 0.992735
C92   C     C_R   0.195430 0.372635 0.521688 0.974228
C93   C     C_R   0.685547 0.276372 0.908731 0.089842
C94   C     C_R   0.304616 0.705983 0.099927 0.089955
C95   C     C_R   0.309444 0.283417 0.095865 0.080304
C96   C     C_R   0.687734 0.722221 0.906269 0.096836
C97   C     C_R   0.185551 0.776380 0.908728 0.089787
C98   C     C_R   0.804611 0.205974 0.099932 0.089950
C99   C     C_R   0.809439 0.783427 0.095870 0.080333
C100  C     C_R   0.187736 0.222221 0.906266 0.096804
C101  C     C_R   0.073875 0.100132 0.933892 0.927347
C102  C     C_R   0.924418 0.902846 0.067441 0.954378
C103  C     C_R   0.924283 0.097362 0.067487 0.908353
C104  C     C_R   0.075644 0.902812 0.932600 0.948328
C105  C     C_R   0.573874 0.600133 0.933893 0.927338
C106  C     C_R   0.424419 0.402844 0.067440 0.954402
C107  C     C_R   0.424282 0.597361 0.067487 0.908348
C108  C     C_R   0.575644 0.402812 0.932601 0.948334
C109  C     C_R   0.520670 0.121065 0.588625 -0.006049
C110  C     C_R   0.472153 0.878278 0.438994 -0.003847
C111  C     C_R   0.426351 0.117403 0.568547 0.009603
C112  C     C_R   0.566455 0.882696 0.456216 -0.014335
C113  C     C_R   0.020669 0.621063 0.588621 -0.006060
C114  C     C_R   0.972145 0.378264 0.439013 -0.003837
C115  C     C_R   0.926351 0.617398 0.568543 0.009611
C116  C     C_R   0.066446 0.382683 0.456241 -0.014426
C117  C     C_R   0.485770 0.180058 0.613291 -0.126131
C118  C     C_R   0.506523 0.818578 0.415508 -0.159240
C119  C     C_R   0.439564 0.178028 0.604086 -0.170254
C120  C     C_R   0.552963 0.820963 0.423521 -0.133074
C121  C     C_R   0.985770 0.680055 0.613288 -0.126128
C122  C     C_R   0.006511 0.318560 0.415541 -0.159209
C123  C     C_R   0.939564 0.678024 0.604082 -0.170251
C124  C     C_R   0.052951 0.320946 0.423555 -0.133108
C125  C     C_R   0.462290 0.059604 0.538354 0.023042
C126  C     C_R   0.530177 0.940051 0.488427 0.012896
C127  C     C_R   0.509183 0.061125 0.549013 0.014260
C128  C     C_R   0.483191 0.938263 0.478726 0.023936
C129  C     C_R   0.962289 0.559599 0.538352 0.023039
C130  C     C_R   0.030170 0.440042 0.488441 0.012910
C131  C     C_R   0.009181 0.561121 0.549012 0.014271
C132  C     C_R   0.983186 0.438253 0.478737 0.023947
C133  C     C_R   0.949607 0.498470 0.502610 -0.025774
C134  C     C_R   0.043286 0.501479 0.523123 -0.025932
C135  C     C_R   0.449608 0.998477 0.502610 -0.025771
C136  C     C_R   0.543289 0.001485 0.523119 -0.025968
C137  C     C_R   0.891173 0.436968 0.453423 -0.099007
C138  C     C_R   0.104218 0.564092 0.566482 -0.124711
C139  C     C_R   0.125815 0.443608 0.501816 -0.109296
C140  C     C_R   0.869693 0.558219 0.513933 -0.085197
C141  C     C_R   0.391172 0.936974 0.453429 -0.099066
C142  C     C_R   0.604217 0.064093 0.566492 -0.124390
C143  C     C_R   0.625821 0.943616 0.501805 -0.109608
C144  C     C_R   0.369692 0.058223 0.513940 -0.085154
C145  C     C_R   0.841818 0.436376 0.449870 -0.147959
C146  C     C_R   0.155715 0.564971 0.562883 -0.179900
C147  C     C_R   0.167125 0.439565 0.527051 -0.170192
C148  C     C_R   0.830614 0.561547 0.482642 -0.184840
C149  C     C_R   0.341815 0.936379 0.449879 -0.147820
C150  C     C_R   0.655715 0.064973 0.562894 -0.180948
C151  C     C_R   0.667134 0.939573 0.527036 -0.169625
C152  C     C_R   0.330612 0.061550 0.482649 -0.184944
C153  C     C_R   0.819317 0.500935 0.446365 0.333228
C154  C     C_R   0.179564 0.499901 0.562599 0.342805
C155  C     C_R   0.319316 0.000937 0.446372 0.333216
C156  C     C_R   0.679574 0.999900 0.562590 0.342976
H1    H     H_    0.078520 0.274185 0.403033 0.183505
H2    H     H_    0.915161 0.725507 0.623924 0.177877
H3    H     H_    0.998776 0.269809 0.388835 0.175838
H4    H     H_    0.993778 0.729006 0.639399 0.205748
H5    H     H_    0.578532 0.774202 0.402993 0.183523
H6    H     H_    0.415161 0.225511 0.623930 0.177876
H7    H     H_    0.498792 0.769830 0.388792 0.175749
H8    H     H_    0.493779 0.229009 0.639401 0.205734
H9    H     H_    0.644278 0.242117 0.088082 0.137712
H10   H     H_    0.343647 0.733946 0.922117 0.133402
H11   H     H_    0.348494 0.257781 0.916384 0.160089
H12   H     H_    0.649160 0.744941 0.085472 0.149480
H13   H     H_    0.144283 0.742120 0.088077 0.137710
H14   H     H_    0.843642 0.233929 0.922121 0.133403
H15   H     H_    0.848491 0.757781 0.916390 0.160086
H16   H     H_    0.149163 0.244932 0.085470 0.149485
H17   H     H_    0.794205 0.262069 0.842387 0.135451
H18   H     H_    0.194093 0.714035 0.168271 0.138845
H19   H     H_    0.200003 0.267445 0.164873 0.205595
H20   H     H_    0.797631 0.736242 0.837205 0.223396
H21   H     H_    0.294210 0.762086 0.842384 0.135437
H22   H     H_    0.694087 0.214032 0.168277 0.138835
H23   H     H_    0.699999 0.767456 0.164875 0.205622
H24   H     H_    0.297632 0.236249 0.837200 0.223399
H25   H     H_    0.624782 0.337352 0.016643 0.170703
H26   H     H_    0.359613 0.635242 0.998831 0.173430
H27   H     H_    0.368983 0.348423 0.988699 0.177590
H28   H     H_    0.633321 0.648814 0.007815 0.173575
H29   H     H_    0.124785 0.837356 0.016642 0.170710
H30   H     H_    0.859606 0.135229 0.998840 0.173432
H31   H     H_    0.868979 0.848430 0.988702 0.177591
H32   H     H_    0.133327 0.148807 0.007808 0.173585
H33   H     H_    0.735527 0.216780 0.789861 0.171269
H34   H     H_    0.251869 0.760982 0.220533 0.173016
H35   H     H_    0.260602 0.219822 0.213488 0.185327
H36   H     H_    0.738160 0.784122 0.787895 0.193569
H37   H     H_    0.235533 0.716790 0.789858 0.171293
H38   H     H_    0.751865 0.260975 0.220537 0.173022
H39   H     H_    0.760598 0.719831 0.213491 0.185256
H40   H     H_    0.238158 0.284128 0.787896 0.193636
O1    O     O_R   0.746490 0.236330 0.638080 -0.678689
O2    O     O_R   0.253510 0.763670 0.361920 -0.666317
O3    O     O_R   0.253510 0.236330 0.361920 -0.592265
O4    O     O_R   0.746490 0.763670 0.638080 -0.611267
O5    O     O_R   0.246490 0.736330 0.638080 -0.678545
O6    O     O_R   0.753510 0.263670 0.361920 -0.666310
O7    O     O_R   0.753510 0.736330 0.361920 -0.592264
O8    O     O_R   0.246490 0.263670 0.638080 -0.611189
O9    O     O_R   0.674170 0.186160 0.516270 -0.604388
O10   O     O_R   0.325830 0.813840 0.483730 -0.640830
O11   O     O_R   0.325830 0.186160 0.483730 -0.664032
O12   O     O_R   0.674170 0.813840 0.516270 -0.633209
O13   O     O_R   0.174170 0.686160 0.516270 -0.604630
O14   O     O_R   0.825830 0.313840 0.483730 -0.640866
O15   O     O_R   0.825830 0.686160 0.483730 -0.664059
O16   O     O_R   0.174170 0.313840 0.516270 -0.633140
O17   O     O_R   0.739960 0.127620 0.525000 -0.596468
O18   O     O_R   0.260040 0.872380 0.475000 -0.601242
O19   O     O_R   0.260040 0.127620 0.475000 -0.588501
O20   O     O_R   0.739960 0.872380 0.525000 -0.596258
O21   O     O_R   0.239960 0.627620 0.525000 -0.596161
O22   O     O_R   0.760040 0.372380 0.475000 -0.601273
O23   O     O_R   0.760040 0.627620 0.475000 -0.588460
O24   O     O_R   0.239960 0.372380 0.525000 -0.596549
O25   O     O_R   0.680700 0.294870 0.629350 -0.514736
O26   O     O_R   0.319300 0.705130 0.370650 -0.538511
O27   O     O_R   0.319300 0.294870 0.370650 -0.596529
O28   O     O_R   0.680700 0.705130 0.629350 -0.593056
O29   O     O_R   0.180700 0.794870 0.629350 -0.514797
O30   O     O_R   0.819300 0.205130 0.370650 -0.538520
O31   O     O_R   0.819300 0.794870 0.370650 -0.596571
O32   O     O_R   0.180700 0.205130 0.629350 -0.593053
O33   O     O_R   0.062020 0.072840 0.007170 -0.659126
O34   O     O_R   0.937980 0.927160 0.992830 -0.636867
O35   O     O_R   0.937980 0.072840 0.992830 -0.640549
O36   O     O_R   0.062020 0.927160 0.007170 -0.640397
O37   O     O_R   0.562020 0.572840 0.007170 -0.659128
O38   O     O_R   0.437980 0.427160 0.992830 -0.636871
O39   O     O_R   0.437980 0.572840 0.992830 -0.640554
O40   O     O_R   0.562020 0.427160 0.007170 -0.640397
O41   O     O_R   0.947860 0.073950 0.109290 -0.610166
O42   O     O_R   0.052140 0.926050 0.890710 -0.555366
O43   O     O_R   0.052140 0.073950 0.890710 -0.571407
O44   O     O_R   0.947860 0.926050 0.109290 -0.575658
O45   O     O_R   0.447860 0.573950 0.109290 -0.610159
O46   O     O_R   0.552140 0.426050 0.890710 -0.555362
O47   O     O_R   0.552140 0.573950 0.890710 -0.571413
O48   O     O_R   0.447860 0.426050 0.109290 -0.575648
Zn1   Zn    Zn3+2 0.792340 0.208750 0.507670 0.994925
Zn2   Zn    Zn3+2 0.207660 0.791250 0.492330 1.048560
Zn3   Zn    Zn3+2 0.207660 0.208750 0.492330 1.021821
Zn4   Zn    Zn3+2 0.792340 0.791250 0.507670 0.974146
Zn5   Zn    Zn3+2 0.292340 0.708750 0.507670 0.995245
Zn6   Zn    Zn3+2 0.707660 0.291250 0.492330 1.048515
Zn7   Zn    Zn3+2 0.707660 0.708750 0.492330 1.021899
Zn8   Zn    Zn3+2 0.292340 0.291250 0.507670 0.973897
Zn9   Zn    Zn3+2 0.505960 0.500000 0.080520 0.937041
Zn10  Zn    Zn3+2 0.494040 0.500000 0.919480 0.992346
Zn11  Zn    Zn3+2 0.005960 0.000000 0.080520 0.937049
Zn12  Zn    Zn3+2 0.994040 0.000000 0.919480 0.992350
O49   O     O_3   0.781681 0.503003 0.416280 -0.582589
C157  C     C_3   0.809225 0.507105 0.322175 0.144235
H41   H     H_    0.829943 0.455438 0.293582 0.177089
H42   H     H_    0.839255 0.552528 0.297652 0.120164
C158  C     C_3   0.768788 0.520430 0.289082 -0.806016
H43   H     H_    0.747891 0.572267 0.315722 0.260148
H44   H     H_    0.789928 0.523374 0.215048 0.207115
H45   H     H_    0.738547 0.475658 0.311399 0.253246
O50   O     O_3   0.220226 0.497511 0.585842 -0.569967
C159  C     C_3   0.196589 0.492904 0.679671 0.124954
H46   H     H_    0.165113 0.449314 0.707697 0.099051
H47   H     H_    0.178567 0.545481 0.709937 0.159974
C160  C     C_3   0.239892 0.475329 0.705142 -0.800705
H48   H     H_    0.221845 0.472031 0.778902 0.201878
H49   H     H_    0.258312 0.422568 0.676513 0.258853
H50   H     H_    0.271664 0.518186 0.679445 0.251142
O51   O     O_3   0.281688 0.002999 0.416273 -0.582561
C161  C     C_3   0.309246 0.007272 0.322175 0.144229
H51   H     H_    0.330082 0.955699 0.293444 0.177072
H52   H     H_    0.339180 0.052809 0.297798 0.120079
C162  C     C_3   0.268801 0.020500 0.289077 -0.805913
H53   H     H_    0.247778 0.072234 0.315874 0.260177
H54   H     H_    0.289955 0.023601 0.215051 0.207103
H55   H     H_    0.238664 0.975604 0.311228 0.253229
O52   O     O_3   0.720280 0.997480 0.585736 -0.570058
C163  C     C_3   0.696739 0.993887 0.679606 0.124197
H56   H     H_    0.664688 0.951082 0.708541 0.099460
H57   H     H_    0.679479 0.047012 0.708951 0.161179
C164  C     C_3   0.739915 0.975627 0.705129 -0.801447
H58   H     H_    0.772278 0.017673 0.678471 0.251245
H59   H     H_    0.721974 0.973201 0.778908 0.202170
H60   H     H_    0.757549 0.922297 0.677470 0.258814
S1    S     S_3+6 0.171930 0.366487 0.345305 -0.009013
O53   O     O_2   0.176236 0.285811 0.340087 -0.340079
O54   O     O_2   0.160252 0.392666 0.272832 -0.316703
O55   O     O_3   0.229836 0.404607 0.329664 -0.631227
H61   H     H_    0.249226 0.418948 0.265821 0.363981
S2    S     S_3+6 0.819849 0.641350 0.665355 0.001475
O56   O     O_2   0.768077 0.615907 0.669750 -0.341261
O57   O     O_2   0.822748 0.610416 0.744471 -0.279359
O58   O     O_3   0.822306 0.731852 0.670343 -0.600883
H62   H     H_    0.841325 0.749139 0.607585 0.346120
S3    S     S_3+6 0.934616 0.329402 0.327943 -0.013593
O59   O     O_2   0.898522 0.356625 0.292637 -0.363408
O60   O     O_2   0.991971 0.336865 0.255101 -0.329023
O61   O     O_3   0.919805 0.241855 0.358490 -0.513538
H63   H     H_    0.910468 0.238813 0.422181 0.320898
S4    S     S_3+6 0.066131 0.678429 0.687207 0.013006
O62   O     O_2   0.080812 0.753995 0.650125 -0.253329
O63   O     O_2   0.010558 0.679358 0.766259 -0.312423
O64   O     O_3   0.109152 0.651509 0.723020 -0.596630
H64   H     H_    0.091672 0.608401 0.760990 0.343559
S5    S     S_3+6 0.671943 0.866476 0.345303 -0.009061
O65   O     O_2   0.676231 0.785798 0.340098 -0.339949
O66   O     O_2   0.660285 0.892660 0.272810 -0.316846
O67   O     O_3   0.729853 0.904570 0.329689 -0.631361
H65   H     H_    0.749146 0.919229 0.265950 0.363975
S6    S     S_3+6 0.319850 0.141359 0.665358 0.001483
O68   O     O_2   0.268077 0.115914 0.669757 -0.341236
O69   O     O_2   0.322749 0.110429 0.744476 -0.279361
O70   O     O_3   0.322308 0.231861 0.670339 -0.600907
H66   H     H_    0.341328 0.249145 0.607580 0.346092
S7    S     S_3+6 0.434613 0.829420 0.327937 -0.013622
O71   O     O_2   0.398542 0.856684 0.292606 -0.363341
O72   O     O_2   0.491975 0.836829 0.255109 -0.329092
O73   O     O_3   0.419752 0.741886 0.358512 -0.513400
H67   H     H_    0.410521 0.738822 0.422154 0.320769
S8    S     S_3+6 0.566122 0.178425 0.687224 0.013080
O74   O     O_2   0.580810 0.253991 0.650142 -0.253304
O75   O     O_2   0.510546 0.179356 0.766269 -0.312195
O76   O     O_3   0.609132 0.151501 0.723057 -0.596877
H68   H     H_    0.591740 0.108232 0.760752 0.343324
O77   O     O_3   0.633670 0.386722 0.748916 -0.567774
C165  C     C_3   0.669349 0.447058 0.721822 0.095415
H69   H     H_    0.712049 0.429703 0.683777 0.122547
H70   H     H_    0.664055 0.479195 0.780466 0.141330
C166  C     C_3   0.657695 0.495887 0.661392 -0.636319
H71   H     H_    0.685594 0.543317 0.639823 0.236275
H72   H     H_    0.663436 0.465815 0.601380 0.248160
H73   H     H_    0.615624 0.515266 0.697813 0.252846
O78   O     O_3   0.409235 0.689745 0.210837 -0.553352
C167  C     C_3   0.458074 0.724473 0.147432 0.289709
H74   H     H_    0.454820 0.783600 0.156863 0.211122
H75   H     H_    0.468442 0.716588 0.076491 0.016646
C168  C     C_3   0.505630 0.696661 0.157604 -0.684400
H76   H     H_    0.509849 0.637760 0.147469 0.245993
H77   H     H_    0.543368 0.724041 0.108019 0.176892
H78   H     H_    0.500547 0.706020 0.224920 0.294465
O79   O     O_3   0.378255 0.372518 0.246820 -0.584194
C169  C     C_3   0.351954 0.438842 0.281198 0.156758
H79   H     H_    0.311412 0.428607 0.338389 0.198363
H80   H     H_    0.348237 0.472094 0.229810 0.107771
C170  C     C_3   0.383614 0.482628 0.316150 -0.721317
H81   H     H_    0.425091 0.493897 0.261847 0.261585
H82   H     H_    0.363333 0.534837 0.342729 0.222803
H83   H     H_    0.385784 0.452224 0.370562 0.228546
O80   O     O_3   0.596251 0.675130 0.776504 -0.584742
C171  C     C_3   0.559372 0.732064 0.797955 0.120926
H84   H     H_    0.580879 0.784847 0.772621 0.109968
H85   H     H_    0.532674 0.735026 0.871507 0.117504
C172  C     C_3   0.524247 0.718527 0.754304 -0.793940
H86   H     H_    0.501763 0.666554 0.779018 0.249736
H87   H     H_    0.494977 0.762952 0.770795 0.196660
H88   H     H_    0.549681 0.716236 0.680692 0.252559
O81   O     O_3   0.133670 0.886724 0.748915 -0.567772
C173  C     C_3   0.169349 0.947060 0.721821 0.095426
H89   H     H_    0.212049 0.929707 0.683775 0.122518
H90   H     H_    0.164055 0.979198 0.780464 0.141336
C174  C     C_3   0.157693 0.995889 0.661393 -0.636334
H91   H     H_    0.185591 0.043320 0.639823 0.236272
H92   H     H_    0.163434 0.965817 0.601380 0.248159
H93   H     H_    0.115621 0.015267 0.697815 0.252848
O82   O     O_3   0.909243 0.189769 0.210817 -0.553300
C175  C     C_3   0.958077 0.224500 0.147395 0.289684
H94   H     H_    0.954823 0.283627 0.156832 0.211094
H95   H     H_    0.968430 0.216619 0.076461 0.016630
C176  C     C_3   0.005646 0.196692 0.157530 -0.684414
H96   H     H_    0.009846 0.137784 0.147444 0.246046
H97   H     H_    0.043381 0.224045 0.107896 0.176822
H98   H     H_    0.000596 0.206087 0.224818 0.294524
O83   O     O_3   0.878256 0.872519 0.246821 -0.584236
C177  C     C_3   0.851961 0.938846 0.281202 0.156855
H99   H     H_    0.811422 0.928615 0.338402 0.198373
H100  H     H_    0.848239 0.972100 0.229820 0.107706
C178  C     C_3   0.883630 0.982627 0.316140 -0.721357
H101  H     H_    0.925106 0.993892 0.261831 0.261593
H102  H     H_    0.863354 0.034837 0.342724 0.222803
H103  H     H_    0.885805 0.952220 0.370547 0.228559
O84   O     O_3   0.096249 0.175135 0.776507 -0.584728
C179  C     C_3   0.059382 0.232083 0.797939 0.120924
H104  H     H_    0.080901 0.284858 0.772594 0.109814
H105  H     H_    0.032682 0.235058 0.871488 0.117505
C180  C     C_3   0.024260 0.218555 0.754282 -0.793937
H106  H     H_    0.001764 0.166590 0.779005 0.249732
H107  H     H_    0.995000 0.262990 0.770756 0.196653
H108  H     H_    0.049697 0.216250 0.680671 0.252559

loop_
_geom_bond_atom_site_label_1
_geom_bond_atom_site_label_2
_ccdc_geom_bond_type
O19   Zn3   S    
C172  H86   S    
C34   C42   A    
C153  O49   S    
C16   C113  A    
C110  C118  A    
O78   C167  S    
O32   Zn3   S    
C166  H71   S    
C104  O42   A    
C27   C99   S    
C163  H56   S    
C54   C107  S    
C38   H13   S    
C13   C139  A    
C117  C119  A    
C156  O52   S    
C29   C37   A    
C17   S5    S    
C30   C38   A    
C1    O25   A    
C161  H51   S    
C7    O7    A    
O28   Zn7   S    
O31   Zn4   S    
C109  C127  A    
S4    O64   S    
S8    O74   D    
C111  C125  A    
O40   Zn9   S    
O11   Zn8   S    
C125  C135  A    
C143  C151  A    
C15   S3    S    
C19   C141  A    
C79   H35   S    
C92   C147  S    
C35   H23   S    
O22   Zn6   S    
O4    Zn4   S    
C130  C134  A    
C88   O12   A    
C73   C81   A    
O33   Zn11  S    
C115  C123  A    
C165  H69   S    
C45   H25   S    
C84   C100  A    
C8    O8    A    
C127  C136  A    
C47   H27   S    
C176  H98   S    
C48   H28   S    
C27   C35   A    
S6    O68   D    
C43   H12   S    
C21   C29   A    
C23   C31   A    
C179  H105  S    
C24   C32   A    
C146  C154  A    
C16   S4    S    
O35   Zn12  S    
C129  C133  A    
C63   C71   A    
C172  H88   S    
C160  H49   S    
C180  H106  S    
C36   C44   A    
C179  C180  S    
C148  C153  A    
O30   Zn1   S    
C158  H44   S    
C166  H73   S    
C57   C104  S    
C48   C96   A    
C59   C102  S    
C16   C138  A    
O39   Zn10  S    
O20   Zn4   S    
C52   C100  A    
C24   C96   S    
C149  C155  A    
C164  H59   S    
C174  H91   S    
C53   C108  S    
C21   C93   S    
C78   C94   A    
S8    O76   S    
O1    Zn1   S    
C23   C95   S    
C83   H39   S    
C118  C120  A    
C121  C123  A    
C81   H37   S    
C21   C42   A    
C116  C130  A    
O25   Zn6   S    
C125  C127  A    
C24   C43   A    
C107  O45   A    
C10   C138  A    
C177  H99   S    
O13   Zn2   S    
C30   H18   S    
C40   H15   S    
C110  C128  A    
C15   C137  A    
C9    C133  A    
O27   Zn8   S    
S7    O72   D    
C170  H81   S    
C69   C77   A    
C45   C93   A    
C71   C79   A    
C175  H94   S    
C8    O32   A    
C67   C75   A    
C85   O9    A    
C62   C70   A    
C7    O31   A    
C5    O5    A    
C158  H43   S    
C9    C140  A    
C173  H89   S    
C66   C74   A    
C67   O83   S    
C8    C76   S    
C49   C57   A    
O67   H65   S    
C111  C119  A    
O49   C157  S    
O9    Zn6   S    
C52   C60   A    
C59   C67   A    
C53   C61   A    
C5    O29   A    
C55   C63   A    
C180  H108  S    
C56   C64   A    
C35   C43   A    
O38   Zn10  S    
C42   H9    S    
S4    O63   D    
C45   C53   A    
C162  H53   S    
C22   C94   S    
O36   Zn11  S    
O21   Zn5   S    
C168  H77   S    
C103  O35   A    
C68   O84   S    
C50   C98   A    
C33   H21   S    
C175  C176  S    
C91   O15   A    
C174  H93   S    
C89   O13   A    
C49   C97   A    
C165  C166  S    
C86   O18   A    
C25   C38   A    
C169  H80   S    
C46   C94   A    
C27   C40   A    
C41   H10   S    
S1    O53   D    
O17   Zn1   S    
C11   C141  A    
C60   C68   A    
C159  H47   S    
O7    Zn7   S    
C25   C97   S    
C14   C140  A    
C170  H83   S    
C167  H75   S    
C87   C152  S    
C88   C151  S    
C92   O16   A    
O45   Zn9   S    
C122  C124  A    
C50   H30   S    
C169  C170  S    
C178  H102  S    
O29   Zn2   S    
C126  C128  A    
C106  O38   A    
C102  O34   A    
C18   S6    S    
C1    O1    A    
C19   S7    S    
C159  C160  S    
C158  H45   S    
C68   C76   A    
C167  C168  S    
C163  H57   S    
C12   C143  A    
C77   H33   S    
C46   H26   S    
C157  H41   S    
C72   C80   A    
C138  C146  A    
C105  O47   A    
C161  H52   S    
C5    C73   S    
S3    O61   S    
C90   O22   A    
C80   H36   S    
C126  C136  A    
C4    O4    A    
C113  C121  A    
C163  C164  S    
S8    O75   D    
C171  H84   S    
C12   C136  A    
C162  H55   S    
O23   Zn7   S    
C52   H32   S    
C131  C134  A    
C25   C33   A    
C108  O40   A    
C101  O43   A    
C161  C162  S    
C82   C98   A    
C36   H24   S    
C154  O50   S    
C76   C84   A    
O80   C171  S    
C109  C117  A    
C165  H70   S    
C137  C145  A    
C90   C145  S    
O34   Zn12  S    
C176  H97   S    
C115  C129  A    
S2    O56   D    
C168  H78   S    
C22   C41   A    
C14   S2    S    
S6    O69   D    
C14   C115  A    
C2    O26   A    
S1    O55   S    
O58   H62   S    
C85   C150  S    
C9    C137  A    
C121  H4    S    
C3    O27   A    
C122  H3    S    
C22   C30   A    
C112  C126  A    
S6    O70   S    
O73   H67   S    
C172  H87   S    
C83   C99   A    
C160  H48   S    
C140  C148  A    
C105  O37   A    
C74   C82   A    
C119  H6    S    
C6    C74   S    
C166  H72   S    
C117  H8    S    
C88   O20   A    
C118  H7    S    
C55   C106  S    
O64   H64   S    
C50   C58   A    
S2    O58   S    
C106  O48   A    
C54   C62   A    
C28   C39   A    
C168  H76   S    
C1    C69   S    
C23   C44   A    
C44   H11   S    
C130  C132  A    
S3    O59   D    
C79   C95   A    
C164  H58   S    
C11   C135  A    
C152  C155  A    
C124  H1    S    
C46   C54   A    
C151  C156  A    
C18   C111  A    
O48   Zn9   S    
C128  C135  A    
C10   C139  A    
C177  H100  S    
C4    C72   S    
C112  C120  A    
O84   C179  S    
O55   H61   S    
C116  C124  A    
O41   Zn11  S    
C57   C65   A    
C175  H95   S    
C26   C37   A    
C102  O44   A    
C17   C143  A    
C33   C41   A    
C142  C150  A    
C177  C178  S    
C18   C144  A    
C179  H104  S    
O76   H68   S    
C75   C83   A    
C173  H90   S    
O2    Zn2   S    
C6    O30   A    
O5    Zn5   S    
C77   C93   A    
C12   C142  A    
C56   C105  S    
C82   H38   S    
C13   C116  A    
C51   H31   S    
S7    O71   D    
C28   C36   A    
C144  C152  A    
C160  H50   S    
C108  O46   A    
O43   Zn12  S    
C180  H107  S    
C87   O19   A    
C101  O33   A    
C2    C70   S    
C173  C174  S    
C13   S1    S    
C70   C78   A    
O77   C165  S    
C3    C71   S    
C78   H34   S    
C155  O51   S    
C86   O10   A    
C141  C149  A    
C31   H19   S    
S5    O65   D    
C32   H20   S    
C139  C147  A    
C39   H16   S    
O47   Zn10  S    
C64   O80   S    
S5    O67   S    
C62   O78   S    
C84   H40   S    
C6    O6    A    
C164  H60   S    
C174  H92   S    
C104  O36   A    
C65   C73   A    
C92   O24   A    
C147  C154  A    
O10   Zn5   S    
C26   C34   A    
C132  C133  A    
C3    O3    A    
C80   C96   A    
C11   C144  A    
O3    Zn3   S    
C145  C153  A    
C28   C100  S    
C32   C40   A    
S7    O73   S    
C170  H82   S    
C150  C156  A    
C63   O79   S    
O16   Zn3   S    
C20   S8    S    
C91   C148  S    
C58   C66   A    
C51   C99   A    
C89   C146  S    
C20   C142  A    
C86   C149  S    
C37   H14   S    
C90   O14   A    
C7    C75   S    
O52   C163  S    
C4    O28   A    
O42   Zn12  S    
O12   Zn7   S    
O8    Zn8   S    
O15   Zn4   S    
C157  H42   S    
C66   O82   S    
C85   O17   A    
C178  H103  S    
C103  O41   A    
O51   C161  S    
C15   C114  A    
C49   H29   S    
O18   Zn2   S    
S3    O60   D    
C87   O11   A    
O83   C177  S    
C120  H5    S    
C26   C98   S    
S4    O62   D    
O6    Zn6   S    
C171  H85   S    
C162  H54   S    
O46   Zn10  S    
C157  C158  S    
C51   C59   A    
C60   C101  S    
C17   C112  A    
C47   C55   A    
O82   C175  S    
O50   C159  S    
C19   C110  A    
C61   C69   A    
C48   C56   A    
C107  O39   A    
O61   H63   S    
O44   Zn11  S    
C113  C131  A    
C2    O2    A    
C114  C132  A    
C10   C134  A    
C29   H17   S    
C123  H2    S    
O37   Zn9   S    
C171  C172  S    
O81   C173  S    
O24   Zn8   S    
C176  H96   S    
S2    O57   D    
C169  H79   S    
C178  H101  S    
S5    O66   D    
C81   C97   A    
C65   O81   S    
S1    O54   D    
C31   C39   A    
C64   C72   A    
C91   O23   A    
O70   H66   S    
C34   H22   S    
C159  H46   S    
C89   O21   A    
C20   C109  A    
C114  C122  A    
O26   Zn5   S    
C167  H74   S    
C47   C95   A    
C58   C103  S    
O14   Zn1   S    
C61   O77   S    
O79   C169  S    
C129  C131  A    
