data_mof_unit_55530.cif
_audit_creation_date              2012-12-11T16:58:22-0500
_audit_creation_method            fapswitch 2.2
_symmetry_space_group_name_H-M    P1
_symmetry_Int_Tables_number       1
_space_group_crystal_system       triclinic
_cell_length_a                    16.607381
_cell_length_b                    7.296163
_cell_length_c                    17.150846
_cell_angle_alpha                 90.004774
_cell_angle_beta                  99.924626
_cell_angle_gamma                 89.994527
_cell_volume                      2047.07159889

loop_
_atom_site_label
_atom_site_type_symbol
_atom_type_description
_atom_site_fract_x
_atom_site_fract_y
_atom_site_fract_z
_atom_type_partial_charge
O1    O     O_R   0.413450 0.494370 0.415710 -0.534663
O2    O     O_R   0.586550 0.994370 0.584290 -0.534684
O3    O     O_R   0.578420 0.819350 0.429360 -0.539452
O4    O     O_R   0.421580 0.319350 0.570640 -0.539399
C1    C     C_R   0.605058 0.655076 0.414305 0.694220
C2    C     C_R   0.394948 0.155097 0.585703 0.694174
O5    O     O_R   0.413570 0.823780 0.406240 -0.537575
O6    O     O_R   0.586430 0.323780 0.593760 -0.537594
O7    O     O_R   0.420530 0.998740 0.561000 -0.524039
O8    O     O_R   0.579470 0.498740 0.439000 -0.524017
C3    C     C_R   0.386412 0.655817 0.383899 0.690759
C4    C     C_R   0.613589 0.155817 0.616101 0.690613
O9    O     O_3   0.502480 0.662320 0.550800 -0.351336
O10   O     O_3   0.497520 0.162320 0.449200 -0.351348
V1    V     V_3+5 0.499540 0.935370 0.490580 1.551356
V2    V     V_3+5 0.500460 0.435370 0.509420 1.551452
C5    C     C_R   0.707459 0.986870 0.722725 0.043227
C6    C     C_R   0.292555 0.486863 0.277265 0.043328
C7    C     C_R   0.682288 0.148919 0.684091 -0.107431
C8    C     C_R   0.317718 0.648918 0.315903 -0.107510
C9    C     C_R   0.729453 0.304639 0.711997 -0.095193
C10   C     C_R   0.270551 0.804643 0.287998 -0.095109
H1    H     H_    0.715988 0.434377 0.683238 0.122228
H2    H     H_    0.284011 0.934387 0.316759 0.122254
C11   C     C_R   0.796033 0.292404 0.776430 -0.149926
C12   C     C_R   0.203972 0.792405 0.223565 -0.149629
H3    H     H_    0.829778 0.414457 0.796547 0.123158
H4    H     H_    0.170223 0.914466 0.203453 0.123090
C13   C     C_R   0.820199 0.122660 0.813236 -0.065105
C14   C     C_R   0.179808 0.622655 0.186759 -0.065093
C15   C     C_R   0.774780 0.972402 0.780560 0.089350
C16   C     C_R   0.225233 0.472393 0.219432 0.089340
C17   C     C_3   0.767468 0.769933 0.783443 -0.442969
C18   C     C_3   0.232526 0.269904 0.216588 -0.443174
C19   C     C_3   0.688215 0.789353 0.722187 0.337114
C20   C     C_3   0.311779 0.289325 0.277841 0.337159
H5    H     H_    0.758478 0.718842 0.841593 0.274658
H6    H     H_    0.241520 0.218693 0.158454 0.274615
H7    H     H_    0.818065 0.705022 0.758818 0.092559
H8    H     H_    0.181924 0.205074 0.241224 0.092567
H9    H     H_    0.689034 0.726357 0.663482 0.000812
H10   H     H_    0.310949 0.226405 0.336555 0.000778
C21   C     C_R   0.330751 0.143713 0.635645 -0.039509
C22   C     C_R   0.669258 0.643613 0.364365 -0.039653
C23   C     C_R   0.168615 0.124302 0.862996 -0.158828
C24   C     C_R   0.831380 0.624414 0.137000 -0.158984
C25   C     C_R   0.308766 0.194210 0.846564 -0.191633
C26   C     C_R   0.691371 0.695503 0.153552 -0.191649
C27   C     C_R   0.250164 0.171443 0.895794 0.416401
C28   C     C_R   0.749915 0.672445 0.104279 0.416214
C29   C     C_R   0.149169 0.089664 0.780996 -0.286255
C30   C     C_R   0.850757 0.589036 0.218944 -0.286118
C31   C     C_R   0.209122 0.106947 0.732046 0.160263
C32   C     C_R   0.790834 0.606504 0.267919 0.160232
C33   C     C_R   0.289115 0.163258 0.765148 0.053877
C34   C     C_R   0.710962 0.663840 0.234916 0.053871
C35   C     C_R   0.349037 0.183937 0.716715 -0.136449
C36   C     C_R   0.651078 0.684727 0.283378 -0.136674
C37   C     C_R   0.251608 0.084264 0.603138 -0.185352
C38   C     C_R   0.748270 0.583116 0.396767 -0.185126
C39   C     C_R   0.191003 0.068271 0.650622 -0.143626
C40   C     C_R   0.808858 0.566982 0.349268 -0.143699
H11   H     H_    0.410462 0.226751 0.742311 0.149766
H12   H     H_    0.589745 0.728326 0.257854 0.149996
H13   H     H_    0.236634 0.051159 0.540744 0.095647
H14   H     H_    0.763158 0.549304 0.459092 0.095717
H15   H     H_    0.370678 0.233285 0.871909 0.194435
H16   H     H_    0.629530 0.735268 0.128273 0.194536
H17   H     H_    0.130290 0.023746 0.623831 0.107396
H18   H     H_    0.869473 0.521647 0.375980 0.107402
H19   H     H_    0.087305 0.050344 0.755366 0.117418
H20   H     H_    0.912544 0.548986 0.244510 0.117524
O11   O     O_R   0.920630 0.775410 0.061150 -0.516030
O12   O     O_R   0.079370 0.275410 0.938850 -0.516132
O13   O     O_R   0.086500 0.441450 0.093690 -0.530319
O14   O     O_R   0.913500 0.941450 0.906310 -0.530186
C41   C     C_R   0.112811 0.610273 0.116967 0.733951
C42   C     C_R   0.887191 0.110275 0.883031 0.734056
O15   O     O_R   0.921670 0.445960 0.070740 -0.537523
O16   O     O_R   0.078330 0.945960 0.929260 -0.537469
O17   O     O_R   0.913380 0.271130 0.915780 -0.551126
O18   O     O_R   0.086620 0.771130 0.084220 -0.551062
C43   C     C_R   0.896398 0.614475 0.086890 0.701727
C44   C     C_R   0.103591 0.114456 0.913098 0.701917
O19   O     O_3   0.997500 0.603030 0.949220 -0.387352
O20   O     O_3   0.002500 0.103030 0.050780 -0.387407
V3    V     V_3+5 0.000470 0.329940 0.009420 1.487487
V4    V     V_3+5 0.999530 0.829940 0.990580 1.487829
S1    S     S_3+6 0.282357 0.193149 0.998666 0.073513
O21   O     O_2   0.373690 0.212879 0.017737 -0.250018
O22   O     O_2   0.243480 0.360705 0.027110 -0.338578
O23   O     O_3   0.255207 0.004276 0.044237 -0.466655
H21   H     H_    0.198837 0.027196 0.053261 0.315714
S2    S     S_3+6 0.717686 0.694517 0.001427 0.073550
O24   O     O_2   0.626396 0.715338 0.982447 -0.249988
O25   O     O_2   0.756908 0.861560 0.972977 -0.338762
O26   O     O_3   0.744346 0.505258 0.955776 -0.466365
H22   H     H_    0.800838 0.527244 0.946912 0.315620
S3    S     S_3+6 0.598155 0.748252 0.764326 0.083323
O27   O     O_2   0.523181 0.769838 0.702291 -0.337560
O28   O     O_2   0.600699 0.557296 0.797486 -0.271085
O29   O     O_3   0.593974 0.901065 0.836951 -0.426524
H23   H     H_    0.537031 0.894950 0.846924 0.391241
S4    S     S_3+6 0.401833 0.248053 0.235709 0.083321
O30   O     O_2   0.476818 0.270041 0.297699 -0.337518
O31   O     O_2   0.399351 0.056910 0.202740 -0.271301
O32   O     O_3   0.405924 0.400459 0.162922 -0.426418
H24   H     H_    0.462842 0.394215 0.152887 0.391425

loop_
_geom_bond_atom_site_label_1
_geom_bond_atom_site_label_2
_ccdc_geom_bond_type
C14   C16   A    
C20   H10   S    
O1    C3    A    
O16   C44   A    
O2    C4    A    
C2    O7    A    
S4    O31   D    
O26   H22   S    
C25   C27   A    
O5    C3    A    
C17   H7    S    
C18   H8    S    
C7    C9    A    
O14   C42   A    
C23   C29   A    
C24   C30   A    
C40   H18   S    
C38   C40   A    
C25   H15   S    
C17   C19   S    
C14   C41   S    
C31   C39   A    
C13   C42   S    
C22   C36   A    
O32   H24   S    
C15   C17   S    
O12   V3    S    
S1    O22   D    
O14   V4    S    
C18   C20   S    
C21   C37   A    
O5    V1    S    
C38   H14   S    
O6    V2    S    
C11   C13   A    
S2    O24   D    
C29   H19   S    
C19   S3    S    
O15   V3    S    
S4    O30   D    
C30   C32   A    
C35   H11   S    
C31   C33   A    
C36   H12   S    
C32   C34   A    
C3    C8    S    
C37   C39   A    
O4    C2    A    
O12   C44   A    
O20   V3    S    
C28   S2    S    
C32   C40   A    
S2    O26   S    
C17   H5    S    
C29   C31   A    
C16   C18   S    
O4    V2    S    
O11   V4    S    
C30   H20   S    
S3    O27   D    
C23   C27   A    
O6    C4    A    
O1    V2    S    
C26   H16   S    
S1    O23   S    
S2    O25   D    
O2    V1    S    
O13   C41   A    
O17   V3    S    
O13   V3    S    
S3    O28   D    
C1    C22   S    
C8    C10   A    
C12   C14   A    
C2    C21   S    
C33   C35   A    
C5    C15   A    
C10   H2    S    
C23   C44   S    
C6    C16   A    
O3    V1    S    
C25   C33   A    
O19   V4    S    
C39   H17   S    
C26   C34   A    
C9    C11   A    
C18   H6    S    
C27   S1    S    
O3    C1    A    
C11   H3    S    
C24   C28   A    
C12   H4    S    
C20   S4    S    
C9    H1    S    
O7    V1    S    
C1    O8    A    
C13   C15   A    
O8    V2    S    
C37   H13   S    
O15   C43   A    
C42   O17   A    
C41   O18   A    
C22   C38   A    
O18   V4    S    
C4    C7    S    
C26   C28   A    
O23   H21   S    
C5    C7    A    
C34   C36   A    
C6    C8    A    
O29   H23   S    
C19   H9    S    
C21   C35   A    
C24   C43   S    
S3    O29   S    
O16   V4    S    
C10   C12   A    
O9    V2    S    
O10   V1    S    
C5    C19   S    
S1    O21   D    
C6    C20   S    
O11   C43   A    
S4    O32   S    
