data_mof_unit_35274.cif
_audit_creation_date              2012-12-11T17:07:57-0500
_audit_creation_method            fapswitch 2.2
_symmetry_space_group_name_H-M    P1
_symmetry_Int_Tables_number       1
_space_group_crystal_system       triclinic
_cell_length_a                    17.239246
_cell_length_b                    17.280624
_cell_length_c                    17.392458
_cell_angle_alpha                 90.111294
_cell_angle_beta                  90.297649
_cell_angle_gamma                 89.998164
_cell_volume                      5181.21926014

loop_
_atom_site_label
_atom_site_type_symbol
_atom_type_description
_atom_site_fract_x
_atom_site_fract_y
_atom_site_fract_z
_atom_type_partial_charge
C1    C     C_R   0.394766 0.302328 0.899030 -0.155868
C2    C     C_R   0.179301 0.913666 0.364892 -0.148892
C3    C     C_R   0.785396 0.857795 0.192933 0.233760
C4    C     C_R   0.136978 0.208340 0.815907 0.240256
C5    C     C_R   0.315291 0.754607 0.635872 0.243792
C6    C     C_R   0.755759 0.687968 0.640076 0.244134
C7    C     C_R   0.683882 0.243304 0.635344 0.241841
C8    C     C_R   0.638930 0.287399 0.688365 0.242061
C9    C     C_R   0.714716 0.645218 0.696588 0.235466
C10   C     C_R   0.360389 0.710093 0.688705 0.232258
C11   C     C_R   0.183235 0.253572 0.867646 0.241867
C12   C     C_R   0.743670 0.814328 0.136768 0.244067
C13   C     C_R   0.086022 0.179077 0.364495 -0.149179
C14   C     C_R   0.814416 0.256089 0.137829 0.242117
C15   C     C_R   0.255611 0.186627 0.137560 0.245337
C16   C     C_R   0.186114 0.743125 0.138596 0.243190
C17   C     C_3   0.055051 0.783834 0.192424 -0.984699
C18   C     C_3   0.215458 0.055593 0.191430 -0.985135
C19   C     C_3   0.945587 0.214788 0.192221 -0.984682
C20   C     C_3   0.783160 0.945351 0.191984 -0.985123
C21   C     C_3   0.049527 0.209921 0.821299 -1.006937
C22   C     C_3   0.354308 0.801949 0.574165 -1.009998
C23   C     C_3   0.799830 0.647087 0.576981 -1.010074
C24   C     C_R   0.820965 0.085635 0.364028 -0.151904
C25   C     C_3   0.644842 0.196289 0.572784 -1.007812
C26   C     C_3   0.551351 0.287289 0.682976 -1.005031
C27   C     C_3   0.714079 0.557643 0.694264 -0.986846
C28   C     C_3   0.448130 0.712332 0.685961 -0.984819
C29   C     C_3   0.145626 0.300670 0.930582 -0.994122
C30   C     C_3   0.696749 0.854484 0.074965 -1.011755
C31   C     C_3   0.854935 0.302624 0.076444 -1.006106
C32   C     C_3   0.300477 0.146528 0.074556 -1.000486
C33   C     C_3   0.145458 0.697210 0.076244 -1.008770
C34   C     C_R   0.894391 0.197346 0.600389 -0.153847
C35   C     C_R   0.169349 0.076424 0.643881 -0.141138
C36   C     C_R   0.104283 0.802631 0.601948 -0.140653
C37   C     C_R   0.802558 0.895941 0.600755 -0.143923
C38   C     C_3   0.869823 0.302992 0.736995 -0.484839
C39   C     C_3   0.698495 0.876976 0.737202 -0.467590
C40   C     C_3   0.129714 0.689617 0.733687 -0.469570
C41   C     C_R   0.674668 0.416542 0.860750 -0.151507
C42   C     C_3   0.318341 0.141885 0.711545 -0.476274
C43   C     C_3   0.855409 0.671858 0.287909 -0.492148
C44   C     C_3   0.671280 0.146232 0.288621 -0.491340
C45   C     C_3   0.148593 0.329051 0.291334 -0.493611
C46   C     C_3   0.329460 0.850217 0.292845 -0.489869
C47   C     C_3   0.375196 0.806039 0.233893 -0.469713
C48   C     C_3   0.192642 0.374883 0.232499 -0.470384
C49   C     C_3   0.625458 0.191061 0.230000 -0.471496
C50   C     C_3   0.811328 0.625971 0.228662 -0.472125
C51   C     C_3   0.366718 0.190471 0.765507 -0.484568
C52   C     C_R   0.588102 0.681348 0.867105 -0.148931
C53   C     C_3   0.177337 0.641502 0.788545 -0.480835
C54   C     C_3   0.655291 0.831664 0.797059 -0.489341
C55   C     C_3   0.822872 0.349310 0.793323 -0.480487
C56   C     C_R   0.411788 0.675914 0.860589 -0.145937
C57   C     C_R   0.302702 0.392179 0.896849 -0.154339
C58   C     C_R   0.582820 0.325150 0.859155 -0.145710
C59   C     C_R   0.682190 0.593045 0.867379 -0.149667
C60   C     C_R   0.392817 0.303551 0.104241 -0.140987
C61   C     C_R   0.303495 0.606768 0.104625 -0.145608
C62   C     C_R   0.607314 0.696629 0.104013 -0.144135
C63   C     C_R   0.327910 0.577516 0.857942 -0.142523
C64   C     C_R   0.696772 0.392970 0.104441 -0.145083
C65   C     C_R   0.908705 0.180038 0.364714 -0.145943
C66   C     C_R   0.819509 0.908669 0.364628 -0.146883
C67   C     C_R   0.091679 0.819097 0.365504 -0.148447
C68   C     C_R   0.180228 0.091105 0.364868 -0.149514
C69   C     C_R   0.893077 0.803749 0.604737 -0.145544
C70   C     C_R   0.803143 0.106227 0.604482 -0.145204
C71   C     C_R   0.080967 0.171460 0.643531 -0.148133
C72   C     C_R   0.196891 0.892255 0.603873 -0.158967
C73   C     C_R   0.317689 0.314532 0.882952 0.119931
C74   C     C_R   0.395513 0.697366 0.100723 -0.144465
C75   C     C_R   0.644233 0.356453 0.818003 0.115818
C76   C     C_R   0.651228 0.654924 0.827434 0.117061
C77   C     C_R   0.354671 0.639813 0.816800 0.113773
C78   C     C_R   0.319086 0.684479 0.117668 0.112883
C79   C     C_R   0.685375 0.681224 0.116356 0.113254
C80   C     C_R   0.681277 0.315179 0.117081 0.113306
C81   C     C_R   0.314961 0.319270 0.117203 0.111582
C82   C     C_R   0.851694 0.848225 0.323324 0.116498
C83   C     C_R   0.152392 0.850916 0.324606 0.116049
C84   C     C_R   0.148329 0.151958 0.323821 0.115566
C85   C     C_R   0.697841 0.604695 0.099890 -0.145121
C86   C     C_R   0.848109 0.147735 0.323319 0.115911
C87   C     C_R   0.817840 0.183980 0.617344 0.117077
C88   C     C_R   0.139703 0.136758 0.686989 0.112412
C89   C     C_R   0.181255 0.814829 0.618355 0.116996
C90   C     C_R   0.815399 0.819759 0.617910 0.113255
C91   C     C_R   0.757322 0.345975 0.736142 0.111612
C92   C     C_R   0.657631 0.764683 0.742279 0.113854
C93   C     C_R   0.242645 0.648291 0.732343 0.108000
C94   C     C_R   0.298023 0.191738 0.817850 0.111506
C95   C     C_R   0.808497 0.698371 0.180992 0.107231
C96   C     C_R   0.604645 0.302553 0.100188 -0.144821
C97   C     C_R   0.697667 0.192856 0.182015 0.106438
C98   C     C_R   0.193445 0.302999 0.183860 0.109484
C99   C     C_R   0.303098 0.805472 0.184987 0.105327
C100  C     C_R   0.261878 0.845118 0.238477 0.116031
C101  C     C_R   0.153880 0.261622 0.237276 0.118024
C102  C     C_R   0.739008 0.152547 0.235256 0.118679
C103  C     C_R   0.848108 0.739794 0.234856 0.118652
C104  C     C_R   0.254041 0.147725 0.769166 0.105817
C105  C     C_R   0.199587 0.691742 0.682704 0.101268
C106  C     C_R   0.696291 0.805408 0.687987 0.104469
C107  C     C_R   0.302407 0.395704 0.100519 -0.149280
C108  C     C_R   0.799975 0.304153 0.685338 0.110981
C109  C     C_R   0.678640 0.330343 0.746255 -0.064431
C110  C     C_R   0.675566 0.687336 0.755061 -0.065264
C111  C     C_R   0.320787 0.664948 0.744372 -0.065814
C112  C     C_R   0.265143 0.252628 0.858799 -0.071771
C113  C     C_R   0.747250 0.732462 0.140835 -0.069908
C114  C     C_R   0.732339 0.253510 0.142106 -0.069549
C115  C     C_R   0.253356 0.268473 0.142675 -0.071157
C116  C     C_R   0.268201 0.745660 0.143558 -0.069122
C117  C     C_R   0.184645 0.826380 0.251937 -0.065029
C118  C     C_R   0.914172 0.821213 0.364134 -0.151300
C119  C     C_R   0.172762 0.184521 0.251015 -0.065324
C120  C     C_R   0.816114 0.171553 0.249972 -0.065283
C121  C     C_R   0.827924 0.816375 0.249797 -0.065712
C122  C     C_R   0.175098 0.162900 0.759176 -0.065734
C123  C     C_R   0.233206 0.752983 0.642853 -0.068607
C124  C     C_R   0.754370 0.769810 0.645134 -0.068884
C125  C     C_R   0.765903 0.244729 0.643078 -0.070121
C126  C     C_R   0.142849 0.784911 0.194420 0.234024
C127  C     C_R   0.214179 0.143158 0.193479 0.232356
C128  C     C_R   0.857795 0.213687 0.193417 0.233322
H1    H     H_    0.423070 0.246848 0.905552 0.100673
H2    H     H_    0.230539 0.946367 0.353617 0.105387
H3    H     H_    0.112488 0.349502 0.905209 0.248332
H4    H     H_    0.733688 0.896163 0.043471 0.255970
H5    H     H_    0.674941 0.813465 0.030778 0.245246
H6    H     H_    0.647152 0.885698 0.101139 0.250905
H7    H     H_    0.896399 0.265507 0.044712 0.255782
H8    H     H_    0.813940 0.324699 0.032339 0.244821
H9    H     H_    0.886633 0.351850 0.103059 0.250736
H10   H     H_    0.262059 0.106060 0.042687 0.256414
H11   H     H_    0.322150 0.187763 0.030890 0.247514
H12   H     H_    0.350027 0.114033 0.099624 0.247828
H13   H     H_    0.053455 0.230410 0.353207 0.105551
H14   H     H_    0.104086 0.734712 0.044573 0.255888
H15   H     H_    0.186348 0.675373 0.032266 0.245129
H16   H     H_    0.113652 0.647842 0.101946 0.250678
H17   H     H_    0.769790 0.052815 0.352364 0.106327
H18   H     H_    0.922143 0.253083 0.593889 0.102901
H19   H     H_    0.214437 0.036515 0.660500 0.109369
H20   H     H_    0.075294 0.747414 0.596054 0.100221
H21   H     H_    0.747156 0.924746 0.594598 0.102032
H22   H     H_    0.884341 0.244119 0.758438 0.208133
H23   H     H_    0.758031 0.893293 0.756152 0.201359
H24   H     H_    0.114167 0.747289 0.757598 0.200272
H25   H     H_    0.725396 0.449344 0.847890 0.107774
H26   H     H_    0.340701 0.081833 0.705581 0.183935
H27   H     H_    0.916387 0.651850 0.294473 0.184247
H28   H     H_    0.650392 0.085691 0.294767 0.184490
H29   H     H_    0.088064 0.349986 0.298498 0.184451
H30   H     H_    0.350675 0.910528 0.300440 0.184613
H31   H     H_    0.392712 0.747563 0.254228 0.201250
H32   H     H_    0.251210 0.392581 0.253130 0.200826
H33   H     H_    0.607533 0.249064 0.251337 0.201265
H34   H     H_    0.753478 0.606992 0.249488 0.201491
H35   H     H_    0.380991 0.248379 0.741607 0.206610
H36   H     H_    0.556321 0.733590 0.857160 0.103172
H37   H     H_    0.155710 0.581130 0.793683 0.184529
H38   H     H_    0.595454 0.853747 0.806164 0.184536
H39   H     H_    0.845923 0.408898 0.801322 0.183310
H40   H     H_    0.919306 0.336019 0.712738 0.183647
H41   H     H_    0.663542 0.924960 0.712329 0.183572
H42   H     H_    0.080768 0.656858 0.707423 0.183257
H43   H     H_    0.304936 0.171754 0.656451 0.199326
H44   H     H_    0.823007 0.679485 0.342565 0.199739
H45   H     H_    0.679905 0.178328 0.343525 0.199846
H46   H     H_    0.181659 0.320155 0.345699 0.198293
H47   H     H_    0.283157 0.537111 0.841433 0.108898
H48   H     H_    0.320416 0.817344 0.347008 0.199832
H49   H     H_    0.422498 0.840949 0.208010 0.183458
H50   H     H_    0.157431 0.421918 0.206226 0.184272
H51   H     H_    0.578424 0.156274 0.202869 0.183566
H52   H     H_    0.846964 0.579818 0.201604 0.183833
H53   H     H_    0.416593 0.158298 0.790609 0.184302
H54   H     H_    0.189223 0.671396 0.844086 0.199143
H55   H     H_    0.689733 0.821591 0.850388 0.199970
H56   H     H_    0.810478 0.317324 0.847346 0.201260
H57   H     H_    0.436755 0.731653 0.849037 0.107603
H58   H     H_    0.424053 0.752704 0.094229 0.102221
H59   H     H_    0.246489 0.419777 0.897821 0.108924
H60   H     H_    0.547618 0.275542 0.844348 0.115222
H61   H     H_    0.738463 0.567717 0.858331 0.105862
H62   H     H_    0.421123 0.247759 0.105206 0.110184
H63   H     H_    0.247779 0.578156 0.105966 0.112942
H64   H     H_    0.578761 0.752283 0.105073 0.112491
H65   H     H_    0.752571 0.421445 0.105761 0.112575
H66   H     H_    0.934156 0.235877 0.354628 0.106117
H67   H     H_    0.763408 0.933946 0.354444 0.106214
H68   H     H_    0.066493 0.762968 0.355735 0.105941
H69   H     H_    0.753160 0.576145 0.092582 0.102948
H70   H     H_    0.236079 0.065453 0.354746 0.107086
H71   H     H_    0.921474 0.748010 0.606307 0.112231
H72   H     H_    0.747642 0.077185 0.605676 0.111694
H73   H     H_    0.046232 0.221159 0.658786 0.116073
H74   H     H_    0.253123 0.919805 0.603460 0.112438
H75   H     H_    0.033500 0.798576 0.134108 0.255523
H76   H     H_    0.033475 0.725608 0.208610 0.245921
H77   H     H_    0.029227 0.827941 0.230791 0.253614
H78   H     H_    0.200418 0.034305 0.133068 0.255957
H79   H     H_    0.273971 0.034136 0.207681 0.245779
H80   H     H_    0.575977 0.247319 0.092941 0.102288
H81   H     H_    0.171556 0.029575 0.229752 0.253720
H82   H     H_    0.967062 0.200475 0.133928 0.254845
H83   H     H_    0.967204 0.272892 0.209249 0.246228
H84   H     H_    0.971397 0.170389 0.230379 0.253751
H85   H     H_    0.796998 0.967326 0.133814 0.255773
H86   H     H_    0.724714 0.966058 0.208882 0.245666
H87   H     H_    0.827510 0.971422 0.230323 0.253551
H88   H     H_    0.031016 0.194899 0.880380 0.257221
H89   H     H_    0.027813 0.268526 0.806554 0.254703
H90   H     H_    0.021485 0.166654 0.783180 0.249353
H91   H     H_    0.247014 0.424376 0.093768 0.102379
H92   H     H_    0.395727 0.765521 0.541619 0.255980
H93   H     H_    0.312420 0.823530 0.530656 0.245749
H94   H     H_    0.385831 0.851400 0.600560 0.250569
H95   H     H_    0.760849 0.606864 0.545495 0.255418
H96   H     H_    0.821798 0.687816 0.533010 0.245525
H97   H     H_    0.849144 0.614165 0.601966 0.251020
H98   H     H_    0.604524 0.233250 0.539210 0.255709
H99   H     H_    0.686824 0.173439 0.530370 0.244808
H100  H     H_    0.612133 0.147560 0.598564 0.251318
H101  H     H_    0.532443 0.302405 0.623866 0.256742
H102  H     H_    0.947327 0.770435 0.352552 0.106516
H103  H     H_    0.528679 0.229183 0.698036 0.253195
H104  H     H_    0.524432 0.331431 0.720585 0.250304
H105  H     H_    0.698506 0.536765 0.635897 0.255751
H106  H     H_    0.772088 0.534836 0.710470 0.245886
H107  H     H_    0.669488 0.532599 0.732420 0.253498
H108  H     H_    0.468628 0.697691 0.627398 0.254954
H109  H     H_    0.469225 0.770909 0.701999 0.247344
H110  H     H_    0.475359 0.669024 0.724444 0.253242
H111  H     H_    0.105955 0.263757 0.964573 0.256615
H112  H     H_    0.188617 0.323232 0.972582 0.246873
N1    N     N_R   0.425360 0.368540 0.922560 -0.037394
N2    N     N_R   0.131460 0.925360 0.422560 -0.038123
N3    N     N_R   0.074640 0.131460 0.422560 -0.039739
N4    N     N_R   0.868540 0.074640 0.422560 -0.038546
N5    N     N_R   0.925360 0.131460 0.577440 -0.040629
N6    N     N_R   0.131460 0.074640 0.577440 -0.043641
N7    N     N_R   0.074640 0.868540 0.577440 -0.040347
N8    N     N_R   0.868540 0.925360 0.577440 -0.041590
N9    N     N_R   0.425340 0.631500 0.922560 -0.039736
N10   N     N_R   0.368500 0.425340 0.922560 -0.038667
N11   N     N_R   0.574660 0.368500 0.922560 -0.040317
N12   N     N_R   0.631460 0.425360 0.922560 -0.039403
N13   N     N_R   0.631500 0.574660 0.922560 -0.038087
N14   N     N_R   0.425340 0.368500 0.077440 -0.040458
N15   N     N_R   0.368500 0.574660 0.077440 -0.041821
N16   N     N_R   0.574660 0.631500 0.077440 -0.041911
N17   N     N_R   0.631500 0.425340 0.077440 -0.041981
N18   N     N_R   0.925340 0.131500 0.422560 -0.038317
N19   N     N_R   0.868500 0.925340 0.422560 -0.038715
N20   N     N_R   0.074660 0.868500 0.422560 -0.038563
N21   N     N_R   0.131500 0.074660 0.422560 -0.039812
N22   N     N_R   0.925340 0.868500 0.577440 -0.041853
N23   N     N_R   0.574640 0.631460 0.922560 -0.037910
N24   N     N_R   0.868500 0.074660 0.577440 -0.041161
N25   N     N_R   0.074660 0.131500 0.577440 -0.042813
N26   N     N_R   0.131500 0.925340 0.577440 -0.040985
N27   N     N_R   0.368540 0.574640 0.922560 -0.041711
N28   N     N_R   0.425360 0.631460 0.077440 -0.041493
N29   N     N_R   0.631460 0.574640 0.077440 -0.041460
N30   N     N_R   0.574640 0.368540 0.077440 -0.041654
N31   N     N_R   0.368540 0.425360 0.077440 -0.039039
N32   N     N_R   0.925360 0.868540 0.422560 -0.038698
Ni1   Ni    Ni4+2 0.500000 0.369720 0.000000 0.203777
Ni2   Ni    Ni4+2 0.630280 0.500000 0.000000 0.205503
Ni3   Ni    Ni4+2 0.500000 0.630280 0.000000 0.205667
Ni4   Ni    Ni4+2 0.369720 0.500000 0.000000 0.203162
Ni5   Ni    Ni4+2 0.000000 0.869720 0.500000 0.206811
Ni6   Ni    Ni4+2 0.130280 0.000000 0.500000 0.207875
Ni7   Ni    Ni4+2 0.000000 0.130280 0.500000 0.208074
Ni8   Ni    Ni4+2 0.869720 0.000000 0.500000 0.206621

loop_
_geom_bond_atom_site_label_1
_geom_bond_atom_site_label_2
_ccdc_geom_bond_type
C44   C49   S    
C36   C89   A    
C39   C106  S    
C22   H92   S    
C42   H43   S    
C81   C107  A    
C67   C83   A    
N32   Ni5   S    
C4    C21   S    
C10   C28   S    
C50   H34   S    
C19   H82   S    
C8    C26   S    
N14   N31   A    
C53   H54   S    
C55   H39   S    
C14   C31   S    
C38   C55   S    
C92   C110  A    
C6    C9    A    
C40   H42   S    
C66   H67   S    
C58   N11   A    
C68   C84   A    
C14   C128  A    
C7    C8    A    
C47   H31   S    
N26   Ni6   S    
C70   N24   A    
C48   H32   S    
C13   C84   A    
C40   H24   S    
N17   Ni2   S    
C37   N8    A    
N29   Ni2   S    
C60   H62   S    
C19   H83   S    
C42   H26   S    
C95   C113  A    
C32   H12   S    
C1    H1    S    
N13   Ni2   S    
C28   H109  S    
C50   C95   S    
C96   H80   S    
C39   C54   S    
C59   N13   A    
N15   N28   A    
C24   N4    A    
N1    Ni1   S    
C46   H30   S    
C39   H23   S    
C25   H98   S    
N4    Ni8   S    
C47   C99   S    
C105  C123  A    
C68   H70   S    
C60   C81   A    
C85   N29   A    
C17   H75   S    
C39   H41   S    
C55   C91   S    
C3    C12   A    
C27   H106  S    
C28   H110  S    
N7    N26   A    
C74   N28   A    
C36   H20   S    
C19   C128  S    
C30   H6    S    
C77   C111  S    
C55   H56   S    
N9    Ni3   S    
N16   Ni3   S    
C51   H35   S    
C52   H36   S    
C6    C124  A    
C108  C125  A    
C80   C96   A    
N6    N25   A    
C117  C126  A    
C82   C121  S    
C49   H33   S    
C97   C102  A    
C27   H107  S    
C42   C51   S    
C34   C87   A    
C41   N12   A    
C93   C105  A    
N13   N23   A    
C94   C104  A    
C71   N25   A    
C21   H89   S    
C56   N9    A    
C63   N27   A    
C64   C80   A    
N30   Ni1   S    
C16   C126  A    
N19   Ni8   S    
C90   C124  S    
C54   H38   S    
C43   H27   S    
C70   C87   A    
C16   C116  A    
C48   H50   S    
C68   N21   A    
C23   H97   S    
N14   Ni1   S    
C95   C103  A    
C58   C75   A    
C62   N16   A    
C41   H25   S    
C33   H16   S    
N31   Ni4   S    
C22   H93   S    
C78   C116  S    
N27   Ni4   S    
C75   C109  S    
C32   H10   S    
N21   Ni6   S    
C107  N31   A    
C19   H84   S    
C101  C119  A    
C20   H87   S    
N11   Ni1   S    
C62   C79   A    
C65   C86   A    
C18   H81   S    
N4    N18   A    
C44   H45   S    
C15   C127  A    
C32   H11   S    
C88   C122  S    
C26   H101  S    
C79   C85   A    
N3    Ni7   S    
C99   C116  A    
C44   C102  S    
N25   Ni7   S    
C62   H64   S    
C89   C123  S    
C26   H104  S    
C14   C114  A    
N22   Ni5   S    
C58   H60   S    
C25   H99   S    
C118  N32   A    
C33   H15   S    
C56   C77   A    
C42   C104  S    
C18   H79   S    
C44   H28   S    
N7    Ni5   S    
C17   H76   S    
C50   H52   S    
N12   Ni2   S    
C54   C92   S    
C20   H86   S    
C18   C127  S    
C66   C82   A    
C22   H94   S    
C35   C88   A    
C99   C100  A    
C61   C78   A    
C30   H5    S    
C37   H21   S    
C64   H65   S    
C81   C115  S    
C34   N5    A    
C60   N14   A    
N11   N12   A    
C21   H88   S    
C45   H29   S    
C10   C111  A    
N5    Ni7   S    
C35   H19   S    
C7    C125  A    
C4    C11   A    
C2    N2    A    
C104  C122  A    
C45   C101  S    
C41   C75   A    
C28   H108  S    
C107  H91   S    
C83   C117  S    
C1    N1    A    
C85   H69   S    
C23   H95   S    
C66   N19   A    
N23   Ni3   S    
C21   H90   S    
C79   C113  S    
C33   H14   S    
C46   H48   S    
C59   H61   S    
C31   H9    S    
C82   C118  A    
C67   H68   S    
C103  C121  A    
C87   C125  S    
C102  C120  A    
C64   N17   A    
C9    C27   S    
C73   C112  S    
C72   H74   S    
C65   H66   S    
C63   C77   A    
C45   C48   S    
C92   C106  A    
C9    C110  A    
C71   H73   S    
N8    N22   A    
C46   C100  S    
C46   C47   S    
C35   N6    A    
C70   H72   S    
C29   H112  S    
C13   H13   S    
C37   C90   A    
C11   C112  A    
C57   C73   A    
C91   C108  A    
N2    N20   A    
N1    N10   A    
C67   N20   A    
C52   N23   A    
C80   C114  S    
C31   H8    S    
C52   C76   A    
C15   C32   S    
N17   N30   A    
C53   H37   S    
C43   H44   S    
C120  C128  A    
C43   C50   S    
C63   H47   S    
C69   N22   A    
C5    C22   S    
C26   H103  S    
C56   H57   S    
C98   C101  A    
N6    Ni6   S    
N16   N29   A    
C5    C123  A    
C25   H100  S    
C7    C25   S    
C76   C110  S    
N15   Ni4   S    
C18   H78   S    
C1    C73   A    
C20   H85   S    
N9    N27   A    
C61   H63   S    
C12   C30   S    
C65   N18   A    
C97   C114  A    
C5    C10   A    
C47   H49   S    
C16   C33   S    
C3    C20   S    
C8    C109  A    
N24   Ni8   S    
C51   H53   S    
C2    C83   A    
C72   C89   A    
C34   H18   S    
C91   C109  A    
C72   N26   A    
C13   N3    A    
C24   C86   A    
C118  H102  S    
C84   C119  S    
C30   H4    S    
C6    C23   S    
N28   Ni3   S    
C17   H77   S    
C2    H2    S    
C4    C122  A    
C38   H22   S    
C12   C113  A    
C98   C115  A    
C15   C115  A    
C48   C98   S    
C38   C108  S    
C17   C126  S    
C43   C103  S    
N8    Ni8   S    
C31   H7    S    
C94   C112  A    
C24   H17   S    
C27   H105  S    
C51   C94   S    
C49   C97   S    
C71   C88   A    
C3    C121  A    
C29   H3    S    
C57   H59   S    
C38   H40   S    
C23   H96   S    
C11   C29   S    
C61   N15   A    
C40   C53   S    
C74   C78   A    
C106  C124  A    
N18   Ni7   S    
C69   H71   S    
C36   N7    A    
N2    Ni6   S    
C54   H55   S    
N10   Ni4   S    
C86   C120  S    
C100  C117  A    
N3    N21   A    
N20   Ni5   S    
C49   H51   S    
C57   N10   A    
C45   H46   S    
N5    N24   A    
C96   N30   A    
C59   C76   A    
C93   C111  A    
C53   C93   S    
N19   N32   A    
C69   C90   A    
C29   H111  S    
C40   C105  S    
C74   H58   S    
C119  C127  A    
