data_mof_unit_61059.cif
_audit_creation_date              2013-03-05T16:14:16-0500
_audit_creation_method            fapswitch 2.2
_symmetry_space_group_name_H-M    P1
_symmetry_Int_Tables_number       1
_space_group_crystal_system       triclinic
_cell_length_a                    44.973289
_cell_length_b                    39.029059
_cell_length_c                    21.901703
_cell_angle_alpha                 90.291974
_cell_angle_beta                  60.227219
_cell_angle_gamma                 90.224103
_cell_volume                      33368.3611168

loop_
_atom_site_label
_atom_site_type_symbol
_atom_site_description
_atom_site_fract_x
_atom_site_fract_y
_atom_site_fract_z
_atom_type_partial_charge
O1    O     O_R   0.049910 0.528880 0.450120 -0.528072
O2    O     O_R   0.950090 0.528880 0.549880 -0.527657
O3    O     O_R   0.549910 0.028880 0.450120 -0.529172
O4    O     O_R   0.450090 0.028880 0.549880 -0.595590
O5    O     O_R   0.049900 0.471110 0.450110 -0.589710
O6    O     O_R   0.950100 0.471110 0.549890 -0.590121
O7    O     O_R   0.549900 0.971110 0.450110 -0.587917
O8    O     O_R   0.450100 0.971110 0.549890 -0.515416
C1    C     C_R   0.066220 0.500019 0.434803 0.851523
C2    C     C_R   0.933778 0.499965 0.565165 0.851224
C3    C     C_R   0.566218 0.000020 0.434831 0.853556
C4    C     C_R   0.433777 0.999802 0.564235 0.828083
O9    O     O_R   0.999990 0.528880 0.589040 -0.567028
O10   O     O_R   0.000010 0.528880 0.410960 -0.566588
O11   O     O_R   0.499990 0.028880 0.589040 -0.569937
O12   O     O_R   0.500010 0.028880 0.410960 -0.580499
O13   O     O_R   0.999990 0.471110 0.589030 -0.581566
O14   O     O_R   0.000010 0.471110 0.410970 -0.582025
O15   O     O_R   0.499990 0.971110 0.589030 -0.574418
O16   O     O_R   0.500010 0.971110 0.410970 -0.564412
C5    C     C_R   0.998831 0.500194 0.618726 0.865020
C6    C     C_R   0.001151 0.500053 0.381287 0.864717
C7    C     C_R   0.498829 0.000193 0.618728 0.872566
C8    C     C_R   0.501051 0.999790 0.381386 0.846932
Cu1   Cu    Cu3+1 0.000000 0.534200 0.500000 1.121333
Cu2   Cu    Cu3+1 0.500000 0.034200 0.500000 1.064775
Cu3   Cu    Cu3+1 0.000000 0.465790 0.500000 1.020138
Cu4   Cu    Cu3+1 0.500000 0.965790 0.500000 1.067579
C9    C     C_2   0.977713 0.480549 0.805950 -0.147221
C10   C     C_2   0.022059 0.480133 0.193894 -0.147103
C11   C     C_2   0.477740 0.980520 0.805925 -0.146991
C12   C     C_2   0.522344 0.019310 0.194026 -0.142867
C13   C     C_2   0.001947 0.496403 0.814279 -0.288054
C14   C     C_2   0.998007 0.496213 0.185687 -0.288051
C15   C     C_2   0.501950 0.996410 0.814278 -0.290745
C16   C     C_2   0.498043 0.003598 0.185721 -0.297499
H1    H     H_    0.956106 0.468317 0.850332 0.168374
H2    H     H_    0.043573 0.467818 0.149362 0.168026
H3    H     H_    0.456151 0.968255 0.850288 0.170555
H4    H     H_    0.544035 0.031422 0.149606 0.175786
H5    H     H_    0.025393 0.505274 0.768858 0.175614
H6    H     H_    0.974612 0.505158 0.231194 0.175320
H7    H     H_    0.525384 0.005312 0.768868 0.175438
H8    H     H_    0.474540 0.994849 0.231156 0.172632
C17   C     C_2   0.981046 0.477206 0.735766 -0.152144
C18   C     C_2   0.018688 0.476764 0.264083 -0.152301
C19   C     C_2   0.481083 0.977178 0.735733 -0.145286
C20   C     C_2   0.518989 0.022664 0.264224 -0.151230
C21   C     C_2   0.996492 0.501672 0.687302 -0.266103
C22   C     C_2   0.003378 0.501279 0.312815 -0.265491
C23   C     C_2   0.496484 0.001670 0.687310 -0.273307
C24   C     C_2   0.503349 0.998306 0.312858 -0.283087
H9    H     H_    0.969047 0.455454 0.725382 0.166327
H10   H     H_    0.030612 0.455021 0.274189 0.166128
H11   H     H_    0.469127 0.955399 0.725310 0.174698
H12   H     H_    0.531138 0.044324 0.274484 0.177513
H13   H     H_    0.005116 0.525205 0.700345 0.161348
H14   H     H_    0.994856 0.524795 0.300006 0.161242
H15   H     H_    0.505068 0.025218 0.700394 0.160150
H16   H     H_    0.494562 0.974832 0.299986 0.173421
C25   C     C_R   0.378447 0.478828 0.078513 0.306581
C26   C     C_R   0.621473 0.478824 0.921266 0.306594
C27   C     C_R   0.878370 0.979265 0.078050 0.308048
C28   C     C_R   0.122479 0.981770 0.918727 0.306391
C29   C     C_R   0.342700 0.478548 0.112758 -0.230990
C30   C     C_R   0.657218 0.478500 0.886994 -0.230847
C31   C     C_R   0.842624 0.978980 0.112474 -0.230283
C32   C     C_R   0.158191 0.982957 0.883413 -0.228608
H17   H     H_    0.329817 0.462929 0.091840 0.205044
H18   H     H_    0.670037 0.462899 0.907737 0.205136
H19   H     H_    0.829703 0.963628 0.091258 0.205240
H20   H     H_    0.171973 0.967371 0.901970 0.203896
C33   C     C_R   0.323273 0.496155 0.175878 -0.114458
C34   C     C_R   0.676714 0.496038 0.824054 -0.114525
C35   C     C_R   0.823249 0.996259 0.176026 -0.114496
C36   C     C_R   0.176476 0.002104 0.822185 -0.108389
C37   C     C_R   0.339735 0.515742 0.204724 0.267471
C38   C     C_R   0.660330 0.515609 0.795443 0.267561
C39   C     C_R   0.839764 0.015570 0.205127 0.267528
C40   C     C_R   0.158881 0.021839 0.796532 0.257230
C41   C     C_R   0.375936 0.518689 0.168199 0.291514
C42   C     C_R   0.624141 0.518603 0.832030 0.291455
C43   C     C_R   0.875961 0.018544 0.168478 0.291606
C44   C     C_R   0.122656 0.022710 0.833444 0.290141
C45   C     C_R   0.395618 0.499228 0.105336 -0.277521
C46   C     C_R   0.604380 0.499195 0.894670 -0.277992
C47   C     C_R   0.895604 0.999304 0.105275 -0.276153
C48   C     C_R   0.104198 0.001707 0.894299 -0.277061
C49   C     C_R   0.267268 0.480766 0.281024 -0.151474
C50   C     C_R   0.732639 0.480513 0.718730 -0.151358
C51   C     C_R   0.767256 0.980663 0.281011 -0.150458
C52   C     C_R   0.232139 0.992469 0.712264 -0.135607
H21   H     H_    0.281162 0.471958 0.306575 0.203247
H22   H     H_    0.718699 0.471692 0.693097 0.203209
H23   H     H_    0.781157 0.971680 0.306418 0.203535
H24   H     H_    0.218045 0.985852 0.685655 0.205877
C53   C     C_R   0.231375 0.480192 0.317481 0.338520
C54   C     C_R   0.768529 0.479876 0.682256 0.338312
C55   C     C_R   0.731364 0.980076 0.317467 0.338394
C56   C     C_R   0.267876 0.993997 0.673895 0.410415
C57   C     C_R   0.213566 0.492348 0.283871 -0.014373
C58   C     C_R   0.786405 0.492061 0.715971 -0.014149
C59   C     C_R   0.713550 0.992437 0.284028 -0.014434
C60   C     C_R   0.286183 0.001172 0.709695 -0.019384
C61   C     C_R   0.231965 0.503342 0.213814 -0.209079
C62   C     C_R   0.768064 0.503127 0.786146 -0.209035
C63   C     C_R   0.731934 0.003685 0.214153 -0.209113
C64   C     C_R   0.268157 0.008215 0.782145 -0.217691
H25   H     H_    0.218574 0.512518 0.187441 0.171851
H26   H     H_    0.781502 0.512331 0.812598 0.171762
H27   H     H_    0.718534 0.013028 0.187924 0.171698
H28   H     H_    0.281805 0.013737 0.810226 0.169780
C65   C     C_R   0.267688 0.503758 0.178091 -0.116750
C66   C     C_R   0.732343 0.503598 0.821887 -0.116840
C67   C     C_R   0.767652 0.004125 0.178440 -0.117021
C68   C     C_R   0.232477 0.008124 0.819013 -0.118679
H29   H     H_    0.281434 0.513257 0.124657 0.170752
H30   H     H_    0.718648 0.513157 0.875421 0.170651
H31   H     H_    0.781387 0.013813 0.125150 0.170740
H32   H     H_    0.219058 0.014344 0.874589 0.171213
C69   C     C_R   0.285523 0.493227 0.212016 0.108237
C70   C     C_R   0.714451 0.493055 0.787863 0.108450
C71   C     C_R   0.785499 0.993360 0.212189 0.108444
C72   C     C_R   0.214264 0.000494 0.784154 0.091843
C73   C     C_R   0.156341 0.472555 0.306371 -0.100830
C74   C     C_R   0.843600 0.472434 0.693328 -0.101114
C75   C     C_R   0.656356 0.972583 0.306508 -0.099576
C76   C     C_R   0.342323 0.029110 0.674464 -0.101050
H33   H     H_    0.168624 0.452989 0.266304 0.160295
H34   H     H_    0.831281 0.452949 0.733297 0.160398
H35   H     H_    0.668659 0.953027 0.266427 0.161745
H36   H     H_    0.329102 0.052092 0.702668 0.165427
C77   C     C_R   0.120703 0.474666 0.343766 -0.226769
C78   C     C_R   0.879244 0.474601 0.655967 -0.226861
C79   C     C_R   0.620718 0.974675 0.343870 -0.226204
C80   C     C_R   0.377999 0.028426 0.638522 -0.224760
H37   H     H_    0.106024 0.456734 0.331289 0.168108
H38   H     H_    0.893889 0.456793 0.668374 0.168235
H39   H     H_    0.606056 0.956732 0.331367 0.172086
H40   H     H_    0.391606 0.050880 0.640960 0.184742
C81   C     C_R   0.104049 0.499633 0.396469 -0.148894
C82   C     C_R   0.895945 0.499475 0.603411 -0.149013
C83   C     C_R   0.604043 0.999640 0.396563 -0.151979
C84   C     C_R   0.395926 0.999236 0.600078 -0.163210
C85   C     C_R   0.123976 0.522816 0.411533 0.414907
C86   C     C_R   0.876055 0.522496 0.588447 0.414936
C87   C     C_R   0.623946 0.022832 0.411677 0.417354
C88   C     C_R   0.377034 0.970233 0.598175 0.414598
C89   C     C_R   0.159810 0.520486 0.373024 -0.126140
C90   C     C_R   0.840219 0.520116 0.626930 -0.126025
C91   C     C_R   0.659781 0.020516 0.373212 -0.127989
C92   C     C_R   0.341280 0.970877 0.637581 -0.139916
H41   H     H_    0.175384 0.538054 0.383699 0.194954
H42   H     H_    0.824677 0.537576 0.616359 0.195062
H43   H     H_    0.675340 0.038085 0.383927 0.194629
H44   H     H_    0.326664 0.948514 0.638977 0.202778
C93   C     C_R   0.175976 0.495186 0.321469 0.065796
C94   C     C_R   0.824005 0.494915 0.678346 0.065810
C95   C     C_R   0.675964 0.995230 0.321641 0.064946
C96   C     C_R   0.323848 0.000423 0.673558 0.076404
O17   O     O_R   0.971110 0.450090 0.028870 -0.584326
O18   O     O_R   0.028890 0.450090 0.971130 -0.584248
O19   O     O_R   0.471110 0.950090 0.028870 -0.584238
O20   O     O_R   0.528890 0.950090 0.971130 -0.580153
C97   C     C_R   0.999973 0.433831 0.000002 0.771462
C98   C     C_R   0.499976 0.933829 0.000028 0.777805
O21   O     O_R   0.971120 0.500000 0.939830 -0.577866
O22   O     O_R   0.028880 0.500000 0.060170 -0.577690
O23   O     O_R   0.471120 0.000000 0.939830 -0.577671
O24   O     O_R   0.528880 0.000000 0.060170 -0.578711
O25   O     O_R   0.028890 0.500000 0.882090 -0.570215
O26   O     O_R   0.971110 0.500000 0.117910 -0.570166
O27   O     O_R   0.528890 0.000000 0.882090 -0.569298
O28   O     O_R   0.471110 1.000000 0.117910 -0.571675
C99   C     C_R   0.000296 0.498891 0.882142 0.841704
C100  C     C_R   0.999698 0.498834 0.117841 0.841830
C101  C     C_R   0.500296 0.998892 0.882142 0.843418
C102  C     C_R   0.499703 0.001108 0.117856 0.843589
Cu5   Cu    Cu3+1 0.965790 0.500000 0.034190 1.020102
Cu6   Cu    Cu3+1 0.034210 0.500000 0.965810 1.020229
Cu7   Cu    Cu3+1 0.465790 0.000000 0.034190 1.016936
Cu8   Cu    Cu3+1 0.534210 0.000000 0.965810 1.019690
O29   O     O_R   0.971120 0.549910 0.028870 -0.577017
O30   O     O_R   0.028880 0.549910 0.971130 -0.577056
O31   O     O_R   0.471120 0.049910 0.028870 -0.580047
O32   O     O_R   0.528880 0.049910 0.971130 -0.583435
C103  C     C_R   0.000024 0.566220 0.999985 0.836989
C104  C     C_R   0.500025 0.066264 0.999980 0.834433
O33   O     O_R   0.499990 0.450020 0.051430 -0.543821
O34   O     O_R   0.500010 0.450020 0.948570 -0.544728
O35   O     O_R   0.999990 0.950020 0.051430 -0.546681
O36   O     O_R   0.000010 0.950020 0.948570 -0.545151
C105  C     C_R   0.499983 0.433727 0.999880 0.943304
C106  C     C_R   0.999985 0.933725 0.999872 0.944898
O37   O     O_R   0.450090 0.499930 0.101420 -0.528861
O38   O     O_R   0.549910 0.499930 0.898580 -0.528603
O39   O     O_R   0.950090 0.999930 0.101420 -0.528865
O40   O     O_R   0.049910 0.999930 0.898580 -0.527828
O41   O     O_R   0.450100 0.500000 0.998350 -0.547183
O42   O     O_R   0.549900 0.500000 0.001650 -0.547603
O43   O     O_R   0.950100 1.000000 0.998350 -0.547440
O44   O     O_R   0.049900 0.000000 0.001650 -0.547820
C107  C     C_R   0.433691 0.500193 0.066657 0.948399
C108  C     C_R   0.566311 0.500185 0.933349 0.948329
C109  C     C_R   0.933686 0.000195 0.066644 0.948143
C110  C     C_R   0.066235 0.000841 0.933353 0.949415
Cu9   Cu    Cu3+1 0.499990 0.499920 0.061020 1.221702
Cu10  Cu    Cu3+1 0.500010 0.499920 0.938980 1.221746
Cu11  Cu    Cu3+1 0.999990 0.999920 0.061020 1.219966
Cu12  Cu    Cu3+1 0.000010 0.999920 0.938980 1.225243
O45   O     O_R   0.500000 0.549840 0.051640 -0.550896
O46   O     O_R   0.500000 0.549840 0.948360 -0.550853
O47   O     O_R   0.000000 0.049840 0.051640 -0.551579
O48   O     O_R   0.000000 0.049840 0.948360 -0.547096
C111  C     C_R   0.499976 0.566109 0.000158 0.924526
C112  C     C_R   0.999717 0.066114 0.000472 0.927881
C113  C     C_R   0.519845 0.622486 0.023329 0.300740
C114  C     C_R   0.479787 0.622204 0.978042 0.301646
C115  C     C_R   0.018981 0.122568 0.024976 0.302643
C116  C     C_R   0.979633 0.122178 0.977935 0.299740
C117  C     C_R   0.519432 0.658351 0.023301 -0.191473
C118  C     C_R   0.480113 0.658064 0.978340 -0.191630
C119  C     C_R   0.018551 0.158423 0.024846 -0.192431
C120  C     C_R   0.979933 0.158044 0.978163 -0.192064
H45   H     H_    0.535602 0.672134 0.038754 0.182282
H46   H     H_    0.463900 0.671622 0.963012 0.182467
H47   H     H_    0.034431 0.172232 0.041021 0.181791
H48   H     H_    0.963953 0.171568 0.962182 0.182231
C121  C     C_R   0.499773 0.676436 0.000827 -0.022324
C122  C     C_R   0.999253 0.176462 0.001431 -0.022204
C123  C     C_R   0.499864 0.603965 0.000548 -0.273952
C124  C     C_R   0.999431 0.103985 0.001186 -0.275138
C125  C     C_R   0.497443 0.732652 0.947949 -0.138445
C126  C     C_R   0.502139 0.733029 0.053526 -0.138343
C127  C     C_R   0.997409 0.232645 0.947881 -0.139097
C128  C     C_R   0.001241 0.233088 0.054448 -0.139207
H49   H     H_    0.496341 0.719306 0.905676 0.153362
H50   H     H_    0.503251 0.719977 0.095828 0.153373
H51   H     H_    0.996604 0.219270 0.905312 0.153001
H52   H     H_    0.001967 0.220066 0.097198 0.152860
C129  C     C_R   0.997148 0.268385 0.948111 -0.154048
C130  C     C_R   0.001738 0.268825 0.053704 -0.154281
C131  C     C_R   0.497069 0.768389 0.948375 -0.153001
C132  C     C_R   0.502517 0.768771 0.052969 -0.152670
H53   H     H_    0.995705 0.281844 0.906522 0.150768
H54   H     H_    0.003271 0.282627 0.095097 0.150646
H55   H     H_    0.495255 0.781867 0.907229 0.151615
H56   H     H_    0.504346 0.782549 0.094048 0.151890
C133  C     C_R   0.999515 0.286633 0.000764 0.079654
C134  C     C_R   0.499791 0.786611 0.000640 0.079054
C135  C     C_R   0.499785 0.714496 0.000775 0.135884
C136  C     C_R   0.999280 0.214522 0.001278 0.136547
C137  C     C_R   0.026997 0.342367 0.999018 -0.143528
C138  C     C_R   0.972446 0.342266 0.001706 -0.143404
C139  C     C_R   0.527258 0.842408 0.998497 -0.142520
C140  C     C_R   0.472439 0.842193 0.002356 -0.141204
H57   H     H_    0.048236 0.328782 0.997843 0.148550
H58   H     H_    0.951114 0.328606 0.003054 0.148693
H59   H     H_    0.548635 0.828872 0.996826 0.149652
H60   H     H_    0.451030 0.828489 0.004136 0.149705
C141  C     C_R   0.027315 0.378113 0.997982 -0.164149
C142  C     C_R   0.972360 0.378014 0.002348 -0.163801
C143  C     C_R   0.527506 0.878152 0.997489 -0.160093
C144  C     C_R   0.472291 0.877945 0.003013 -0.163542
H61   H     H_    0.048733 0.391627 0.996549 0.156768
H62   H     H_    0.951019 0.391450 0.003664 0.156866
H63   H     H_    0.549013 0.891703 0.995585 0.160534
H64   H     H_    0.450824 0.891333 0.004781 0.158069
C145  C     C_R   0.999891 0.396187 0.000084 -0.027539
C146  C     C_R   0.499923 0.896177 0.000167 -0.031579
C147  C     C_R   0.999659 0.324280 0.000478 0.092629
C148  C     C_R   0.499823 0.824262 0.000520 0.091717
C149  C     C_R   0.521333 0.377778 0.936957 0.210109
C150  C     C_R   0.478515 0.377826 0.062133 0.209955
C151  C     C_R   0.022429 0.877739 0.937850 0.209902
C152  C     C_R   0.977279 0.877818 0.061234 0.209722
C153  C     C_R   0.522748 0.341684 0.937344 0.304048
C154  C     C_R   0.477154 0.341723 0.061457 0.304401
C155  C     C_R   0.024063 0.841657 0.938815 0.302715
C156  C     C_R   0.975662 0.841721 0.060069 0.302430
C157  C     C_R   0.499984 0.323667 0.999349 -0.265833
C158  C     C_R   0.999890 0.823568 0.999423 -0.262140
C159  C     C_R   0.499935 0.395856 0.999633 -0.321092
C160  C     C_R   0.999899 0.895848 0.999633 -0.323920
C161  C     C_R   0.513506 0.268105 0.035641 -0.020640
C162  C     C_R   0.486711 0.267668 0.962943 -0.020814
C163  C     C_R   0.009080 0.767842 0.043161 -0.023308
C164  C     C_R   0.990911 0.767391 0.955708 -0.022951
H65   H     H_    0.523999 0.281949 0.063647 0.168659
H66   H     H_    0.476170 0.281170 0.934932 0.168734
H67   H     H_    0.016343 0.781648 0.076780 0.170562
H68   H     H_    0.983592 0.780847 0.922081 0.170723
C165  C     C_R   0.008751 0.732084 0.043787 -0.069387
C166  C     C_R   0.991353 0.731633 0.955165 -0.069862
C167  C     C_R   0.513509 0.232367 0.035756 -0.070651
C168  C     C_R   0.486793 0.231928 0.962926 -0.070192
H69   H     H_    0.015599 0.718558 0.078090 0.155745
H70   H     H_    0.984531 0.717756 0.920921 0.155602
H71   H     H_    0.523854 0.218880 0.064157 0.155435
H72   H     H_    0.476461 0.218098 0.934598 0.155861
C169  C     C_R   0.000077 0.713884 0.999503 0.164161
C170  C     C_R   0.500163 0.214130 0.999384 0.160292
C171  C     C_R   0.500077 0.285897 0.999289 0.229264
C172  C     C_R   0.999964 0.785698 0.999420 0.228334
C173  C     C_R   0.028841 0.657905 0.947688 0.317422
C174  C     C_R   0.971331 0.658004 0.051717 0.317510
C175  C     C_R   0.468718 0.158100 0.032383 0.312511
C176  C     C_R   0.531537 0.158138 0.966920 0.313000
C177  C     C_R   0.028376 0.621990 0.948595 -0.217760
C178  C     C_R   0.971779 0.622092 0.051077 -0.217549
C179  C     C_R   0.469129 0.122219 0.031209 -0.215471
C180  C     C_R   0.531057 0.122257 0.968413 -0.218080
H73   H     H_    0.050324 0.608003 0.908997 0.204667
H74   H     H_    0.949816 0.608188 0.090770 0.204607
H75   H     H_    0.445040 0.108420 0.056434 0.208227
H76   H     H_    0.555117 0.108478 0.943312 0.208104
C181  C     C_R   0.000069 0.603974 0.999895 -0.156985
C182  C     C_R   0.500075 0.104100 0.999878 -0.161110
C183  C     C_R   0.000085 0.676153 0.999631 -0.164404
C184  C     C_R   0.500143 0.176340 0.999557 -0.155311
S1    S     S_3+6 0.209668 0.464445 0.404779 0.068516
O49   O     O_2   0.180247 0.442046 0.415297 -0.219085
O50   O     O_2   0.233533 0.443899 0.419713 -0.223287
O51   O     O_3   0.194313 0.497516 0.461519 -0.461120
H77   H     H_    0.214365 0.512567 0.448412 0.367108
S2    S     S_3+6 0.790146 0.464011 0.594812 0.068646
O52   O     O_2   0.819561 0.441713 0.583952 -0.218891
O53   O     O_2   0.766206 0.443324 0.579830 -0.222938
O54   O     O_3   0.805491 0.497011 0.538365 -0.461125
H78   H     H_    0.785447 0.512002 0.551683 0.367096
S3    S     S_3+6 0.709649 0.964075 0.404563 0.069464
O55   O     O_2   0.680379 0.941562 0.414619 -0.218088
O56   O     O_2   0.733561 0.943571 0.419430 -0.222019
O57   O     O_3   0.694049 0.996974 0.461694 -0.461693
H79   H     H_    0.714004 0.012127 0.448868 0.366616
S4    S     S_3+6 0.288089 0.988921 0.581271 0.055255
O58   O     O_2   0.297010 0.951805 0.562986 -0.255465
O59   O     O_2   0.264096 0.999805 0.555794 -0.198345
O60   O     O_3   0.323909 0.012849 0.541037 -0.509169
H80   H     H_    0.336463 0.004077 0.492115 0.391336
S5    S     S_3+6 0.105409 0.553311 0.480618 0.057293
O61   O     O_2   0.132062 0.567955 0.495757 -0.230806
O62   O     O_2   0.090011 0.581832 0.459587 -0.253213
O63   O     O_3   0.074655 0.534361 0.553651 -0.538281
H81   H     H_    0.064575 0.553046 0.588839 0.375378
S6    S     S_3+6 0.894660 0.552844 0.519518 0.057262
O64   O     O_2   0.868024 0.567275 0.504451 -0.231042
O65   O     O_2   0.910090 0.581536 0.540694 -0.253054
O66   O     O_3   0.925390 0.533800 0.446389 -0.538275
H82   H     H_    0.935436 0.552398 0.411248 0.375279
S7    S     S_3+6 0.605351 0.053321 0.480768 0.053883
O67   O     O_2   0.631986 0.067980 0.495945 -0.234478
O68   O     O_2   0.589949 0.081833 0.459723 -0.257903
O69   O     O_3   0.574596 0.034358 0.553779 -0.537914
H83   H     H_    0.564517 0.053035 0.588986 0.374051
S8    S     S_3+6 0.396118 0.933645 0.544267 0.043553
O70   O     O_2   0.369522 0.912327 0.539112 -0.230094
O71   O     O_2   0.422649 0.944766 0.471629 -0.288459
O72   O     O_3   0.414689 0.909713 0.579683 -0.511965
H84   H     H_    0.426870 0.891342 0.544732 0.378823
N1    N     N_R   0.541556 0.605557 0.044653 0.148094
O73   O     O_R   0.562207 0.581312 0.006026 -0.306004
O74   O     O_R   0.544738 0.617974 0.096377 -0.308243
N2    N     N_R   0.458074 0.604981 0.956693 0.148364
O75   O     O_R   0.437488 0.580703 0.995201 -0.306410
O76   O     O_R   0.454819 0.617150 0.905111 -0.308106
N3    N     N_R   0.040212 0.105733 0.047646 0.148793
O77   O     O_R   0.061430 0.081815 0.009199 -0.304780
O78   O     O_R   0.042431 0.118030 0.100584 -0.309212
N4    N     N_R   0.958157 0.104892 0.956058 0.148602
O79   O     O_R   0.937465 0.080658 0.994481 -0.307301
O80   O     O_R   0.955184 0.116982 0.904083 -0.307837
N5    N     N_R   0.542153 0.396235 0.873032 0.184371
O81   O     O_R   0.566143 0.416783 0.867859 -0.300021
O82   O     O_R   0.536687 0.392980 0.820265 -0.231467
N6    N     N_R   0.457624 0.396341 0.126188 0.184455
O83   O     O_R   0.433687 0.416781 0.131361 -0.300213
O84   O     O_R   0.463018 0.393302 0.179028 -0.231483
N7    N     N_R   0.044084 0.896106 0.874232 0.183503
O85   O     O_R   0.066864 0.917650 0.871459 -0.299289
O86   O     O_R   0.040872 0.891424 0.818931 -0.231711
N8    N     N_R   0.955457 0.896295 0.124825 0.183525
O87   O     O_R   0.932750 0.917662 0.127303 -0.303172
O88   O     O_R   0.958481 0.891941 0.180346 -0.231590
S9    S     S_3+6 0.553680 0.319367 0.860388 0.089988
O89   O     O_2   0.537400 0.309882 0.817048 -0.242853
O90   O     O_2   0.584532 0.341453 0.817107 -0.166912
O91   O     O_3   0.567096 0.283524 0.881593 -0.505228
H85   H     H_    0.581065 0.271340 0.836385 0.410208
S10   S     S_3+6 0.446218 0.319436 0.138202 0.089077
O92   O     O_2   0.462441 0.310285 0.181619 -0.243285
O93   O     O_2   0.415308 0.341414 0.181522 -0.168258
O94   O     O_3   0.432917 0.283378 0.116655 -0.505369
H86   H     H_    0.418656 0.271420 0.161853 0.410002
S11   S     S_3+6 0.057385 0.819593 0.864810 0.091403
O95   O     O_2   0.044463 0.809954 0.815570 -0.241044
O96   O     O_2   0.088490 0.842025 0.826499 -0.166378
O97   O     O_3   0.069210 0.783910 0.889922 -0.503687
H87   H     H_    0.084376 0.771522 0.845620 0.411586
S12   S     S_3+6 0.942315 0.819701 0.133896 0.091320
O98   O     O_2   0.955136 0.810490 0.183318 -0.240460
O99   O     O_2   0.911147 0.842002 0.172072 -0.166916
O100  O     O_3   0.930643 0.783739 0.108563 -0.503867
H88   H     H_    0.915319 0.771517 0.152827 0.411789
N9    N     N_R   0.058638 0.675228 0.893776 0.139787
O101  O     O_R   0.077058 0.660859 0.832495 -0.302775
O102  O     O_R   0.069797 0.703327 0.907715 -0.316936
N10   N     N_R   0.941539 0.675427 0.105491 0.139719
O103  O     O_R   0.923168 0.661389 0.166942 -0.302839
O104  O     O_R   0.930317 0.703217 0.091259 -0.317374
N11   N     N_R   0.436244 0.175473 0.068409 0.135752
O105  O     O_R   0.432329 0.202311 0.107169 -0.316368
O106  O     O_R   0.409353 0.161958 0.070064 -0.311229
N12   N     N_R   0.564045 0.175532 0.930767 0.136464
O107  O     O_R   0.567998 0.202161 0.891924 -0.314260
O108  O     O_R   0.590919 0.162223 0.929137 -0.311099
N13   N     N_R   0.396805 0.457104 0.017928 0.156728
O109  O     O_R   0.420122 0.436232 0.014308 -0.317010
O110  O     O_R   0.386271 0.453828 0.972566 -0.294518
N14   N     N_R   0.603033 0.457176 0.981645 0.156825
O111  O     O_R   0.579671 0.436254 0.985020 -0.317056
O112  O     O_R   0.613537 0.454006 0.027009 -0.294438
N15   N     N_R   0.896646 0.958015 0.016670 0.157333
O113  O     O_R   0.919911 0.936819 0.012194 -0.311948
O114  O     O_R   0.886074 0.955488 0.971255 -0.294148
N16   N     N_R   0.105352 0.959161 0.977956 0.157132
O115  O     O_R   0.082274 0.937744 0.981669 -0.309787
O116  O     O_R   0.116728 0.955916 0.021875 -0.294146
N17   N     N_R   0.319497 0.532735 0.271020 0.156304
O117  O     O_R   0.296245 0.554844 0.278958 -0.299739
O118  O     O_R   0.322526 0.524181 0.325020 -0.255297
N18   N     N_R   0.680632 0.532539 0.729329 0.156259
O119  O     O_R   0.704010 0.554607 0.721590 -0.300058
O120  O     O_R   0.677517 0.523976 0.675276 -0.255227
N19   N     N_R   0.819587 0.032286 0.271771 0.156125
O121  O     O_R   0.796265 0.054441 0.280309 -0.300885
O122  O     O_R   0.822811 0.023503 0.325424 -0.254687
N20   N     N_R   0.178039 0.041294 0.733264 0.159925
O123  O     O_R   0.199330 0.064909 0.729776 -0.281786
O124  O     O_R   0.176357 0.033438 0.677235 -0.241790
S13   S     S_3+6 0.395812 0.548429 0.199270 0.104536
O125  O     O_2   0.371101 0.575484 0.245686 -0.184005
O126  O     O_2   0.408941 0.529238 0.240383 -0.208703
O127  O     O_3   0.428626 0.568354 0.131422 -0.538983
H89   H     H_    0.437849 0.584376 0.153179 0.375493
S14   S     S_3+6 0.604388 0.548347 0.801347 0.104372
O128  O     O_2   0.629207 0.575395 0.755364 -0.184374
O129  O     O_2   0.591226 0.529161 0.759895 -0.208608
O130  O     O_3   0.571619 0.568278 0.869454 -0.538710
H90   H     H_    0.562472 0.584308 0.847900 0.375314
S15   S     S_3+6 0.895870 0.048218 0.199593 0.104077
O131  O     O_2   0.871121 0.075116 0.246533 -0.184562
O132  O     O_2   0.909263 0.028943 0.240136 -0.208447
O133  O     O_3   0.928477 0.068361 0.131722 -0.540530
H91   H     H_    0.937772 0.084319 0.153443 0.375546
S16   S     S_3+6 0.101128 0.051675 0.805303 0.102578
O134  O     O_2   0.124489 0.079492 0.758794 -0.184997
O135  O     O_2   0.087380 0.031942 0.765529 -0.209152
O136  O     O_3   0.068626 0.070726 0.875135 -0.543406
H92   H     H_    0.059674 0.087855 0.855117 0.374026

loop_
_geom_bond_atom_site_label_1
_geom_bond_atom_site_label_2
_geom_bond_distance
_ccdc_geom_bond_type
C55   C59   1.414300 A    
O136  H92   0.990752 S    
C77   H37   1.083505 S    
C173  C183  1.418331 A    
N11   O106  1.301429 A    
C164  C172  1.403810 A    
C82   C86   1.419595 A    
C43   C47   1.428474 A    
C14   H6    1.086351 S    
C115  C124  1.420090 A    
C80   H40   1.083118 S    
C143  H63   1.083132 S    
C174  C178  1.401718 A    
C154  S10   1.789019 S    
C129  H53   1.083351 S    
C155  S11   1.788320 S    
N14   O111  1.301121 A    
C166  H70   1.083071 S    
O37   C107  1.296740 A    
C117  H45   1.082729 S    
C56   C60   1.417092 A    
C10   H2    1.086321 S    
C89   H41   1.082853 S    
C47   C109  1.486948 S    
C37   N17   1.434921 S    
S14   O130  1.678068 S    
C86   C90   1.402525 A    
C116  N4    1.438324 S    
C125  C131  1.394877 A    
C143  C146  1.404011 A    
C152  C156  1.411182 A    
C118  C121  1.400834 A    
O51   H77   0.990570 S    
S2    O52   1.502776 D    
C164  C166  1.395734 A    
O38   C108  1.296820 A    
C90   C94   1.399085 A    
C157  C171  1.474157 S    
C158  C172  1.478055 S    
C74   C94   1.396517 A    
C131  C134  1.400464 A    
N12   O108  1.301429 A    
C85   S5    1.771414 S    
C120  H48   1.082740 S    
C139  H59   1.083308 S    
C28   N16   1.438306 S    
C67   C71   1.400733 A    
C162  C171  1.402587 A    
C129  C133  1.400494 A    
C176  C184  1.417567 A    
C26   C30   1.396254 A    
S13   O127  1.677993 S    
C167  H71   1.083110 S    
O16   Cu4   1.961762 S    
C54   C58   1.414451 A    
S8    O72   1.681838 S    
O13   C5    1.293633 A    
O7    Cu4   1.958751 S    
C170  C184  1.474928 S    
O13   Cu3   1.959656 S    
C79   H39   1.083485 S    
O18   C97   1.294125 A    
C38   C42   1.417732 A    
O4    Cu2   1.959152 S    
Cu10  O46   1.958069 S    
S15   O132  1.502903 D    
C161  C167  1.394844 A    
S2    O54   1.680925 S    
O9    C5    1.285404 A    
C44   S16   1.789874 S    
O36   Cu12  1.959907 S    
C25   C45   1.420011 A    
C167  C170  1.402581 A    
C25   N13   1.437788 S    
O26   Cu5   1.963428 S    
S12   O99   1.503236 D    
N18   O119  1.301289 A    
N10   O104  1.300824 A    
O27   Cu8   1.963430 S    
C33   C69   1.478759 S    
C140  C144  1.395368 A    
O8    Cu4   1.959435 S    
C16   H8    1.086355 S    
C53   S1    1.772000 S    
C178  H74   1.083368 S    
C137  C141  1.395350 A    
S14   O129  1.502893 D    
C130  C133  1.400465 A    
O3    Cu2   1.959829 S    
C26   N14   1.437744 S    
C44   C48   1.429853 A    
S4    O58   1.502967 D    
O11   Cu2   1.961980 S    
O41   C107  1.298576 A    
O94   H86   0.990420 S    
C173  N9    1.441093 S    
C52   C72   1.401192 A    
O35   C106  1.293256 A    
N9    O101  1.301496 A    
C142  C145  1.403952 A    
C38   N18   1.434940 S    
C30   H18   1.084082 S    
C156  S12   1.788305 S    
N19   O122  1.301202 A    
C75   H35   1.083238 S    
O3    C3    1.295161 A    
C163  C165  1.395671 A    
C20   C24   1.339449 D    
C87   S7    1.771406 S    
C74   C78   1.394045 A    
S1    O49   1.502773 D    
O72   H84   0.990550 S    
C33   C37   1.409562 A    
C59   C63   1.402044 A    
C35   C39   1.409511 A    
O17   C97   1.294077 A    
Cu6   O30   1.959364 S    
C126  C132  1.395036 A    
S9    O90   1.503181 D    
O66   H82   0.990520 S    
C179  H75   1.083063 S    
O19   Cu7   1.959321 S    
S7    O67   1.503595 D    
C58   C94   1.471929 S    
C5    C21   1.453413 S    
N4    O79   1.300878 A    
S7    O69   1.680896 S    
N17   O117  1.301294 A    
C168  C170  1.402653 A    
C26   C46   1.420054 A    
C28   C32   1.394989 A    
C61   C65   1.394647 A    
C137  C147  1.401921 A    
Cu8   O32   1.959364 S    
O48   C112  1.297882 A    
C54   S2    1.772003 S    
C30   C34   1.393597 A    
C179  C182  1.400770 A    
C161  H65   1.083021 S    
C138  C147  1.401818 A    
C52   H24   1.082678 S    
C21   H13   1.086356 S    
N2    O75   1.300808 A    
C113  N1    1.438450 S    
C127  C129  1.394964 A    
C166  C169  1.401484 A    
C125  H49   1.082328 S    
C24   H16   1.086367 S    
O5    Cu3   1.958751 S    
C9    C13   1.339762 D    
O91   H85   0.990422 S    
O133  H91   0.990653 S    
O17   Cu5   1.959321 S    
C15   H7    1.086407 S    
C141  C145  1.403896 A    
C119  C122  1.400857 A    
O42   C108  1.298502 A    
S15   O133  1.678146 S    
C79   C83   1.406563 A    
C17   H9    1.086312 S    
C105  C159  1.478064 S    
C51   C71   1.402488 A    
O24   Cu8   1.958699 S    
Cu9   O45   1.960147 S    
C127  C136  1.407728 A    
C128  C136  1.407749 A    
S4    O60   1.682458 S    
O23   C101  1.293599 A    
N13   O110  1.301338 A    
N6    O84   1.301009 A    
O7    C3    1.295058 A    
C139  C148  1.401835 A    
S5    O62   1.502970 D    
C57   C61   1.402172 A    
C117  C121  1.401011 A    
C10   C14   1.340090 D    
C36   C72   1.476571 S    
C92   H44   1.081928 S    
C16   C102  1.453489 S    
O57   H79   0.990569 S    
C152  C160  1.411152 A    
C169  C183  1.472636 S    
C68   H32   1.083204 S    
O127  H89   0.990652 S    
O36   C106  1.293442 A    
O38   Cu10  1.961417 S    
C87   C91   1.402529 A    
O5    C1    1.295057 A    
C73   H33   1.083234 S    
S6    O65   1.502970 D    
O46   C111  1.296793 A    
O8    C4    1.290491 A    
S1    O51   1.680921 S    
S8    O71   1.503617 D    
Cu11  Cu12  2.672437 S    
O15   Cu4   1.959656 S    
C121  C135  1.485442 S    
O35   Cu11  1.957779 S    
C65   H29   1.083222 S    
C91   H43   1.082868 S    
C163  C172  1.403797 A    
C180  C182  1.400806 A    
C103  C181  1.473538 S    
C31   C35   1.393531 A    
O44   Cu11  1.957161 S    
C165  C169  1.401436 A    
C150  N6    1.434945 S    
S6    O66   1.680877 S    
O21   C99   1.293595 A    
O22   C100  1.293730 A    
C61   H25   1.083462 S    
C144  C146  1.403972 A    
O14   C6    1.294311 A    
C63   H27   1.083467 S    
C10   C18   1.474416 S    
C150  C159  1.411329 A    
C36   C40   1.409230 A    
S12   O98   1.502931 D    
C126  C135  1.407685 A    
C178  C181  1.399250 A    
C149  N5    1.434891 S    
C32   C36   1.393973 A    
C67   H31   1.083228 S    
C88   S8    1.776450 S    
O30   C103  1.294836 A    
O10   C6    1.284798 A    
N14   O112  1.301339 A    
C106  C160  1.478260 S    
C42   S14   1.788102 S    
C180  H76   1.083066 S    
C3    C83   1.476706 S    
S16   O136  1.674902 S    
C173  C177  1.401913 A    
C140  H60   1.083306 S    
C41   S13   1.788126 S    
O41   Cu10  1.957168 S    
C25   C29   1.396302 A    
C49   H21   1.082877 S    
O40   Cu12  1.961417 S    
S3    O57   1.680926 S    
C51   H23   1.082865 S    
S15   O131  1.503236 D    
C137  H57   1.083305 S    
C65   C69   1.400691 A    
O63   H81   0.990522 S    
C138  C142  1.395246 A    
O69   H83   0.990521 S    
O43   C109  1.298324 A    
S2    O53   1.503339 D    
C51   C55   1.401285 A    
C41   C45   1.428397 A    
O26   C100  1.285921 A    
C8    C24   1.453191 S    
O21   Cu5   1.958702 S    
N8    O87   1.300925 A    
C75   C95   1.396404 A    
O39   C109  1.297170 A    
C40   C44   1.414546 A    
C114  N2    1.438461 S    
N7    O85   1.300849 A    
N15   O114  1.301339 A    
Cu7   Cu8   2.671071 S    
N1    O74   1.301346 A    
C76   C96   1.397550 A    
C130  H54   1.083353 S    
C97   C145  1.469235 S    
C161  C171  1.402613 A    
C164  H68   1.082878 S    
C75   C79   1.393877 A    
N5    O82   1.301001 A    
S11   O97   1.681953 S    
C73   C93   1.396477 A    
S13   O126  1.502894 D    
C31   H19   1.084091 S    
N16   O115  1.301024 A    
C74   H34   1.083228 S    
C126  H50   1.082327 S    
N20   O123  1.301286 A    
O34   C105  1.293503 A    
O100  H88   0.990443 S    
C154  C157  1.417724 A    
O4    C4    1.301199 A    
O28   C102  1.285911 A    
C6    C22   1.453519 S    
N18   O120  1.301201 A    
C56   S4    1.773914 S    
C57   C93   1.471847 S    
C11   C19   1.473630 S    
C113  C117  1.399965 A    
C12   C20   1.473561 S    
C60   C96   1.471540 S    
S12   O100  1.681905 S    
C50   H22   1.082887 S    
C176  N12   1.439902 S    
C162  H66   1.083016 S    
Cu9   Cu10  2.672437 S    
C22   H14   1.086321 S    
C88   C92   1.397486 A    
O19   C98   1.294239 A    
O1    C1    1.295230 A    
S4    O59   1.503367 D    
C19   C23   1.339369 D    
C42   C46   1.428357 A    
C149  C153  1.410640 A    
C64   H28   1.083483 S    
C151  C155  1.411260 A    
S3    O55   1.502767 D    
C141  H61   1.083152 S    
C120  C122  1.400893 A    
C78   C82   1.406643 A    
O60   H80   0.990464 S    
C17   C21   1.339359 D    
C151  N7    1.435544 S    
C18   H10   1.086279 S    
N3    O78   1.301333 A    
C153  S9    1.789028 S    
C34   C70   1.478770 S    
C76   C80   1.393015 A    
O42   Cu9   1.957161 S    
C131  H55   1.083352 S    
N12   O107  1.301106 A    
C35   C71   1.478691 S    
O32   C104  1.295663 A    
C86   S6    1.771457 S    
C12   C16   1.339660 D    
C60   C64   1.403700 A    
C125  C135  1.407753 A    
S9    O89   1.502888 D    
O47   C112  1.296511 A    
C153  C157  1.417790 A    
C177  H73   1.083357 S    
C68   C72   1.399791 A    
C127  H51   1.082331 S    
C175  C184  1.417480 A    
O6    C2    1.295283 A    
N4    O80   1.301340 A    
S11   O95   1.502937 D    
S7    O68   1.502967 D    
S10   O92   1.502875 D    
C77   C81   1.406601 A    
C13   H5    1.086404 S    
C64   C68   1.392872 A    
C80   C84   1.407161 A    
O22   Cu6   1.958699 S    
C39   C43   1.417638 A    
C49   C69   1.402465 A    
O33   Cu9   1.957779 S    
C29   H17   1.084077 S    
O20   C98   1.294077 A    
C81   C85   1.419474 A    
N2    O76   1.301352 A    
O2    Cu1   1.959152 S    
C175  C179  1.400560 A    
O10   Cu1   1.959880 S    
C165  H69   1.083074 S    
Cu11  O47   1.960147 S    
O20   Cu8   1.958641 S    
C45   C107  1.486640 S    
C115  C119  1.399633 A    
Cu5   Cu6   2.671071 S    
C132  H56   1.083346 S    
C168  H72   1.083107 S    
O37   Cu9   1.961419 S    
N10   O103  1.301490 A    
S16   O135  1.502862 D    
C34   C38   1.409593 A    
C9    C17   1.473644 S    
N11   O105  1.301075 A    
C118  H46   1.082743 S    
C4    C84   1.478966 S    
C89   C93   1.399146 A    
C28   C48   1.419054 A    
C85   C89   1.402598 A    
O24   C102  1.293578 A    
O45   C111  1.297322 A    
C92   C96   1.396261 A    
S14   O128  1.503239 D    
O54   H78   0.990572 S    
C133  C147  1.469336 S    
O15   C7    1.293614 A    
N3    O77   1.300781 A    
C134  C148  1.469493 S    
C84   C88   1.425526 A    
S10   O94   1.681652 S    
N13   O109  1.301146 A    
S13   O125  1.503237 D    
S5    O61   1.503596 D    
C83   C87   1.419494 A    
C140  C148  1.401940 A    
C175  N11   1.439831 S    
C132  C134  1.400596 A    
C62   C66   1.394640 A    
C111  C123  1.477471 S    
C156  C158  1.418654 A    
O29   C103  1.294642 A    
N9    O102  1.300838 A    
C174  N10   1.441017 S    
C39   N19   1.434952 S    
N7    O86   1.300993 A    
Cu7   O31   1.958681 S    
C138  H58   1.083309 S    
C91   C95   1.399050 A    
C29   C33   1.393629 A    
C155  C158  1.418694 A    
C128  C130  1.394925 A    
C15   C101  1.453602 S    
C177  C181  1.399274 A    
O16   C8    1.285230 A    
S1    O50   1.503341 D    
C50   C70   1.402450 A    
C2    C82   1.477016 S    
C37   C41   1.417695 A    
C32   H20   1.084034 S    
S9    O91   1.681737 S    
O11   C7    1.285426 A    
C78   H38   1.083503 S    
O12   C8    1.293667 A    
O1    Cu1   1.959829 S    
C174  C183  1.418236 A    
C98   C146  1.469531 S    
O9    Cu1   1.961980 S    
C122  C136  1.485438 S    
C76   H36   1.083256 S    
O28   Cu7   1.963428 S    
C114  C118  1.399622 A    
Cu5   O29   1.958681 S    
N17   O118  1.301201 A    
C43   S15   1.788070 S    
C27   C31   1.396137 A    
C116  C124  1.419614 A    
C162  C168  1.394892 A    
C149  C159  1.411311 A    
O39   Cu11  1.961419 S    
C104  C182  1.476704 S    
C115  N3    1.438412 S    
N15   O113  1.301049 A    
C1    C81   1.476848 S    
S16   O134  1.503191 D    
O31   C104  1.295509 A    
C55   S3    1.771947 S    
Cu12  O48   1.958069 S    
O25   C99   1.285964 A    
C128  H52   1.082313 S    
C49   C53   1.401290 A    
C152  N8    1.435546 S    
O33   C105  1.293106 A    
O40   C110  1.294272 A    
C7    C23   1.453442 S    
O6    Cu3   1.959435 S    
O27   C101  1.285947 A    
C144  H64   1.083142 S    
O23   Cu7   1.958702 S    
C119  H47   1.082735 S    
C151  C160  1.411188 A    
S3    O56   1.503338 D    
C63   C67   1.394490 A    
C66   H30   1.083225 S    
O34   Cu10  1.959907 S    
O130  H90   0.990650 S    
O44   C110  1.298930 A    
C9    H1    1.086332 S    
C163  H67   1.082888 S    
O25   Cu6   1.963430 S    
C23   H15   1.086357 S    
O2    C2    1.295103 A    
C46   C108  1.486682 S    
O43   Cu12  1.957168 S    
C116  C120  1.399801 A    
N6    O83   1.301087 A    
C52   C56   1.396885 A    
C19   H11   1.086305 S    
C62   H26   1.083458 S    
S5    O63   1.680913 S    
C73   C77   1.393958 A    
C20   H12   1.086314 S    
N8    O88   1.300991 A    
S10   O93   1.503198 D    
C27   C47   1.420375 A    
C150  C154  1.410461 A    
O18   Cu6   1.958641 S    
O14   Cu3   1.961762 S    
C48   C110  1.482316 S    
O12   Cu2   1.959880 S    
C142  H62   1.083151 S    
C40   N20   1.434887 S    
Cu1   Cu3   2.669978 S    
N1    O73   1.300806 A    
C18   C22   1.339283 D    
Cu2   Cu4   2.669978 S    
C27   N15   1.437808 S    
N5    O81   1.301075 A    
C113  C123  1.419694 A    
S11   O96   1.503225 D    
C59   C95   1.471544 S    
S6    O64   1.503599 D    
C139  C143  1.395259 A    
N16   O116  1.301363 A    
S8    O70   1.503667 D    
C112  C124  1.478123 S    
C11   H3    1.086332 S    
C58   C62   1.402186 A    
C11   C15   1.339734 D    
C12   H4    1.086325 S    
C13   C99   1.453623 S    
N20   O124  1.301461 A    
C114  C123  1.419722 A    
C14   C100  1.453795 S    
N19   O121  1.301299 A    
C66   C70   1.400692 A    
C176  C180  1.400770 A    
C90   H42   1.082851 S    
O97   H87   0.990444 S    
C50   C54   1.401308 A    
C53   C57   1.414402 A    
