data_mof_unit_66107.cif
_audit_creation_date              2012-12-10T17:52:40-0500
_audit_creation_method            fapswitch 2.2
_symmetry_space_group_name_H-M    P1
_symmetry_Int_Tables_number       1
_space_group_crystal_system       triclinic
_cell_length_a                    18.763548
_cell_length_b                    18.825166
_cell_length_c                    18.662704
_cell_angle_alpha                 109.554184
_cell_angle_beta                  109.314592
_cell_angle_gamma                 109.738956
_cell_volume                      5062.41119697

loop_
_atom_site_label
_atom_site_type_symbol
_atom_type_description
_atom_site_fract_x
_atom_site_fract_y
_atom_site_fract_z
_atom_type_partial_charge
C1    C     C_R   0.118424 0.119943 0.498203 0.963801
C2    C     C_R   0.327023 0.311171 0.576282 -0.194267
C3    C     C_R   0.261667 0.248158 0.575413 -0.152772
C4    C     C_R   0.121889 0.002275 0.620453 1.095547
C5    C     C_R   0.183372 0.185574 0.496624 0.001422
C6    C     C_R   0.732502 0.919067 0.249215 0.108130
C7    C     C_R   0.669264 0.921113 0.186293 -0.155007
C8    C     C_R   0.686244 0.999211 0.186009 -0.153473
C9    C     C_R   0.765677 0.076300 0.248761 -0.252391
C10   C     C_R   0.828436 0.075748 0.312907 0.586793
C11   C     C_R   0.812308 0.997461 0.312757 -0.161469
C12   C     C_R   0.268469 0.017733 0.682840 -0.144300
C13   C     C_R   0.812450 0.737782 0.485650 0.619178
C14   C     C_R   0.749221 0.672763 0.485236 0.009642
C15   C     C_R   0.686184 0.687674 0.501794 -0.159567
C16   C     C_R   0.877990 0.879852 0.498303 0.956102
C17   C     C_R   0.683871 0.765209 0.515712 0.152311
C18   C     C_R   0.742178 0.826059 0.506120 0.109804
C19   C     C_R   0.809148 0.813552 0.496001 -0.254685
C20   C     C_R   0.501902 0.879953 0.881659 0.908529
C21   C     C_R   0.379661 0.996545 0.876305 0.961433
C22   C     C_R   0.499901 0.120000 0.120034 0.936050
C23   C     C_R   0.192255 0.007447 0.687300 -0.339973
C24   C     C_R   0.620296 0.000022 0.120304 0.910208
C25   C     C_R   0.500358 0.620365 0.620557 0.880149
C26   C     C_R   0.379645 0.379637 0.499849 0.858289
C27   C     C_R   0.498151 0.378354 0.379663 0.950039
C28   C     C_R   0.879211 0.999001 0.379576 0.907476
C29   C     C_R   0.620034 0.620206 0.500324 0.939216
C30   C     C_R   0.581730 0.822020 0.823429 0.641490
C31   C     C_R   0.581030 0.757349 0.759490 -0.267192
C32   C     C_R   0.501100 0.686653 0.687237 -0.106988
C33   C     C_R   0.421786 0.679305 0.678761 -0.165163
C34   C     C_R   0.178420 0.992786 0.751122 0.538430
C35   C     C_R   0.422327 0.742478 0.743873 -0.267946
C36   C     C_R   0.502197 0.813945 0.815588 -0.151429
C37   C     C_R   0.487282 0.250345 0.172629 0.016200
C38   C     C_R   0.487764 0.313742 0.237698 0.592889
C39   C     C_R   0.494880 0.309267 0.312827 -0.264544
C40   C     C_R   0.290929 0.047394 0.628707 0.659228
C41   C     C_R   0.501017 0.240849 0.324579 0.112712
C42   C     C_R   0.510799 0.182330 0.264173 0.149029
C43   C     C_R   0.500604 0.185952 0.187190 -0.160248
C44   C     C_R   0.361637 0.048533 0.619329 -0.240251
C45   C     C_R   0.239661 0.987375 0.811032 0.542331
C46   C     C_R   0.407481 0.015397 0.658594 -0.253142
C47   C     C_R   0.386984 0.986063 0.712775 0.260757
C48   C     C_R   0.323955 0.997852 0.734413 -0.034585
C49   C     C_3   0.713230 0.834251 0.248735 -0.836860
C50   C     C_3   0.748935 0.587812 0.466283 -0.727527
C51   C     C_3   0.621250 0.784159 0.542535 -0.823760
C52   C     C_3   0.731766 0.902421 0.505269 -0.813484
C53   C     C_3   0.471788 0.251457 0.088107 -0.725976
C54   C     C_3   0.495211 0.229384 0.399621 -0.805381
C55   C     C_3   0.534690 0.118676 0.283410 -0.829429
C56   C     C_R   0.312598 0.990375 0.803995 -0.335542
C57   C     C_3   0.423723 0.931218 0.732642 -0.845542
C58   C     C_3   0.083409 0.120424 0.332657 -0.842055
C59   C     C_R   0.168481 0.186243 0.417818 0.158419
C60   C     C_R   0.234008 0.251232 0.419987 -0.156823
C61   C     C_R   0.312836 0.312797 0.498736 -0.068244
F1    F     F_    0.105185 0.983838 0.755400 -0.603351
F2    F     F_    0.905445 0.151111 0.374330 -0.666909
F3    F     F_    0.878489 0.728065 0.477410 -0.643114
F4    F     F_    0.659338 0.890976 0.893609 -0.651991
F5    F     F_    0.247969 0.079793 0.588214 -0.711953
F6    F     F_    0.482760 0.381049 0.228797 -0.654439
F7    F     F_    0.228199 0.980518 0.877139 -0.602458
H1    H     H_    0.272489 0.247276 0.635805 0.177536
H2    H     H_    0.387829 0.359365 0.637467 0.164725
H3    H     H_    0.645046 0.781322 0.197758 0.237733
H4    H     H_    0.757831 0.812963 0.234689 0.262590
H5    H     H_    0.722036 0.842709 0.313398 0.219346
H6    H     H_    0.797046 0.583191 0.445661 0.278544
H7    H     H_    0.765375 0.581716 0.525963 0.245865
H8    H     H_    0.683429 0.531757 0.412109 0.222530
H9    H     H_    0.599449 0.747472 0.574020 0.221999
H10   H     H_    0.653909 0.854093 0.592424 0.243073
H11   H     H_    0.563077 0.767562 0.484118 0.243358
H12   H     H_    0.607242 0.861774 0.136745 0.168725
H13   H     H_    0.754876 0.923046 0.464252 0.222668
H14   H     H_    0.661993 0.884444 0.475477 0.234939
H15   H     H_    0.768601 0.958318 0.573349 0.256661
H16   H     H_    0.452687 0.300131 0.083346 0.278425
H17   H     H_    0.532284 0.267919 0.083771 0.240128
H18   H     H_    0.417945 0.186548 0.030805 0.225726
H19   H     H_    0.450291 0.249366 0.414816 0.228356
H20   H     H_    0.467469 0.160028 0.382592 0.236195
H21   H     H_    0.561189 0.268714 0.458952 0.249556
H22   H     H_    0.568465 0.098125 0.249073 0.222477
H23   H     H_    0.778422 0.136934 0.248836 0.188214
H24   H     H_    0.581515 0.149788 0.354391 0.239579
H25   H     H_    0.474831 0.060046 0.263668 0.247811
H26   H     H_    0.494907 0.973644 0.779370 0.263220
H27   H     H_    0.389676 0.893288 0.756858 0.210351
H28   H     H_    0.414074 0.882055 0.671482 0.229223
H29   H     H_    0.081434 0.135118 0.279361 0.244105
H30   H     H_    0.074931 0.054164 0.311224 0.251330
H31   H     H_    0.027919 0.120903 0.341585 0.265873
H32   H     H_    0.642372 0.762857 0.765463 0.179727
H33   H     H_    0.359913 0.624198 0.622746 0.166616
H34   H     H_    0.360813 0.736567 0.737700 0.178960
H35   H     H_    0.378524 0.071644 0.578142 0.175134
H36   H     H_    0.457302 0.009595 0.644131 0.172411
H37   H     H_    0.224247 0.253436 0.360335 0.159559
O1    O     O_R   0.091590 0.143330 0.551700 -0.623883
O2    O     O_R   0.551730 0.591680 0.643420 -0.616485
O3    O     O_R   0.356670 0.408480 0.448390 -0.626161
O4    O     O_R   0.091620 0.039900 0.448280 -0.596563
O5    O     O_R   0.460120 0.408460 0.551810 -0.626030
O6    O     O_R   0.448270 0.408490 0.356760 -0.561124
O7    O     O_R   0.551720 0.408480 0.460170 -0.631870
O8    O     O_R   0.539880 0.591710 0.448370 -0.601407
O9    O     O_R   0.643330 0.591700 0.551790 -0.624865
O10   O     O_R   0.091610 0.051730 0.643330 -0.589338
O11   O     O_R   0.091640 0.948310 0.539920 -0.591143
O12   O     O_R   0.551760 0.960180 0.908450 -0.588737
O13   O     O_R   0.908380 0.960100 0.551720 -0.618468
O14   O     O_R   0.908410 0.856670 0.448300 -0.575924
O15   O     O_R   0.908360 0.051690 0.460080 -0.597134
O16   O     O_R   0.908390 0.948270 0.356670 -0.642677
O17   O     O_R   0.448330 0.856720 0.908450 -0.636247
O18   O     O_R   0.356660 0.948290 0.908410 -0.561023
O19   O     O_R   0.460090 0.051750 0.908420 -0.629544
O20   O     O_R   0.448250 0.039900 0.091630 -0.599182
O21   O     O_R   0.551680 0.143360 0.091630 -0.633139
O22   O     O_R   0.539910 0.948330 0.091670 -0.638087
O23   O     O_R   0.643340 0.051790 0.091670 -0.601885
O24   O     O_R   0.448280 0.591700 0.540000 -0.626257
Zn1   Zn    Zn3+2 0.999980 0.069060 0.569050 1.043371
Zn2   Zn    Zn3+2 0.000020 0.930940 0.430950 1.038285
Zn3   Zn    Zn3+2 0.430940 0.930960 0.000040 1.014656
Zn4   Zn    Zn3+2 0.569060 0.069120 0.000040 0.999948
Zn5   Zn    Zn3+2 0.430920 0.500100 0.431040 1.015677
Zn6   Zn    Zn3+2 0.569080 0.500080 0.569140 0.970594

loop_
_geom_bond_atom_site_label_1
_geom_bond_atom_site_label_2
_ccdc_geom_bond_type
C29   O9    A    
C12   C40   A    
C8    C24   S    
O18   Zn3   S    
C41   C42   A    
C4    O10   A    
C10   F2    S    
C58   H30   S    
C12   C48   A    
C35   H34   S    
C25   O24   A    
C9    H23   S    
C18   C52   S    
C7    C8    A    
C39   C41   A    
C14   C50   S    
C13   F3    S    
C12   C23   A    
C37   C38   A    
O19   Zn4   S    
C53   H16   S    
C1    C5    S    
C3    H1    S    
C26   C61   S    
C55   H22   S    
C16   O13   A    
C50   H6    S    
C54   H19   S    
C22   O21   A    
C34   F1    S    
C48   C56   A    
C18   C19   A    
O22   Zn3   S    
O2    Zn6   S    
C1    O4    A    
O12   Zn4   S    
C35   C36   A    
O21   Zn4   S    
C27   C39   S    
C8    C9    A    
C57   H28   S    
O4    Zn2   S    
C24   O22   A    
O14   Zn2   S    
O9    Zn6   S    
C53   H18   S    
C9    C10   A    
C26   O5    A    
C20   O17   A    
C2    C61   A    
C55   H25   S    
C1    O1    A    
C37   C53   S    
C25   C32   S    
C27   O6    A    
C59   C60   A    
C40   F5    S    
C13   C14   A    
C17   C51   S    
O5    Zn6   S    
C58   H29   S    
O23   Zn4   S    
O16   Zn2   S    
O17   Zn3   S    
C20   O12   A    
C44   H35   S    
C44   C46   A    
C15   C29   S    
C5    C59   A    
C45   C56   A    
C54   H21   S    
C28   O15   A    
C16   O14   A    
C26   O3    A    
C6    C11   A    
C4    C23   S    
C13   C19   A    
C28   O16   A    
C22   O20   A    
C58   C59   S    
C46   H36   S    
C49   H4    S    
C60   C61   A    
C21   O18   A    
C52   H15   S    
C51   H9    S    
O3    Zn5   S    
C55   H24   S    
O13   Zn1   S    
C50   H8    S    
C42   C55   S    
C47   C57   S    
C47   C48   A    
C30   C31   A    
C23   C34   A    
C45   F7    S    
C17   C18   A    
C34   C45   A    
C31   H32   S    
C52   H14   S    
C27   O7    A    
C57   H26   S    
C57   H27   S    
O15   Zn1   S    
C37   C43   A    
C42   C43   A    
O7    Zn6   S    
C25   O2    A    
O1    Zn1   S    
C29   O8    A    
C46   C47   A    
C4    O11   A    
C31   C32   A    
C58   H31   S    
C3    C5    A    
C21   C56   S    
O6    Zn5   S    
C15   C17   A    
C6    C7    A    
C30   C36   A    
O8    Zn5   S    
C32   C33   A    
C33   H33   S    
C2    C3    A    
C51   H10   S    
C50   H7    S    
C54   H20   S    
O20   Zn3   S    
C38   C39   A    
O11   Zn2   S    
C11   C28   S    
C21   O19   A    
C16   C19   S    
C33   C35   A    
C49   H5    S    
C6    C49   S    
C52   H13   S    
C51   H11   S    
C41   C54   S    
C30   F4    S    
C10   C11   A    
O24   Zn5   S    
C20   C36   S    
C40   C44   A    
C38   F6    S    
C49   H3    S    
C24   O23   A    
C14   C15   A    
C53   H17   S    
C2    H2    S    
C22   C43   S    
C60   H37   S    
C7    H12   S    
O10   Zn1   S    
