data_mof_unit_9473.cif
_audit_creation_date              2012-12-10T16:32:43-0500
_audit_creation_method            fapswitch 2.2
_symmetry_space_group_name_H-M    P1
_symmetry_Int_Tables_number       1
_space_group_crystal_system       triclinic
_cell_length_a                    16.948398
_cell_length_b                    16.944833
_cell_length_c                    16.941325
_cell_angle_alpha                 65.7601
_cell_angle_beta                  65.755518
_cell_angle_gamma                 65.750823
_cell_volume                      3869.78198684

loop_
_atom_site_label
_atom_site_type_symbol
_atom_type_description
_atom_site_fract_x
_atom_site_fract_y
_atom_site_fract_z
_atom_type_partial_charge
C1    C     C_R   0.586126 0.041142 0.588128 0.012166
C2    C     C_R   0.821519 0.564046 0.033131 0.916589
C3    C     C_R   0.435475 0.968003 0.178436 0.916101
C4    C     C_R   0.563955 0.033332 0.821490 0.913440
C5    C     C_R   0.564539 0.821570 0.031972 0.916187
C6    C     C_R   0.436032 0.178504 0.966691 0.913372
C7    C     C_R   0.032020 0.564516 0.821558 0.918838
C8    C     C_R   0.966667 0.436046 0.178513 0.916830
C9    C     C_R   0.821525 0.031736 0.564533 0.907471
C10   C     C_R   0.178485 0.966865 0.435956 0.919978
C11   C     C_R   0.540572 0.021439 0.543183 0.149655
C12   C     C_R   0.411313 0.961607 0.412480 -0.028569
C13   C     C_R   0.455946 0.981428 0.458238 0.109436
C14   C     C_R   0.018583 0.544005 0.541799 0.110033
C15   C     C_R   0.978537 0.459464 0.456803 0.150391
C16   C     C_R   0.544042 0.541804 0.018540 0.108428
C17   C     C_R   0.459445 0.456773 0.978595 0.148921
C18   C     C_R   0.559627 0.931813 0.545366 -0.175893
C19   C     C_R   0.437084 0.071099 0.455812 -0.201145
C20   C     C_R   0.088164 0.482718 0.496608 -0.206452
C21   C     C_R   0.908926 0.520696 0.502063 -0.187409
C22   C     C_R   0.482665 0.496772 0.088162 -0.205386
C23   C     C_R   0.038431 0.588637 0.587534 -0.028512
C24   C     C_R   0.520768 0.501872 0.908945 -0.186496
C25   C     C_R   0.517416 0.911850 0.503193 -0.205732
C26   C     C_R   0.479157 0.091045 0.498159 -0.187285
C27   C     C_R   0.440470 0.454557 0.068233 -0.175541
C28   C     C_R   0.562826 0.544259 0.928858 -0.200063
C29   C     C_R   0.068183 0.440548 0.454407 -0.177431
C30   C     C_R   0.928892 0.562730 0.544435 -0.201742
C31   C     C_R   0.544224 0.046383 0.677111 0.043102
C32   C     C_R   0.453132 0.959171 0.322491 0.067085
C33   C     C_R   0.044124 0.677485 0.545227 0.066857
C34   C     C_R   0.958812 0.413918 0.411872 0.012354
C35   C     C_R   0.957859 0.323900 0.453586 0.061718
C36   C     C_R   0.677519 0.545260 0.044071 0.067411
C37   C     C_R   0.323857 0.453526 0.957983 0.061846
C38   C     C_R   0.322473 0.955917 0.454774 0.066972
C39   C     C_R   0.676147 0.042049 0.546436 0.061851
C40   C     C_R   0.455762 0.322842 0.953700 0.043194
C41   C     C_R   0.546889 0.677558 0.040737 0.067282
C42   C     C_R   0.953624 0.455804 0.322878 0.042651
C43   C     C_R   0.040864 0.546823 0.677518 0.067065
C44   C     C_R   0.595364 0.048597 0.724671 -0.059443
C45   C     C_R   0.588690 0.587569 0.038337 -0.028854
C46   C     C_R   0.403572 0.953940 0.275104 -0.063686
C47   C     C_R   0.047908 0.724817 0.595655 -0.063831
C48   C     C_R   0.954079 0.275260 0.403892 -0.102018
C49   C     C_R   0.724840 0.595682 0.047855 -0.063357
C50   C     C_R   0.275233 0.403852 0.954169 -0.100884
C51   C     C_R   0.275162 0.952131 0.404334 -0.064773
C52   C     C_R   0.724763 0.045864 0.596129 -0.102139
C53   C     C_R   0.404619 0.275306 0.951461 -0.060362
C54   C     C_R   0.596447 0.724919 0.046002 -0.063812
C55   C     C_R   0.951396 0.404650 0.275329 -0.060857
C56   C     C_R   0.413874 0.411821 0.958919 0.012115
C57   C     C_R   0.046099 0.596403 0.724892 -0.064977
C58   C     C_R   0.682249 0.053667 0.682179 -0.338974
C59   C     C_R   0.317737 0.945897 0.317843 -0.357104
C60   C     C_R   0.054151 0.682248 0.682141 -0.358783
C61   C     C_R   0.946302 0.317760 0.317834 -0.338997
C62   C     C_R   0.682276 0.682167 0.054070 -0.357096
C63   C     C_R   0.317736 0.317808 0.946382 -0.337261
C64   C     C_R   0.968238 0.178481 0.435482 0.907396
C65   C     C_R   0.033148 0.821509 0.564035 0.920029
C66   C     C_R   0.178470 0.435461 0.968279 0.904743
H1    H     H_    0.464118 0.160455 0.495755 0.130265
H2    H     H_    0.467515 0.494534 0.157554 0.133475
H3    H     H_    0.839503 0.535619 0.504630 0.130150
H4    H     H_    0.157561 0.467622 0.494236 0.132693
H5    H     H_    0.411690 0.102129 0.681546 0.176299
H6    H     H_    0.444850 0.987375 0.721082 0.189132
H7    H     H_    0.547067 0.024840 0.278817 0.194251
H8    H     H_    0.586291 0.910226 0.315684 0.182027
H9    H     H_    0.098690 0.679777 0.413172 0.181265
H10   H     H_    0.984392 0.723631 0.445943 0.187477
H11   H     H_    0.023855 0.234626 0.547640 0.209527
H12   H     H_    0.532629 0.842468 0.505399 0.133184
H13   H     H_    0.907649 0.257569 0.585981 0.202687
H14   H     H_    0.679787 0.413245 0.098731 0.181251
H15   H     H_    0.723663 0.445923 0.984397 0.189888
H16   H     H_    0.234561 0.547554 0.024016 0.210083
H17   H     H_    0.257543 0.585909 0.907765 0.203022
H18   H     H_    0.320177 0.901331 0.586825 0.181886
H19   H     H_    0.276296 0.015645 0.554085 0.187496
H20   H     H_    0.765452 0.975980 0.452432 0.209453
H21   H     H_    0.742485 0.092209 0.414031 0.202956
H22   H     H_    0.588298 0.318381 0.897989 0.176822
H23   H     H_    0.874548 0.609838 0.579438 0.134707
H24   H     H_    0.555114 0.278855 0.012760 0.189174
H25   H     H_    0.453000 0.721246 0.974987 0.194196
H26   H     H_    0.413726 0.684407 0.089615 0.182377
H27   H     H_    0.897974 0.588369 0.318437 0.176992
H28   H     H_    0.012703 0.555139 0.278868 0.186744
H29   H     H_    0.975194 0.452874 0.721235 0.193726
H30   H     H_    0.089783 0.413645 0.684297 0.182145
H31   H     H_    0.719709 0.056353 0.719343 0.197611
H32   H     H_    0.280847 0.942205 0.280737 0.200001
H33   H     H_    0.057847 0.719151 0.719241 0.198956
H34   H     H_    0.122506 0.393186 0.419698 0.130359
H35   H     H_    0.943623 0.280285 0.280671 0.197529
H36   H     H_    0.719166 0.719255 0.057774 0.200087
H37   H     H_    0.280273 0.280659 0.943690 0.198625
H38   H     H_    0.609997 0.579136 0.874475 0.136091
H39   H     H_    0.393044 0.419977 0.122593 0.131454
H40   H     H_    0.389844 0.125446 0.420987 0.134867
H41   H     H_    0.607124 0.877488 0.579894 0.131069
H42   H     H_    0.535744 0.504307 0.839525 0.131083
N1    N     N_3   0.451268 0.046697 0.719844 -0.426152
N2    N     N_3   0.455619 0.721245 0.035582 -0.423700
N3    N     N_3   0.953364 0.548761 0.280129 -0.427450
N4    N     N_3   0.035771 0.455521 0.721188 -0.424256
N5    N     N_3   0.544418 0.964269 0.278823 -0.423820
N6    N     N_3   0.044831 0.719846 0.452099 -0.427599
N7    N     N_3   0.961961 0.284321 0.545345 -0.456120
N8    N     N_3   0.719864 0.452127 0.044844 -0.426436
N9    N     N_3   0.284268 0.545262 0.962113 -0.455758
N10   N     N_3   0.280108 0.955192 0.547909 -0.427679
N11   N     N_3   0.715751 0.037884 0.454695 -0.455954
N12   N     N_3   0.548711 0.280096 0.953417 -0.426236
O1    O     O_R   0.982940 0.138950 0.510160 -0.650728
O2    O     O_R   0.982940 0.510160 0.138950 -0.604489
O3    O     O_R   0.861050 0.017060 0.489840 -0.650729
O4    O     O_R   0.138950 0.982940 0.510160 -0.606200
O5    O     O_R   0.867700 0.025880 0.612340 -0.628701
O6    O     O_R   0.132300 0.974120 0.387660 -0.635744
O7    O     O_R   0.025880 0.612340 0.867700 -0.640167
O8    O     O_R   0.974120 0.387660 0.132300 -0.639155
O9    O     O_R   0.612340 0.867700 0.025880 -0.638660
O10   O     O_R   0.387660 0.132300 0.974120 -0.640015
O11   O     O_R   0.387660 0.974120 0.132300 -0.638650
O12   O     O_R   0.017060 0.861050 0.489840 -0.606043
O13   O     O_R   0.612340 0.025880 0.867700 -0.640395
O14   O     O_R   0.132300 0.387660 0.974120 -0.627149
O15   O     O_R   0.867700 0.612340 0.025880 -0.636966
O16   O     O_R   0.974120 0.132300 0.387660 -0.628679
O17   O     O_R   0.025880 0.867700 0.612340 -0.636116
O18   O     O_R   0.138950 0.510160 0.982940 -0.652005
O19   O     O_R   0.861050 0.489840 0.017060 -0.605425
O20   O     O_R   0.510160 0.982940 0.138950 -0.604558
O21   O     O_R   0.489840 0.017060 0.861050 -0.603675
O22   O     O_R   0.489840 0.861050 0.017060 -0.604530
O23   O     O_R   0.510160 0.138950 0.982940 -0.603837
O24   O     O_R   0.017060 0.489840 0.861050 -0.603367
Zn1   Zn    Zn3+2 0.004880 0.004880 0.583590 0.943014
Zn2   Zn    Zn3+2 0.995120 0.995120 0.416410 0.943747
Zn3   Zn    Zn3+2 0.004880 0.583590 0.004880 0.942693
Zn4   Zn    Zn3+2 0.995120 0.416410 0.995120 0.966406
Zn5   Zn    Zn3+2 0.583590 0.004880 0.004880 0.965407
Zn6   Zn    Zn3+2 0.416410 0.995120 0.995120 0.966149

loop_
_geom_bond_atom_site_label_1
_geom_bond_atom_site_label_2
_ccdc_geom_bond_type
C16   C28   A    
C64   O16   A    
C11   C18   A    
H13   N7    S    
C46   C59   A    
C34   C42   A    
C58   H31   S    
C6    O10   A    
C60   H33   S    
C20   H4    S    
O6    Zn2   S    
C23   C43   A    
O9    Zn5   S    
C18   C25   A    
C33   N6    S    
C3    O11   A    
C2    O19   A    
H25   N2    S    
O17   Zn1   S    
C10   O4    A    
H29   N4    S    
C48   C64   S    
C10   C51   S    
C64   O1    A    
H5    N1    S    
H28   N3    S    
C1    C31   A    
H7    N5    S    
C34   C35   A    
C19   C26   A    
C18   H41   S    
C47   C60   A    
C66   O14   A    
C37   C56   A    
C8    O8    A    
H14   N8    S    
C44   C58   A    
C23   C33   A    
C1    C11   S    
O10   Zn6   S    
H10   N6    S    
C35   N7    S    
H20   N11   S    
C24   H42   S    
C32   N5    S    
H22   N12   S    
C15   C34   S    
O24   Zn4   S    
C65   O17   A    
C5    O9    A    
C39   C52   A    
C12   C32   A    
C50   C63   A    
C13   C25   A    
C9    C52   S    
C14   C30   A    
C30   H23   S    
C35   C48   A    
C8    C55   S    
C7    O24   A    
O21   Zn6   S    
C15   C29   A    
C20   C29   A    
O19   Zn4   S    
C17   C24   A    
C31   C44   A    
C13   C19   A    
C25   H12   S    
C17   C27   A    
C14   C20   A    
C5    C54   S    
O13   Zn5   S    
C63   H37   S    
C4    O21   A    
C1    C39   A    
O8    Zn4   S    
C57   C60   A    
C38   C51   A    
C4    C44   S    
C11   C26   A    
C40   C56   A    
H8    N5    S    
C9    O5    A    
C21   H3    S    
H24   N12   S    
C14   C23   S    
C61   H35   S    
C42   N3    S    
H21   N11   S    
C2    C49   S    
C42   C55   A    
H30   N4    S    
C28   H38   S    
C66   O18   A    
O3    Zn2   S    
O23   Zn5   S    
O18   Zn3   S    
C31   N1    S    
C36   C45   A    
H9    N6    S    
O2    Zn3   S    
C50   C66   S    
C17   C56   S    
C22   H2    S    
C52   C58   A    
H27   N3    S    
C27   H39   S    
H17   N9    S    
C40   N12   S    
O15   Zn3   S    
C22   C27   A    
C33   C47   A    
O1    Zn1   S    
C51   C59   A    
C43   N4    S    
C26   H1    S    
C6    C53   S    
C36   N8    S    
C65   O12   A    
O14   Zn4   S    
O4    Zn1   S    
C10   O6    A    
H6    N1    S    
C16   C22   A    
C49   C62   A    
C29   H34   S    
C32   C46   A    
C24   C28   A    
C16   C45   S    
C54   C62   A    
C21   C30   A    
C3    C46   S    
C2    O15   A    
C41   N2    S    
O12   Zn2   S    
O22   Zn6   S    
H26   N2    S    
O5    Zn1   S    
C37   C50   A    
C53   C63   A    
C8    O2    A    
C5    O22   A    
C39   N11   S    
C55   C61   A    
H15   N8    S    
C9    O3    A    
C47   C65   S    
C12   C38   A    
H19   N10   S    
C41   C54   A    
C43   C57   A    
C38   N10   S    
C19   H40   S    
C15   C21   A    
C37   N9    S    
C12   C13   S    
H18   N10   S    
C40   C53   A    
C48   C61   A    
C59   H32   S    
C41   C45   A    
O11   Zn6   S    
C3    O20   A    
H16   N9    S    
C7    O7    A    
C6    O23   A    
H11   N7    S    
O20   Zn5   S    
C7    C57   S    
O16   Zn2   S    
C36   C49   A    
O7    Zn3   S    
C4    O13   A    
C62   H36   S    
