data_mof_unit_54537.cif
_audit_creation_date              2013-03-05T16:31:36-0500
_audit_creation_method            fapswitch 2.2
_symmetry_space_group_name_H-M    P1
_symmetry_Int_Tables_number       1
_space_group_crystal_system       triclinic
_cell_length_a                    9.595652
_cell_length_b                    10.778506
_cell_length_c                    15.943662
_cell_angle_alpha                 89.574862
_cell_angle_beta                  72.679573
_cell_angle_gamma                 89.91028
_cell_volume                      1574.18367976

loop_
_atom_site_label
_atom_site_type_symbol
_atom_site_description
_atom_site_fract_x
_atom_site_fract_y
_atom_site_fract_z
_atom_type_partial_charge
O1    O     O_R   0.118810 0.319640 0.500000 -0.622217
O2    O     O_R   0.881230 0.319680 0.499990 -0.563795
C1    C     C_R   0.002173 0.262709 0.496046 0.812746
O3    O     O_R   0.055580 0.499970 0.629840 -0.557387
O4    O     O_R   0.818000 0.500010 0.629830 -0.564045
C2    C     C_R   0.916775 0.497633 0.671533 0.882727
Cu1   Cu    Cu3+1 0.140670 0.499980 0.500000 0.971696
Cu2   Cu    Cu3+1 0.859330 0.500020 0.500000 1.012592
O5    O     O_R   0.118770 0.680320 0.500010 -0.589805
O6    O     O_R   0.881190 0.680360 0.500000 -0.597643
O7    O     O_R   0.182000 0.499990 0.370170 -0.543939
O8    O     O_R   0.944420 0.500030 0.370160 -0.513398
C3    C     C_R   0.000673 0.737356 0.498884 0.842902
C4    C     C_R   0.084915 0.493590 0.328606 0.867793
C5    C     C_R   0.872661 0.495002 0.768947 -0.313703
C6    C     C_R   0.142054 0.466837 0.233092 -0.256708
C7    C     C_R   0.933962 0.545363 0.902142 0.298868
C8    C     C_R   0.979236 0.506933 0.814126 0.361690
C9    C     C_R   0.724363 0.485258 0.818613 0.327626
C10   C     C_R   0.686875 0.481878 0.911027 -0.065251
C11   C     C_R   0.786252 0.532361 0.951369 -0.128273
C12   C     C_R   0.549850 0.438639 0.964108 0.125265
C13   C     C_R   0.497738 0.475490 0.053053 0.052276
C14   C     C_R   0.589861 0.548329 0.087436 -0.163955
C15   C     C_R   0.735035 0.567699 0.039605 -0.075433
C16   C     C_R   0.469066 0.351458 0.932627 -0.159567
C17   C     C_R   0.328323 0.319380 0.982399 -0.162936
C18   C     C_R   0.264533 0.376294 0.062484 0.072183
C19   C     C_R   0.353356 0.441453 0.102963 -0.029249
C20   C     C_R   0.113762 0.368904 0.102615 -0.200700
C21   C     C_R   0.050213 0.426727 0.183413 0.333720
C22   C     C_R   0.296519 0.460753 0.193751 0.337075
H1    H     H_    0.805165 0.613254 0.071845 0.221526
H2    H     H_    0.268214 0.250575 0.958763 0.149674
H3    H     H_    0.553576 0.589276 0.151769 0.211698
H4    H     H_    0.515037 0.306687 0.869908 0.181488
H5    H     H_    0.044818 0.326667 0.067825 0.183978
C23   C     C_R   0.106537 0.063917 0.519465 0.024424
C24   C     C_R   0.010524 0.129563 0.485158 -0.164053
C25   C     C_R   0.927884 0.063736 0.439617 0.321743
C26   C     C_R   0.925842 0.933593 0.443966 -0.267819
H6    H     H_    0.862402 0.881983 0.410231 0.185016
C27   C     C_R   0.006630 0.870432 0.491083 -0.096909
C28   C     C_R   0.104670 0.936646 0.522552 -0.000451
C29   C     C_3   0.132641 0.934176 0.610243 0.203898
C30   C     C_3   0.135235 0.075399 0.606085 -0.515980
H7    H     H_    0.239513 0.892335 0.608366 0.091202
H8    H     H_    0.044326 0.121571 0.656193 0.213568
H9    H     H_    0.245199 0.114939 0.598394 0.167437
C31   C     C_R   0.568909 0.608065 0.508620 0.205444
N1    N     N_R   0.648210 0.500930 0.499430 -0.183987
C32   C     C_R   0.575750 0.392253 0.496705 -0.000547
H10   H     H_    0.631407 0.304499 0.492962 0.179779
C33   C     C_R   0.427880 0.392232 0.496575 -0.119361
H11   H     H_    0.376215 0.304491 0.492643 0.150714
N2    N     N_R   0.352300 0.500890 0.499430 -0.183508
C34   C     C_R   0.422103 0.608079 0.507963 0.277758
C35   C     C_3   0.447847 0.715783 0.445958 -0.462359
C36   C     C_3   0.604424 0.717386 0.448210 -0.455617
H12   H     H_    0.436876 0.690683 0.380664 0.235839
H13   H     H_    0.385983 0.799506 0.475840 0.186020
H14   H     H_    0.685200 0.695788 0.383913 0.252575
H15   H     H_    0.629544 0.800632 0.481757 0.202533
N3    N     N_R   0.848209 0.126116 0.388505 0.121769
O9    O     O_R   0.906831 0.219590 0.338477 -0.356884
O10   O     O_R   0.729070 0.077394 0.380223 -0.396375
N4    N     N_R   0.010079 0.884132 0.680900 0.136160
O11   O     O_R   0.034098 0.799561 0.733524 -0.352504
O12   O     O_R   0.877110 0.922371 0.691689 -0.385276
O13   O     O_3   0.389386 0.459408 0.246092 -0.602398
C37   C     C_3   0.453964 0.340550 0.246362 0.141158
H16   H     H_    0.526841 0.347532 0.288737 0.227838
H17   H     H_    0.524550 0.314701 0.179909 0.164447
C38   C     C_3   0.341496 0.237194 0.283879 -0.449570
H18   H     H_    0.263706 0.268097 0.346254 0.254586
H19   H     H_    0.279314 0.216460 0.236927 0.222845
C39   C     C_3   0.414795 0.118252 0.301442 -0.798225
H20   H     H_    0.495553 0.085524 0.240103 0.274615
H21   H     H_    0.330975 0.044953 0.325927 0.248652
H22   H     H_    0.470523 0.134631 0.352231 0.282785
N5    N     N_R   0.894284 0.438951 0.214453 0.161012
O14   O     O_R   0.812065 0.351784 0.198664 -0.367373
O15   O     O_R   0.836624 0.547035 0.239061 -0.383794
N6    N     N_R   0.037811 0.597352 0.940540 0.138513
O16   O     O_R   0.153253 0.535059 0.941179 -0.404201
O17   O     O_R   0.025006 0.712122 0.966401 -0.349523
O18   O     O_3   0.127576 0.498216 0.771078 -0.558169
C40   C     C_3   0.165184 0.374490 0.742379 0.100709
H23   H     H_    0.252947 0.379270 0.678691 0.181147
H24   H     H_    0.073937 0.319665 0.731136 0.109556
C41   C     C_3   0.223824 0.305501 0.807511 -0.377938
H25   H     H_    0.316295 0.359931 0.815944 0.264556
H26   H     H_    0.135055 0.298453 0.870651 0.227854
C42   C     C_3   0.277141 0.175580 0.775939 -0.915167
H27   H     H_    0.184391 0.117503 0.771271 0.279822
H28   H     H_    0.325999 0.130723 0.823411 0.263995
H29   H     H_    0.361824 0.180441 0.710986 0.254930
O19   O     O_3   0.614768 0.491268 0.778334 -0.600185
C43   C     C_3   0.586850 0.617368 0.761707 0.060557
H30   H     H_    0.589977 0.626037 0.691717 0.181365
H31   H     H_    0.668498 0.685021 0.771946 0.168868
C44   C     C_3   0.434579 0.654482 0.817898 -0.307217
H32   H     H_    0.354659 0.589925 0.804093 0.292810
H33   H     H_    0.427794 0.647523 0.888562 0.250243
C45   C     C_3   0.396865 0.786544 0.796992 -0.794474
H34   H     H_    0.475134 0.853665 0.810486 0.250578
H35   H     H_    0.285182 0.810190 0.838656 0.307945
H36   H     H_    0.399976 0.794624 0.726927 0.243080

loop_
_geom_bond_atom_site_label_1
_geom_bond_atom_site_label_2
_geom_bond_distance
_ccdc_geom_bond_type
C5    C8    1.421842 A    
O18   C40   1.423824 S    
C26   H6    1.081559 S    
C9    C10   1.409011 A    
C3    C27   1.438578 S    
N5    O14   1.301007 A    
Cu1   Cu2   2.699639 S    
C39   H20   1.111034 S    
C28   C29   1.500110 S    
C6    C21   1.418734 A    
Cu1   O7    1.988276 S    
C45   H35   1.110167 S    
C30   H9    1.110704 S    
C16   C17   1.390114 A    
C38   H19   1.111399 S    
C31   C36   1.490372 S    
C13   C19   1.424102 A    
C18   C19   1.404402 A    
N6    O17   1.300898 A    
C19   C22   1.403567 A    
O4    C2    1.309964 A    
O7    C4    1.296238 A    
C35   H12   1.112445 S    
N2    C34   1.364170 A    
C44   C45   1.526895 S    
O5    C3    1.293134 A    
C2    C5    1.483277 S    
C38   C39   1.525056 S    
C29   N4    1.465344 S    
C13   C14   1.412589 A    
O13   C37   1.422769 S    
C42   H28   1.109761 S    
C35   H13   1.109065 S    
C39   H21   1.110828 S    
C1    C24   1.446083 S    
C26   C27   1.402229 A    
C44   H32   1.106880 S    
Cu1   N2    2.028080 S    
O3    Cu1   1.986367 S    
N5    O15   1.301053 A    
C9    O19   1.387034 S    
C32   C33   1.419526 A    
C31   N1    1.366506 A    
C33   N2    1.370455 A    
C29   H7    1.111951 S    
C17   H2    1.076853 S    
C23   C24   1.393167 A    
C45   H36   1.111343 S    
C30   H8    1.111963 S    
C14   H3    1.077819 S    
C38   H18   1.104209 S    
N1    C32   1.370679 A    
C14   C15   1.389863 A    
O3    C2    1.299700 A    
C41   H25   1.106092 S    
C37   H17   1.111509 S    
C22   O13   1.390430 S    
C42   H29   1.110739 S    
C35   C36   1.513660 S    
C29   C30   1.523040 S    
C7    C11   1.407556 A    
N4    O11   1.300432 A    
C20   H5    1.084324 S    
N4    O12   1.302373 A    
N3    O10   1.301139 A    
C5    C9    1.411154 A    
C27   C28   1.390894 A    
C23   C28   1.372264 A    
C41   H26   1.110508 S    
C43   H30   1.110579 S    
C40   C41   1.510974 S    
Cu2   O8    1.986367 S    
C10   C11   1.411088 A    
C7    C8    1.405199 A    
N6    O16   1.297027 A    
C44   H33   1.110980 S    
Cu2   N1    2.028568 S    
C16   H4    1.082249 S    
C25   C26   1.403824 A    
C43   H31   1.118886 S    
C40   H24   1.115622 S    
C4    C6    1.487183 S    
O4    Cu2   1.988272 S    
C24   C25   1.418328 A    
C32   H10   1.078750 S    
C39   H22   1.110440 S    
Cu1   O5    1.954791 S    
C11   C15   1.400492 A    
C33   H11   1.079326 S    
C36   H14   1.111631 S    
O1    Cu1   1.955408 S    
C31   C34   1.411847 A    
O2    Cu2   1.954790 S    
C10   C12   1.412707 A    
O6    C3    1.296971 A    
C25   N3    1.435930 S    
C37   C38   1.540464 S    
C6    C22   1.428758 A    
C45   H34   1.110846 S    
C36   H15   1.110777 S    
C8    O18   1.387390 S    
C21   N5    1.435430 S    
C7    N6    1.432446 S    
N3    O9    1.300163 A    
C18   C20   1.399017 A    
O2    C1    1.297207 A    
O8    C4    1.315218 A    
C37   H16   1.110575 S    
C41   C42   1.526764 S    
C34   C35   1.491458 S    
C20   C21   1.400992 A    
C42   H27   1.109674 S    
C23   C30   1.492494 S    
C43   C44   1.523697 S    
C40   H23   1.110468 S    
Cu2   O6    1.955408 S    
O19   C43   1.423091 S    
C12   C16   1.405975 A    
C17   C18   1.387953 A    
C12   C13   1.415748 A    
O1    C1    1.295332 A    
C15   H1    1.081156 S    
