data_mof_unit_21149.cif
_audit_creation_date              2012-12-10T19:00:42-0500
_audit_creation_method            fapswitch 2.2
_symmetry_space_group_name_H-M    P1
_symmetry_Int_Tables_number       1
_space_group_crystal_system       triclinic
_cell_length_a                    15.092136
_cell_length_b                    10.859106
_cell_length_c                    9.529394
_cell_angle_alpha                 89.601169
_cell_angle_beta                  89.985475
_cell_angle_gamma                 90.389064
_cell_volume                      1561.67087887

loop_
_atom_site_label
_atom_site_type_symbol
_atom_type_description
_atom_site_fract_x
_atom_site_fract_y
_atom_site_fract_z
_atom_type_partial_charge
C1    C     C_R   0.499744 0.262530 0.500283 0.813693
C2    C     C_R   0.907410 0.493894 0.371554 0.109532
C3    C     C_R   0.953961 0.495227 0.755749 -0.207181
C4    C     C_R   0.046345 0.496246 0.755796 -0.204497
C5    C     C_R   0.093042 0.496696 0.628587 0.108174
C6    C     C_R   0.046680 0.495775 0.500021 0.062554
C7    C     C_R   0.093092 0.495940 0.371456 0.105884
C8    C     C_R   0.046443 0.494671 0.244255 -0.202223
C9    C     C_R   0.954057 0.493552 0.244303 -0.206729
C10   C     C_R   0.185360 0.498078 0.627684 -0.242712
C11   C     C_R   0.231748 0.498540 0.500021 -0.073223
C12   C     C_R   0.328585 0.499650 0.500018 0.817368
C13   C     C_R   0.185411 0.497388 0.372357 -0.229920
C14   C     C_R   0.525861 0.062217 0.617275 0.115885
C15   C     C_R   0.502016 0.129648 0.498547 -0.129694
C16   C     C_R   0.481807 0.067366 0.374240 -0.229584
C17   C     C_R   0.477106 0.939444 0.371928 0.147771
C18   C     C_R   0.497135 0.871382 0.495599 -0.146876
C19   C     C_R   0.523917 0.935149 0.615627 0.067961
C20   C     C_3   0.486783 0.928469 0.761190 -0.408460
C21   C     C_3   0.489236 0.067984 0.762538 -0.442371
C22   C     C_R   0.537163 0.595736 0.072796 0.326406
C23   C     C_R   0.496765 0.737710 0.498978 0.831967
C24   C     C_R   0.455230 0.412343 0.075204 -0.078103
C25   C     C_R   0.455250 0.412309 0.926187 -0.083449
C26   C     C_R   0.537253 0.595724 0.925408 0.277102
C27   C     C_3   0.631604 0.636935 0.919837 -0.520585
C28   C     C_3   0.631017 0.638356 0.078893 -0.508888
C29   C     C_R   0.671513 0.498684 0.499989 0.816644
C30   C     C_R   0.815094 0.493784 0.372559 -0.240167
C31   C     C_R   0.768545 0.495816 0.499995 -0.074375
C32   C     C_R   0.815058 0.494748 0.627463 -0.241058
C33   C     C_R   0.907366 0.494776 0.628485 0.109447
C34   C     C_R   0.953795 0.494839 0.500019 0.062140
Cu1   Cu    Cu3+1 0.500000 0.499980 0.640670 0.946211
Cu2   Cu    Cu3+1 0.500000 0.500020 0.359330 0.963518
H1    H     H_    0.779814 0.491918 0.273921 0.145244
H2    H     H_    0.418466 0.889470 0.764500 0.212914
H3    H     H_    0.533703 0.886731 0.837193 0.203178
H4    H     H_    0.422308 0.110078 0.766403 0.196977
H5    H     H_    0.537989 0.106187 0.838359 0.202046
H6    H     H_    0.420341 0.340149 0.131644 0.141821
H7    H     H_    0.420379 0.340138 0.870878 0.139721
H8    H     H_    0.675881 0.565366 0.877213 0.209844
H9    H     H_    0.639825 0.729747 0.871865 0.198618
H10   H     H_    0.675619 0.568531 0.125299 0.205604
H11   H     H_    0.779751 0.493739 0.726127 0.145361
H12   H     H_    0.637335 0.732373 0.123341 0.215296
H13   H     H_    0.918971 0.495154 0.855083 0.137262
H14   H     H_    0.081248 0.496835 0.855167 0.138848
H15   H     H_    0.220945 0.498777 0.726519 0.158644
H16   H     H_    0.221036 0.497548 0.273520 0.161365
H17   H     H_    0.081387 0.494670 0.144887 0.138914
H18   H     H_    0.919107 0.492811 0.144968 0.137131
H19   H     H_    0.463983 0.118174 0.280274 0.180742
N1    N     N_R   0.500570 0.500930 0.147930 -0.189424
N2    N     N_R   0.500570 0.500890 0.852020 -0.191402
O1    O     O_R   0.500000 0.319640 0.618810 -0.585786
O2    O     O_R   0.500010 0.319680 0.381230 -0.592789
O3    O     O_R   0.370250 0.499950 0.618800 -0.590255
O4    O     O_R   0.370260 0.499990 0.381220 -0.578777
O5    O     O_R   0.499990 0.680320 0.618770 -0.582844
O6    O     O_R   0.500000 0.680360 0.381190 -0.551137
O7    O     O_R   0.629740 0.500010 0.618780 -0.586969
O8    O     O_R   0.629750 0.500050 0.381200 -0.588526
I1    I     I_    0.425042 0.865872 0.181969 -0.443780

loop_
_geom_bond_atom_site_label_1
_geom_bond_atom_site_label_2
_ccdc_geom_bond_type
C8    H17   S    
C11   C12   S    
C6    C7    A    
C1    C15   S    
C24   N1    A    
Cu2   O6    S    
C24   H6    S    
C19   C20   S    
Cu1   N2    S    
C30   C31   A    
C2    C30   A    
Cu2   O2    S    
C32   C33   A    
C27   H9    S    
C23   O6    A    
C17   C18   A    
C3    H13   S    
C16   H19   S    
C5    C10   A    
C29   C31   S    
C22   C28   S    
C1    O1    A    
C24   C25   A    
C12   O4    A    
C11   C13   A    
C28   H10   S    
C26   C27   S    
Cu1   O7    S    
C21   H4    S    
C25   N2    A    
Cu1   O1    S    
C29   O8    A    
C10   H15   S    
C14   C19   A    
C14   C21   S    
C25   H7    S    
C32   H11   S    
C33   C34   A    
Cu1   O5    S    
C1    O2    A    
Cu2   O4    S    
C17   I1    S    
C5    C6    A    
C26   N2    A    
C21   H5    S    
C29   O7    A    
C7    C8    A    
C10   C11   A    
C3    C33   A    
C18   C23   S    
C13   H16   S    
C6    C34   A    
C7    C13   A    
C20   H2    S    
C20   C21   S    
C30   H1    S    
C18   C19   A    
C22   C26   A    
Cu2   N1    S    
C27   C28   S    
C20   H3    S    
Cu2   O8    S    
Cu1   O3    S    
C22   N1    A    
C9    H18   S    
C23   O5    A    
C2    C34   A    
C14   C15   A    
C2    C9    A    
C4    C5    A    
C27   H8    S    
C31   C32   A    
C28   H12   S    
C3    C4    A    
C15   C16   A    
C16   C17   A    
C4    H14   S    
C8    C9    A    
Cu1   Cu2   S    
C12   O3    A    
