data_mof_unit_45899.cif
_audit_creation_date              2012-12-10T20:32:45-0500
_audit_creation_method            fapswitch 2.2
_symmetry_space_group_name_H-M    P1
_symmetry_Int_Tables_number       1
_space_group_crystal_system       triclinic
_cell_length_a                    11.528297
_cell_length_b                    10.700759
_cell_length_c                    9.8675
_cell_angle_alpha                 89.935898
_cell_angle_beta                  90.210625
_cell_angle_gamma                 89.809393
_cell_volume                      1217.25413709

loop_
_atom_site_label
_atom_site_type_symbol
_atom_type_description
_atom_site_fract_x
_atom_site_fract_y
_atom_site_fract_z
_atom_type_partial_charge
C1    C     C_R   0.505787 0.260693 0.500228 0.960499
C2    C     C_R   0.570429 0.420218 0.072365 -0.129821
C3    C     C_R   0.570516 0.420241 0.928386 -0.140611
C4    C     C_R   0.281909 0.500553 0.499767 0.918696
C5    C     C_R   0.435751 0.584238 0.928337 0.216182
C6    C     C_3   0.307182 0.599088 0.922430 -0.505557
C7    C     C_3   0.307457 0.599773 0.076189 -0.522883
C8    C     C_R   0.502732 0.739412 0.499766 0.915258
C9    C     C_R   0.718095 0.501060 0.500220 0.854677
C10   C     C_1   0.161502 0.501909 0.499217 -0.199183
C11   C     C_1   0.059311 0.502625 0.499283 -0.022311
C12   C     C_R   0.520128 0.129730 0.502029 -0.290759
C13   C     C_1   0.940707 0.502641 0.499938 -0.011081
C14   C     C_1   0.838529 0.502061 0.500428 -0.201406
C15   C     C_R   0.471851 0.062723 0.606935 -0.059027
C16   C     C_3   0.747112 0.169889 0.350898 0.109641
C17   C     C_3   0.835507 0.179584 0.237292 -0.816185
C18   C     C_3   0.738429 0.824815 0.333234 0.138503
C19   C     C_3   0.791659 0.748636 0.219120 -0.778470
C20   C     C_3   0.231950 0.877071 0.578578 0.216731
C21   C     C_3   0.102139 0.852274 0.580189 -0.865301
C22   C     C_3   0.238663 0.177286 0.818642 0.153946
C23   C     C_R   0.580275 0.064774 0.398603 0.374359
C24   C     C_3   0.121745 0.235762 0.784711 -0.825095
C25   C     C_R   0.577474 0.933640 0.397398 0.387426
C26   C     C_R   0.514464 0.870364 0.499658 -0.295843
C27   C     C_R   0.465441 0.938493 0.603431 -0.169670
C28   C     C_3   0.388789 0.932504 0.726802 0.288765
C29   C     C_3   0.397947 0.076786 0.729824 0.316991
C30   C     C_R   0.435923 0.584373 0.070890 0.251998
H1    H     H_    0.281751 0.691389 0.119990 0.206883
H2    H     H_    0.849986 0.086224 0.191172 0.254858
H3    H     H_    0.262991 0.516147 0.878552 0.219899
H4    H     H_    0.263124 0.517412 0.120904 0.221859
H5    H     H_    0.731472 0.763722 0.424117 0.112879
H6    H     H_    0.798093 0.903116 0.356912 0.124598
H7    H     H_    0.804874 0.808839 0.128762 0.244594
H8    H     H_    0.876765 0.710073 0.252119 0.199361
H9    H     H_    0.733442 0.670164 0.191369 0.270012
H10   H     H_    0.274738 0.796239 0.528967 0.117055
H11   H     H_    0.246917 0.963628 0.518665 0.175872
H12   H     H_    0.433601 0.887373 0.814062 0.075527
H13   H     H_    0.055873 0.932300 0.627294 0.257253
H14   H     H_    0.069717 0.839814 0.474945 0.201434
H15   H     H_    0.083811 0.766083 0.639071 0.261829
H16   H     H_    0.292154 0.248586 0.872043 0.131311
H17   H     H_    0.223852 0.096022 0.887098 0.152732
H18   H     H_    0.066386 0.167230 0.730416 0.254011
H19   H     H_    0.077472 0.264784 0.879407 0.202178
H20   H     H_    0.134118 0.319247 0.719631 0.260324
H21   H     H_    0.625317 0.355460 0.127091 0.181515
H22   H     H_    0.448756 0.115710 0.816475 0.025789
H23   H     H_    0.625796 0.355503 0.874399 0.149822
H24   H     H_    0.280740 0.690071 0.877637 0.243977
H25   H     H_    0.784522 0.107762 0.430946 0.089978
H26   H     H_    0.734717 0.263741 0.395511 0.147437
H27   H     H_    0.804360 0.245179 0.157880 0.243302
H28   H     H_    0.919107 0.214594 0.278401 0.209128
N1    N     N_R   0.499240 0.499140 0.142800 -0.113364
N2    N     N_R   0.499240 0.499180 0.857150 -0.109545
O1    O     O_R   0.500010 0.316790 0.614690 -0.617194
O2    O     O_3   0.628808 0.870042 0.291083 -0.564468
O3    O     O_3   0.272073 0.889366 0.713534 -0.603283
O4    O     O_3   0.293224 0.139331 0.697716 -0.574897
O5    O     O_R   0.500000 0.316760 0.385350 -0.589066
O6    O     O_R   0.334450 0.500030 0.614670 -0.606855
O7    O     O_R   0.334440 0.500000 0.385330 -0.623980
O8    O     O_R   0.500000 0.683240 0.614650 -0.618374
O9    O     O_R   0.499990 0.683210 0.385310 -0.580007
O10   O     O_R   0.665560 0.500000 0.614670 -0.617634
O11   O     O_R   0.665550 0.499970 0.385330 -0.624107
O12   O     O_3   0.640421 0.126472 0.297627 -0.575545
Zn1   Zn    Zn3+2 0.500010 0.500020 0.653130 0.949234
Zn2   Zn    Zn3+2 0.499990 0.499980 0.346870 0.963194

loop_
_geom_bond_atom_site_label_1
_geom_bond_atom_site_label_2
_ccdc_geom_bond_type
C4    O7    A    
C1    O5    A    
C9    C14   S    
C16   H26   S    
C18   H6    S    
C15   C29   S    
C6    C7    S    
C19   H8    S    
O11   Zn2   S    
C21   H14   S    
C8    C26   S    
C18   H5    S    
C15   C27   A    
C2    H21   S    
C16   O12   S    
C12   C15   A    
C17   H28   S    
C3    N2    A    
O8    Zn1   S    
O10   Zn1   S    
C2    C3    A    
C26   C27   A    
C16   H25   S    
O9    Zn2   S    
C6    H3    S    
C13   C14   T    
C30   N1    A    
O7    Zn2   S    
C4    O6    A    
C11   C13   S    
N1    Zn2   S    
C3    H23   S    
C8    O9    A    
C1    C12   S    
C19   H9    S    
C6    H24   S    
C20   H11   S    
C28   H12   S    
C28   C29   S    
C22   H16   S    
C8    O8    A    
C21   H15   S    
C25   O2    S    
C23   C25   A    
C24   H20   S    
C5    C6    S    
C20   H10   S    
C7    H4    S    
C22   C24   S    
C29   O4    S    
C7    H1    S    
C10   C11   T    
C4    C10   S    
C9    O10   A    
C24   H18   S    
C28   O3    S    
N2    Zn1   S    
C27   C28   S    
C1    O1    A    
C20   C21   S    
C18   C19   S    
C5    C30   A    
C24   H19   S    
C7    C30   S    
C17   H2    S    
C2    N1    A    
C18   O2    S    
C12   C23   A    
C19   H7    S    
C5    N2    A    
O1    Zn1   S    
C25   C26   A    
C21   H13   S    
O6    Zn1   S    
C22   O4    S    
C23   O12   S    
C22   H17   S    
O5    Zn2   S    
C9    O11   A    
C17   H27   S    
C16   C17   S    
C29   H22   S    
C20   O3    S    
