data_mof_unit_23636.cif
_audit_creation_date              2012-12-10T18:44:30-0500
_audit_creation_method            fapswitch 2.2
_symmetry_space_group_name_H-M    P1
_symmetry_Int_Tables_number       1
_space_group_crystal_system       triclinic
_cell_length_a                    12.726377
_cell_length_b                    10.629595
_cell_length_c                    9.941516
_cell_angle_alpha                 90.189138
_cell_angle_beta                  100.346423
_cell_angle_gamma                 91.244502
_cell_volume                      1322.63582073

loop_
_atom_site_label
_atom_site_type_symbol
_atom_type_description
_atom_site_fract_x
_atom_site_fract_y
_atom_site_fract_z
_atom_type_partial_charge
C1    C     C_R   0.500208 0.260850 0.500325 0.830842
C2    C     C_R   0.702940 0.492528 0.531012 0.909377
C3    C     C_R   0.818304 0.474568 0.558311 -0.074756
C4    C     C_R   0.181526 0.523395 0.441726 -0.201293
C5    C     C_R   0.006412 0.461602 0.316499 -0.093294
C6    C     C_R   0.993627 0.536322 0.683254 -0.070909
C7    C     C_R   0.116220 0.482453 0.318354 -0.023737
C8    C     C_R   0.883837 0.517083 0.681111 -0.129186
C9    C     C_R   0.134377 0.573533 0.546022 -0.033091
C10   C     C_R   0.865622 0.424735 0.453385 -0.097363
C11   C     C_R   0.032051 0.528935 0.557825 0.170598
C12   C     C_R   0.499945 0.739109 0.499883 0.784384
C13   C     C_R   0.967856 0.469950 0.441796 -0.033770
C14   C     C_R   0.403564 0.063039 0.448876 -0.030733
C15   C     C_R   0.595932 0.936947 0.552830 -0.020944
C16   C     C_R   0.405368 0.932135 0.441283 -0.066753
C17   C     C_R   0.593442 0.067561 0.563333 -0.037500
C18   C     C_2   0.817933 0.311622 0.372410 0.440931
C19   C     C_2   0.185993 0.685520 0.624789 0.497011
C20   C     C_2   0.841294 0.532838 0.809517 0.421755
C21   C     C_2   0.159436 0.472924 0.189941 0.471391
C22   C     C_2   0.929997 0.445834 0.184388 0.379181
C23   C     C_R   0.500137 0.871834 0.499140 -0.196092
C24   C     C_2   0.067340 0.551319 0.817686 0.564981
C25   C     C_2   0.301014 0.132501 0.416730 0.546538
C26   C     C_2   0.698885 0.868211 0.583613 0.546285
C27   C     C_2   0.312134 0.857455 0.366445 0.596771
C28   C     C_2   0.684209 0.140951 0.646221 0.587574
C29   C     C_2   0.620175 0.685493 0.174141 0.580043
C30   C     C_2   0.387919 0.307585 0.827626 0.611230
C31   C     C_2   0.615103 0.690664 0.881120 0.472703
C32   C     C_2   0.384816 0.309582 0.119188 0.496336
C33   C     C_R   0.499607 0.128081 0.502031 -0.187275
C34   C     C_R   0.555564 0.590853 0.085234 0.010070
C35   C     C_R   0.446076 0.407746 0.915157 0.019392
C36   C     C_R   0.554732 0.591838 0.941089 0.006880
C37   C     C_R   0.445614 0.407857 0.059039 0.013960
C38   C     C_R   0.297061 0.507179 0.468971 0.837582
H1    H     H_    0.865856 0.258038 0.313863 0.127418
H2    H     H_    0.699876 0.237988 0.622381 0.080922
H3    H     H_    0.584306 0.772116 0.199173 0.099377
H4    H     H_    0.427285 0.220131 0.814046 0.075593
H5    H     H_    0.656952 0.667403 0.799965 0.090527
H6    H     H_    0.342250 0.333790 0.199316 0.072955
H7    H     H_    0.270865 0.705311 0.633970 0.072917
H8    H     H_    0.858246 0.618866 0.869234 0.053484
H9    H     H_    0.149399 0.386351 0.130571 0.123255
H10   H     H_    0.850647 0.484119 0.173965 0.145336
H11   H     H_    0.041636 0.597279 0.903297 0.083471
H12   H     H_    0.300660 0.230357 0.387213 0.003763
H13   H     H_    0.699853 0.769709 0.610754 -0.000075
H14   H     H_    0.294680 0.763751 0.399639 0.000391
N1    N     N_R   0.499970 0.499970 0.857200 -0.157519
N2    N     N_R   0.500030 0.500030 0.142800 -0.153846
O1    O     O_R   0.499990 0.316750 0.614620 -0.657122
O2    O     O_2   0.132614 0.762078 0.672974 -0.520303
O3    O     O_2   0.791318 0.447243 0.852618 -0.501384
O4    O     O_2   0.204096 0.563591 0.147843 -0.523954
O5    O     O_2   0.952540 0.386119 0.088884 -0.535145
O6    O     O_2   0.156828 0.508232 0.835579 -0.509946
O7    O     O_2   0.216214 0.083429 0.431451 -0.498061
O8    O     O_2   0.783423 0.918964 0.570488 -0.491838
O9    O     O_2   0.257374 0.897586 0.262575 -0.466576
O10   O     O_2   0.738771 0.095666 0.747335 -0.474194
O11   O     O_2   0.715348 0.669975 0.214128 -0.582415
O12   O     O_R   0.500010 0.683250 0.385380 -0.640348
O13   O     O_2   0.294505 0.319697 0.775119 -0.497495
O14   O     O_2   0.617347 0.799844 0.920293 -0.559051
O15   O     O_2   0.383140 0.199944 0.081702 -0.559469
O16   O     O_R   0.499990 0.316780 0.385290 -0.589135
O17   O     O_R   0.500010 0.683220 0.614710 -0.638365
O18   O     O_R   0.346360 0.499970 0.595710 -0.579466
O19   O     O_R   0.653640 0.500030 0.404290 -0.552792
O20   O     O_R   0.346360 0.499990 0.366380 -0.623216
O21   O     O_R   0.653640 0.500010 0.633620 -0.633541
O22   O     O_2   0.727523 0.272471 0.374696 -0.567867
Zn1   Zn    Zn3+2 0.500000 0.499980 0.653120 0.978906
Zn2   Zn    Zn3+2 0.500000 0.500020 0.346880 1.005686

loop_
_geom_bond_atom_site_label_1
_geom_bond_atom_site_label_2
_ccdc_geom_bond_type
C19   O2    D    
C22   H10   S    
C4    C9    A    
O16   Zn2   S    
C14   C33   A    
C1    C33   S    
C12   C23   S    
C8    C20   S    
C31   H5    S    
C30   C35   S    
C35   C37   A    
O1    Zn1   S    
C35   N1    A    
C28   H2    S    
C25   H12   S    
C36   N1    A    
C9    C19   S    
C5    C22   S    
O19   Zn2   S    
C5    C13   A    
C30   O13   D    
C16   C27   S    
C15   C23   A    
C22   O5    D    
C17   C33   A    
C4    C7    A    
C31   O14   D    
O12   Zn2   S    
C38   O18   A    
C3    C8    A    
C6    C11   A    
C5    C7    A    
C15   C26   S    
C6    C8    A    
C7    C21   S    
C12   O12   A    
C29   C34   S    
N1    Zn1   S    
C18   H1    S    
O18   Zn1   S    
O21   Zn1   S    
C24   O6    D    
C6    C24   S    
C32   H6    S    
C25   O7    D    
C32   C37   S    
C9    C11   A    
C2    O19   A    
C27   O9    D    
C29   O11   D    
C37   N2    A    
C28   O10   D    
C12   O17   A    
C4    C38   S    
C34   N2    A    
C16   C23   A    
C14   C16   A    
O17   Zn1   S    
C27   H14   S    
C38   O20   A    
C24   H11   S    
C15   C17   A    
C18   O22   D    
C29   H3    S    
C17   C28   S    
C10   C13   A    
C19   H7    S    
C32   O15   D    
C1    O16   A    
C2    C3    S    
C26   O8    D    
C21   O4    D    
C3    C10   A    
C26   H13   S    
C11   C13   A    
C10   C18   S    
C34   C36   A    
C14   C25   S    
C1    O1    A    
O20   Zn2   S    
C31   C36   S    
C30   H4    S    
N2    Zn2   S    
C20   O3    D    
C20   H8    S    
C2    O21   A    
C21   H9    S    
