data_mof_unit_28735.cif
_audit_creation_date              2012-10-26T21:33:19-0400
_audit_creation_method            fapswitch 2.2
_symmetry_space_group_name_H-M    P1
_symmetry_Int_Tables_number       1
_space_group_crystal_system       triclinic
_cell_length_a                    28.222839
_cell_length_b                    18.58218
_cell_length_c                    17.04556
_cell_angle_alpha                 90.127003
_cell_angle_beta                  61.631994
_cell_angle_gamma                 90.182608
_cell_volume                      7865.86575992

loop_
_atom_site_label
_atom_site_type_symbol
_atom_type_description
_atom_site_fract_x
_atom_site_fract_y
_atom_site_fract_z
_atom_type_partial_charge
Br1   Br    Br    0.604573 0.322999 0.077500 -0.422689
Br2   Br    Br    0.396394 0.678107 0.922074 -0.423263
Br3   Br    Br    0.397142 0.320229 0.921767 -0.450862
Br4   Br    Br    0.603660 0.678919 0.077839 -0.450153
Br5   Br    Br    0.103837 0.822171 0.077831 -0.422413
Br6   Br    Br    0.897046 0.178941 0.921810 -0.446173
Br7   Br    Br    0.896647 0.820717 0.922040 -0.445724
Br8   Br    Br    0.104433 0.177877 0.077560 -0.421765
C1    C     C_R   0.704241 0.273190 0.674296 0.927118
C2    C     C_R   0.076680 0.499933 0.578204 0.078623
C3    C     C_R   0.188959 0.220629 0.906176 0.091842
C4    C     C_R   0.075223 0.098151 0.933271 0.970201
C5    C     C_R   0.924871 0.901729 0.066652 0.971016
C6    C     C_R   0.924912 0.098274 0.066682 0.970787
C7    C     C_R   0.075166 0.901824 0.933253 0.969921
C8    C     C_R   0.575164 0.598228 0.933319 0.970401
C9    C     C_R   0.424928 0.401663 0.066602 0.970974
C10   C     C_R   0.424860 0.598209 0.066725 0.969665
C11   C     C_R   0.575247 0.401922 0.933185 0.969131
C12   C     C_R   0.524195 0.119497 0.577276 0.098878
C13   C     C_R   0.405430 0.998734 0.483027 0.073363
C14   C     C_R   0.475793 0.880506 0.422764 0.099126
C15   C     C_R   0.428469 0.116710 0.563917 0.099765
C16   C     C_R   0.571517 0.883291 0.436123 0.100054
C17   C     C_R   0.022512 0.630352 0.590950 0.099299
C18   C     C_R   0.927033 0.370174 0.574697 0.093103
C19   C     C_R   0.927879 0.630174 0.573946 0.093227
C20   C     C_R   0.022102 0.369645 0.590394 0.098960
C21   C     C_R   0.487501 0.176616 0.611010 -0.158091
C22   C     C_R   0.512486 0.823385 0.389031 -0.158426
C23   C     C_R   0.439818 0.175000 0.604954 -0.169845
C24   C     C_R   0.594559 0.001268 0.517010 0.073506
C25   C     C_R   0.560169 0.825001 0.395087 -0.169624
C26   C     C_R   0.994996 0.694893 0.598064 -0.154092
C27   C     C_R   0.946814 0.305513 0.590483 -0.167690
C28   C     C_R   0.947937 0.694781 0.589895 -0.167699
C29   C     C_R   0.994151 0.305206 0.597817 -0.154194
C30   C     C_R   0.464582 0.058743 0.530913 0.038205
C31   C     C_R   0.535404 0.941258 0.469130 0.038133
C32   C     C_R   0.512206 0.059824 0.538403 0.035104
C33   C     C_R   0.487780 0.940177 0.461641 0.035074
C34   C     C_R   0.953647 0.565227 0.571321 0.040555
C35   C     C_R   0.071447 0.369734 0.591557 -0.214644
C36   C     C_R   0.000618 0.434855 0.580240 0.037775
C37   C     C_R   0.000865 0.565219 0.580378 0.037596
C38   C     C_R   0.953289 0.435012 0.571516 0.040457
C39   C     C_R   0.931549 0.500153 0.561675 -0.036122
C40   C     C_R   0.026018 0.499994 0.579964 -0.036987
C41   C     C_R   0.452532 0.999113 0.492086 -0.036674
C42   C     C_R   0.547455 0.000888 0.507956 -0.036628
C43   C     C_R   0.865346 0.434359 0.534302 0.055836
C44   C     C_R   0.102174 0.566000 0.576576 0.053062
C45   C     C_R   0.102129 0.433847 0.576015 0.054235
C46   C     C_R   0.882811 0.629804 0.559969 -0.222248
C47   C     C_R   0.865773 0.566031 0.533687 0.057103
C48   C     C_R   0.390963 0.936906 0.450747 0.057277
C49   C     C_R   0.609029 0.063097 0.549284 0.056943
C50   C     C_R   0.627886 0.940133 0.492427 0.049955
C51   C     C_R   0.372104 0.059870 0.507605 0.050044
C52   C     C_R   0.826789 0.435749 0.501563 -0.094960
C53   C     C_R   0.157002 0.565053 0.558833 -0.110797
C54   C     C_R   0.156984 0.434918 0.558577 -0.111312
C55   C     C_R   0.826958 0.564407 0.501307 -0.096367
C56   C     C_R   0.340089 0.936016 0.452376 -0.116900
C57   C     C_R   0.881765 0.370725 0.561364 -0.221373
C58   C     C_R   0.659905 0.063987 0.547647 -0.116940
C59   C     C_R   0.669897 0.937999 0.515998 -0.100265
C60   C     C_R   0.330096 0.062003 0.484028 -0.100027
C61   C     C_R   0.809871 0.499997 0.483839 -0.248226
C62   C     C_R   0.182439 0.500043 0.552664 -0.237637
C63   C     C_R   0.313815 0.999866 0.459224 -0.232852
C64   C     C_R   0.686178 0.000136 0.540802 -0.232670
C65   C     C_R   0.071645 0.630086 0.592710 -0.214078
C66   C     C_R   0.618038 0.883954 0.445675 -0.215516
C67   C     C_R   0.381951 0.116050 0.554357 -0.215356
C68   C     C_R   0.427398 0.878817 0.418367 -0.208228
C69   C     C_R   0.295854 0.726986 0.325627 0.950030
C70   C     C_R   0.572594 0.121187 0.581663 -0.207801
C71   C     C_R   0.720855 0.263657 0.953241 -0.023185
C72   C     C_R   0.280002 0.737480 0.045977 -0.022084
C73   C     C_R   0.280446 0.261435 0.045714 -0.021967
C74   C     C_R   0.720379 0.737440 0.953554 -0.022940
C75   C     C_R   0.220206 0.762803 0.953837 -0.022109
C76   C     C_R   0.780565 0.238226 0.045476 -0.021287
C77   C     C_R   0.779899 0.762187 0.046199 -0.024092
C78   C     C_R   0.220936 0.236727 0.953032 -0.025109
C79   C     C_R   0.731009 0.192801 0.970117 0.425822
C80   C     C_R   0.295943 0.272839 0.325525 0.974093
C81   C     C_R   0.269688 0.808321 0.029305 0.426645
C82   C     C_R   0.270387 0.190694 0.027824 0.427785
C83   C     C_R   0.730613 0.808181 0.971129 0.426541
C84   C     C_R   0.230533 0.691963 0.970488 0.426888
C85   C     C_R   0.770478 0.309085 0.028496 0.427150
C86   C     C_R   0.769682 0.691444 0.028598 0.426920
C87   C     C_R   0.231060 0.307465 0.970823 0.427067
C88   C     C_R   0.760444 0.180652 0.015956 -0.226095
C89   C     C_R   0.240215 0.820418 0.983504 -0.224380
C90   C     C_R   0.241032 0.178885 0.981722 -0.231353
C91   C     C_R   0.704156 0.726975 0.674396 0.951678
C92   C     C_R   0.759970 0.820006 0.017207 -0.232665
C93   C     C_R   0.260003 0.679867 0.016290 -0.223156
C94   C     C_R   0.741041 0.321241 0.982644 -0.229738
C95   C     C_R   0.740320 0.679618 0.982524 -0.231483
C96   C     C_R   0.260412 0.319268 0.016911 -0.225234
C97   C     C_R   0.641103 0.319774 0.948366 0.221721
C98   C     C_R   0.359548 0.681113 0.051215 0.219997
C99   C     C_R   0.360035 0.317719 0.050948 0.219779
C100  C     C_R   0.640559 0.681484 0.948657 0.221118
C101  C     C_R   0.140605 0.819100 0.948691 0.220437
C102  C     C_R   0.204165 0.773050 0.674356 0.951624
C103  C     C_R   0.859943 0.181667 0.050973 0.220768
C104  C     C_R   0.859647 0.818233 0.051219 0.221454
C105  C     C_R   0.140984 0.180874 0.948406 0.221528
C106  C     C_R   0.620973 0.353974 0.895239 -0.238639
C107  C     C_R   0.379354 0.646494 0.104522 -0.238838
C108  C     C_R   0.379581 0.353004 0.104344 -0.235466
C109  C     C_R   0.620717 0.646570 0.895429 -0.235208
C110  C     C_R   0.120723 0.853617 0.895424 -0.238938
C111  C     C_R   0.879516 0.146735 0.104402 -0.235291
C112  C     C_R   0.879387 0.853282 0.104501 -0.235080
C113  C     C_R   0.795881 0.227043 0.325600 0.974117
C114  C     C_R   0.120889 0.146311 0.895307 -0.238767
C115  C     C_R   0.647984 0.346748 0.803237 0.290314
C116  C     C_R   0.352225 0.653638 0.196531 0.291814
C117  C     C_R   0.352379 0.346064 0.196391 0.293309
C118  C     C_R   0.647820 0.653560 0.803385 0.291836
C119  C     C_R   0.147825 0.846452 0.803417 0.291614
C120  C     C_R   0.852260 0.153759 0.196427 0.292578
C121  C     C_R   0.852249 0.846320 0.196549 0.292126
C122  C     C_R   0.147847 0.153452 0.803284 0.291218
C123  C     C_R   0.685385 0.292437 0.766679 -0.159207
C124  C     C_R   0.795867 0.772981 0.325585 0.953081
C125  C     C_R   0.314943 0.708102 0.233050 -0.166701
C126  C     C_R   0.315148 0.291359 0.232890 -0.172880
C127  C     C_R   0.685181 0.708099 0.766842 -0.165607
C128  C     C_R   0.185123 0.792011 0.766895 -0.166418
C129  C     C_R   0.815057 0.208313 0.232936 -0.172591
C130  C     C_R   0.814909 0.791754 0.233086 -0.166806
C131  C     C_R   0.185277 0.207914 0.766738 -0.160614
C132  C     C_R   0.708644 0.262004 0.816390 -0.233457
C133  C     C_R   0.291989 0.738975 0.183099 -0.223342
C134  C     C_R   0.292299 0.259960 0.182849 -0.222673
C135  C     C_R   0.204176 0.226932 0.674373 0.930838
C136  C     C_R   0.708338 0.739049 0.816643 -0.232238
C137  C     C_R   0.208143 0.761234 0.816795 -0.223965
C138  C     C_R   0.792289 0.239452 0.182848 -0.222796
C139  C     C_R   0.791841 0.760677 0.183215 -0.234600
C140  C     C_R   0.208606 0.238622 0.816409 -0.236067
C141  C     C_R   0.691475 0.129455 0.534756 0.894102
C142  C     C_R   0.308523 0.870547 0.465253 0.892156
C143  C     C_R   0.303233 0.127849 0.482911 0.904776
C144  C     C_R   0.696763 0.872151 0.517102 0.904968
C145  C     C_R   0.191435 0.629418 0.534926 0.893789
C146  C     C_R   0.887866 0.500192 0.542332 0.069457
C147  C     C_R   0.802963 0.371641 0.485261 0.906983
C148  C     C_R   0.802986 0.628331 0.485216 0.908423
C149  C     C_R   0.191428 0.370646 0.534897 0.896529
C150  C     C_R   0.689022 0.280076 0.906200 0.090323
C151  C     C_R   0.311741 0.721047 0.093196 0.088960
C152  C     C_R   0.312217 0.277633 0.092899 0.091838
C153  C     C_R   0.688516 0.721281 0.906526 0.093208
C154  C     C_R   0.188435 0.779216 0.906668 0.088615
C155  C     C_R   0.812185 0.221701 0.092855 0.090686
C156  C     C_R   0.811720 0.778370 0.093294 0.093991
Cl1   Cl    Cl    0.705837 0.118110 0.937772 -0.512994
Cl2   Cl    Cl    0.357694 0.587293 0.267274 -0.490279
Cl3   Cl    Cl    0.357661 0.412846 0.267213 -0.487246
Cl4   Cl    Cl    0.642247 0.587049 0.732571 -0.493687
Cl5   Cl    Cl    0.142320 0.912759 0.732676 -0.491999
Cl6   Cl    Cl    0.857463 0.087191 0.267165 -0.488242
Cl7   Cl    Cl    0.857775 0.912882 0.267365 -0.494498
Cl8   Cl    Cl    0.141996 0.087177 0.732462 -0.498157
Cl9   Cl    Cl    0.294683 0.883056 0.061891 -0.510755
Cl10  Cl    Cl    0.295496 0.115834 0.059362 -0.510096
Cl11  Cl    Cl    0.705682 0.883054 0.939295 -0.512685
Cl12  Cl    Cl    0.205555 0.617224 0.937877 -0.509170
Cl13  Cl    Cl    0.795690 0.383743 0.060812 -0.509335
Cl14  Cl    Cl    0.794634 0.616578 0.060401 -0.509725
Cl15  Cl    Cl    0.205981 0.382357 0.939271 -0.509085
Cl16  Cl    Cl    0.642216 0.412806 0.732498 -0.496774
H1    H     H_    0.009523 0.254414 0.607218 0.161315
H2    H     H_    0.224350 0.500121 0.537435 0.214167
H3    H     H_    0.278328 0.000339 0.450068 0.210137
H4    H     H_    0.721667 0.999662 0.549953 0.210117
H5    H     H_    0.084601 0.319290 0.605681 0.184028
H6    H     H_    0.861785 0.680116 0.572248 0.183679
H7    H     H_    0.860077 0.320702 0.574690 0.183568
H8    H     H_    0.084845 0.680394 0.607554 0.183165
H9    H     H_    0.646700 0.841077 0.414150 0.170436
H10   H     H_    0.353290 0.158931 0.585872 0.171066
H11   H     H_    0.419473 0.833304 0.386523 0.172702
H12   H     H_    0.928113 0.745470 0.593553 0.154070
H13   H     H_    0.580523 0.166703 0.613500 0.173388
H14   H     H_    0.733891 0.376098 0.969576 0.202794
H15   H     H_    0.267293 0.625016 0.029154 0.203868
H16   H     H_    0.267607 0.374037 0.030662 0.203608
H17   H     H_    0.733019 0.624848 0.968966 0.202649
H18   H     H_    0.232925 0.875268 0.970637 0.203251
H19   H     H_    0.767589 0.125791 0.029017 0.203403
H20   H     H_    0.767271 0.874778 0.030763 0.202911
H21   H     H_    0.233825 0.124122 0.967978 0.202645
H22   H     H_    0.743293 0.226914 0.784665 0.208048
H23   H     H_    0.926597 0.254912 0.594501 0.153918
H24   H     H_    0.257428 0.774217 0.214730 0.212019
H25   H     H_    0.257689 0.224585 0.214429 0.211510
H26   H     H_    0.743063 0.774222 0.784949 0.207838
H27   H     H_    0.242717 0.726015 0.785145 0.212110
H28   H     H_    0.757767 0.274766 0.214422 0.211927
H29   H     H_    0.757132 0.725475 0.214885 0.207645
H30   H     H_    0.243339 0.273779 0.784685 0.207573
H31   H     H_    0.010557 0.745630 0.607710 0.161200
H32   H     H_    0.587744 0.780061 0.369024 0.158168
H33   H     H_    0.412242 0.219940 0.631017 0.158046
H34   H     H_    0.504223 0.777333 0.358286 0.169276
H35   H     H_    0.495764 0.222668 0.641755 0.169543
H36   H     H_    0.781762 0.499880 0.457196 0.204479
O1    O     O_R   0.746490 0.236330 0.638080 -0.661790
O2    O     O_R   0.325830 0.813840 0.483730 -0.640866
O3    O     O_R   0.325830 0.186160 0.483730 -0.645239
O4    O     O_R   0.674170 0.813840 0.516270 -0.644613
O5    O     O_R   0.174170 0.686160 0.516270 -0.647919
O6    O     O_R   0.825830 0.313840 0.483730 -0.654548
O7    O     O_R   0.825830 0.686160 0.483730 -0.654710
O8    O     O_R   0.174170 0.313840 0.516270 -0.648726
O9    O     O_R   0.739960 0.127620 0.525000 -0.602388
O10   O     O_R   0.260040 0.872380 0.475000 -0.601891
O11   O     O_R   0.260040 0.127620 0.475000 -0.608201
O12   O     O_R   0.253510 0.763670 0.361920 -0.641910
O13   O     O_R   0.739960 0.872380 0.525000 -0.608167
O14   O     O_R   0.239960 0.627620 0.525000 -0.602961
O15   O     O_R   0.760040 0.372380 0.475000 -0.603006
O16   O     O_R   0.760040 0.627620 0.475000 -0.602479
O17   O     O_R   0.239960 0.372380 0.525000 -0.602975
O18   O     O_R   0.680700 0.294870 0.629350 -0.573301
O19   O     O_R   0.319300 0.705130 0.370650 -0.571642
O20   O     O_R   0.319300 0.294870 0.370650 -0.556836
O21   O     O_R   0.680700 0.705130 0.629350 -0.558502
O22   O     O_R   0.180700 0.794870 0.629350 -0.573404
O23   O     O_R   0.253510 0.236330 0.361920 -0.639420
O24   O     O_R   0.819300 0.205130 0.370650 -0.556248
O25   O     O_R   0.819300 0.794870 0.370650 -0.558544
O26   O     O_R   0.180700 0.205130 0.629350 -0.575286
O27   O     O_R   0.062020 0.072840 0.007170 -0.596449
O28   O     O_R   0.937980 0.927160 0.992830 -0.597396
O29   O     O_R   0.937980 0.072840 0.992830 -0.596976
O30   O     O_R   0.062020 0.927160 0.007170 -0.596053
O31   O     O_R   0.562020 0.572840 0.007170 -0.596977
O32   O     O_R   0.437980 0.427160 0.992830 -0.596396
O33   O     O_R   0.437980 0.572840 0.992830 -0.595765
O34   O     O_R   0.746490 0.763670 0.638080 -0.658827
O35   O     O_R   0.562020 0.427160 0.007170 -0.596315
O36   O     O_R   0.947860 0.073950 0.109290 -0.557276
O37   O     O_R   0.052140 0.926050 0.890710 -0.559432
O38   O     O_R   0.052140 0.073950 0.890710 -0.558793
O39   O     O_R   0.947860 0.926050 0.109290 -0.556693
O40   O     O_R   0.447860 0.573950 0.109290 -0.559497
O41   O     O_R   0.552140 0.426050 0.890710 -0.558467
O42   O     O_R   0.552140 0.573950 0.890710 -0.556643
O43   O     O_R   0.447860 0.426050 0.109290 -0.557676
O44   O     O_R   0.246490 0.736330 0.638080 -0.641186
O45   O     O_R   0.753510 0.263670 0.361920 -0.638028
O46   O     O_R   0.753510 0.736330 0.361920 -0.656033
O47   O     O_R   0.246490 0.263670 0.638080 -0.659164
O48   O     O_R   0.674170 0.186160 0.516270 -0.641275
Zn1   Zn    Zn3+2 0.792340 0.208750 0.507670 1.039164
Zn2   Zn    Zn3+2 0.494040 0.500000 0.919480 1.159363
Zn3   Zn    Zn3+2 0.005960 0.000000 0.080520 1.162643
Zn4   Zn    Zn3+2 0.994040 0.000000 0.919480 1.151656
Zn5   Zn    Zn3+2 0.207660 0.791250 0.492330 1.046858
Zn6   Zn    Zn3+2 0.207660 0.208750 0.492330 1.046367
Zn7   Zn    Zn3+2 0.792340 0.791250 0.507670 1.039092
Zn8   Zn    Zn3+2 0.292340 0.708750 0.507670 1.054716
Zn9   Zn    Zn3+2 0.707660 0.291250 0.492330 1.056030
Zn10  Zn    Zn3+2 0.707660 0.708750 0.492330 1.051306
Zn11  Zn    Zn3+2 0.292340 0.291250 0.507670 1.049470
Zn12  Zn    Zn3+2 0.505960 0.500000 0.080520 1.158053

loop_
_geom_bond_atom_site_label_1
_geom_bond_atom_site_label_2
_ccdc_geom_bond_type
C53   C62   A    
C117  C126  A    
C88   H19   S    
C143  O11   A    
C57   H7    S    
C43   C146  A    
C120  Cl6   S    
C48   C68   A    
C51   C67   A    
C136  C153  A    
C47   C146  A    
C141  O9    A    
Br6   C103  S    
C101  C154  A    
C90   H21   S    
C102  C128  S    
O21   Zn10  S    
C133  H24   S    
C81   Cl9   S    
C49   C58   A    
C2    C44   A    
C65   H8    S    
C71   C150  S    
C13   C41   A    
C99   C152  A    
C19   C46   A    
O5    Zn5   S    
C31   C33   A    
C30   C41   A    
C95   H17   S    
C84   Cl12  S    
C145  O5    A    
C75   C84   A    
Br4   C100  S    
O38   Zn4   S    
O18   Zn9   S    
Br5   C101  S    
C116  C125  A    
O24   Zn1   S    
C148  O7    A    
C142  O10   A    
O26   Zn6   S    
C27   C29   A    
O27   Zn3   S    
C55   C148  S    
C13   C51   A    
C118  Cl4   S    
O12   Zn5   S    
O10   Zn5   S    
C43   C57   A    
C12   C32   A    
C25   H32   S    
C3    C140  A    
C56   C63   A    
C14   C33   A    
O32   Zn2   S    
C137  C154  A    
C35   H5    S    
C3    C78   S    
C124  C130  S    
C98   C151  A    
O17   Zn11  S    
C69   O19   A    
C16   C31   A    
Br7   C104  S    
O15   Zn9   S    
C103  C111  A    
C59   C64   A    
C86   Cl14  S    
C134  H25   S    
C113  C129  S    
C72   C81   A    
C2    C45   A    
C119  Cl5   S    
C123  C132  A    
O36   Zn3   S    
C113  O45   A    
C38   C39   A    
C131  C135  S    
C126  C134  A    
C35   C45   A    
C58   C64   A    
C105  C114  A    
C55   C61   A    
C122  Cl8   S    
C5    O39   A    
C47   C55   A    
C149  O8    A    
C74   C95   A    
C48   C56   A    
C71   C94   A    
C24   C50   A    
C83   C92   A    
C9    O43   A    
C121  Cl7   S    
C109  C118  A    
C141  O48   A    
C26   C28   A    
C128  C137  A    
O23   Zn6   S    
C15   C30   A    
C17   C26   A    
C76   C85   A    
C6    O29   A    
C132  C150  A    
C111  C120  A    
C1    C123  S    
C1    O18   A    
C11   O35   A    
C73   C152  S    
C6    O36   A    
Br3   C99   S    
C124  O25   A    
C75   C89   A    
C54   C62   A    
C20   C29   A    
C61   H36   S    
C69   C125  S    
C24   C49   A    
C91   O34   A    
O46   Zn10  S    
C122  C131  A    
C94   H14   S    
C71   C79   A    
C133  C151  A    
C101  C110  A    
C136  H26   S    
C12   C21   A    
C149  O17   A    
O37   Zn4   S    
C142  O2    A    
C14   C68   A    
C104  C156  A    
C131  C140  A    
C54   C149  S    
C4    O38   A    
C121  C130  A    
C10   C107  S    
O4    Zn10  S    
C112  C121  A    
C60   C143  S    
C113  O24   A    
O16   Zn10  S    
C129  C138  A    
C67   H10   S    
C103  C155  A    
O35   Zn12  S    
C64   H4    S    
C58   C141  S    
C138  H28   S    
C44   C65   A    
C26   H31   S    
C134  C152  A    
C104  C112  A    
O6    Zn1   S    
C85   Cl13  S    
C72   C151  S    
C36   C38   A    
C11   C106  S    
C10   O40   A    
O19   Zn8   S    
C49   C70   A    
Br2   C98   S    
O2    Zn8   S    
C74   C83   A    
O25   Zn7   S    
C56   C142  S    
O28   Zn4   S    
C34   C37   A    
C15   C23   A    
O33   Zn2   S    
O44   Zn8   S    
O22   Zn5   S    
C120  C129  A    
O7    Zn7   S    
C132  H22   S    
C51   C60   A    
C22   H34   S    
C66   H9    S    
C8    O42   A    
C77   C86   A    
C148  O16   A    
O11   Zn6   S    
C97   C150  A    
C7    O30   A    
C130  C139  A    
C83   Cl11  S    
C4    O27   A    
C29   H1    S    
C79   C88   A    
O3    Zn11  S    
C4    C114  S    
C96   H16   S    
C135  O26   A    
C91   C127  S    
O43   Zn12  S    
C82   C90   A    
C119  C128  A    
C24   C42   A    
C76   C155  S    
O34   Zn7   S    
C84   C93   A    
C17   C37   A    
C45   C54   A    
C116  Cl2   S    
C73   C82   A    
Br8   C105  S    
C87   Cl15  S    
C127  C136  A    
C74   C153  S    
C75   C154  S    
C118  C127  A    
O13   Zn7   S    
O47   Zn11  S    
C108  C117  A    
O9    Zn1   S    
C2    C40   A    
C97   C106  A    
C80   O20   A    
C143  O3    A    
C145  O14   A    
O29   Zn4   S    
C135  O47   A    
C110  C119  A    
C106  C115  A    
O30   Zn3   S    
O42   Zn2   S    
C76   C88   A    
C137  H27   S    
C5    C112  S    
C102  O44   A    
C87   C96   A    
C50   C66   A    
C124  O46   A    
C144  O13   A    
C7    O37   A    
C8    O31   A    
C1    O1    A    
C46   C47   A    
C107  C116  A    
C14   C22   A    
C22   C25   A    
C115  C123  A    
C59   C144  S    
C28   H12   S    
C18   C57   A    
C125  C133  A    
C89   H18   S    
C27   H23   S    
O40   Zn12  S    
O41   Zn2   S    
C16   C25   A    
C15   C67   A    
C115  Cl16  S    
C53   C145  S    
C85   C94   A    
C86   C95   A    
C13   C48   A    
C102  O22   A    
C23   H33   S    
C39   C146  A    
C19   C28   A    
C117  Cl3   S    
C33   C41   A    
C138  C155  A    
C82   Cl10  S    
C20   C35   A    
O1    Zn1   S    
O48   Zn9   S    
C9    O32   A    
C7    C110  S    
C12   C70   A    
C72   C93   A    
C44   C53   A    
O20   Zn11  S    
C37   C40   A    
C5    O28   A    
O31   Zn12  S    
C52   C147  S    
C80   C126  S    
C50   C59   A    
C21   C23   A    
C77   C92   A    
C8    C109  S    
C30   C32   A    
C80   O23   A    
C19   C34   A    
C16   C66   A    
C79   Cl1   S    
O14   Zn8   S    
C52   C61   A    
C60   C63   A    
C32   C42   A    
C144  O4    A    
C147  O15   A    
C20   C36   A    
C139  C156  A    
C3    C105  A    
C17   C65   A    
C34   C39   A    
C140  H30   S    
C78   C90   A    
C73   C96   A    
C99   C108  A    
C100  C109  A    
C21   H35   S    
C78   C87   A    
C18   C38   A    
O8    Zn6   S    
C91   O21   A    
C36   C40   A    
C18   C27   A    
C62   H2    S    
C31   C42   A    
O45   Zn9   S    
O39   Zn3   S    
C69   O12   A    
C6    C111  S    
C46   H6    S    
C81   C89   A    
C68   H11   S    
C77   C156  S    
C92   H20   S    
C147  O6    A    
C43   C52   A    
C10   O33   A    
C11   O41   A    
C139  H29   S    
C114  C122  A    
C70   H13   S    
C93   H15   S    
C9    C108  S    
Br1   C97   S    
C98   C107  A    
C63   H3    S    
C100  C153  A    
