data_mof_unit_54074.cif
_audit_creation_date              2012-12-11T17:04:49-0500
_audit_creation_method            fapswitch 2.2
_symmetry_space_group_name_H-M    P1
_symmetry_Int_Tables_number       1
_space_group_crystal_system       triclinic
_cell_length_a                    17.488005
_cell_length_b                    24.699788
_cell_length_c                    14.841191
_cell_angle_alpha                 89.932964
_cell_angle_beta                  125.764398
_cell_angle_gamma                 90.118664
_cell_volume                      5201.76640779

loop_
_atom_site_label
_atom_site_type_symbol
_atom_type_description
_atom_site_fract_x
_atom_site_fract_y
_atom_site_fract_z
_atom_type_partial_charge
C1    C     C_R   0.846749 0.650834 0.909020 -0.088833
C2    C     C_R   0.053042 0.501487 0.729615 0.046011
C3    C     C_R   0.766703 0.045911 0.292059 -0.112865
C4    C     C_R   0.845729 0.352031 0.909013 0.395378
C5    C     C_R   0.155197 0.352493 0.091040 0.424318
C6    C     C_R   0.345727 0.852031 0.909013 0.395388
C7    C     C_R   0.655205 0.852496 0.091043 0.424100
C8    C     C_R   0.935257 0.647647 0.094248 -0.106819
C9    C     C_R   0.059883 0.650073 0.907245 -0.139889
C10   C     C_R   0.435246 0.147644 0.094247 -0.106879
C11   C     C_R   0.559884 0.150073 0.907246 -0.139898
C12   C     C_R   0.871106 0.677649 0.003580 0.002393
C13   C     C_R   0.561172 0.001537 0.367272 0.037365
C14   C     C_R   0.123923 0.680047 0.997842 -0.002596
C15   C     C_R   0.371090 0.177643 0.003576 0.002454
C16   C     C_R   0.623924 0.180047 0.997844 -0.002577
C17   C     C_2   0.803678 0.675547 0.798662 0.947274
C18   C     C_2   0.194315 0.675277 0.202207 0.941373
C19   C     C_2   0.303685 0.175553 0.798671 0.947274
C20   C     C_2   0.694313 0.175277 0.202207 0.941376
C21   C     C_R   0.553043 0.001488 0.729616 0.046029
C22   C     C_R   0.676060 0.500048 0.725198 -0.029621
C23   C     C_R   0.319051 0.500301 0.344376 -0.013401
C24   C     C_R   0.176060 0.000048 0.725204 -0.029638
C25   C     C_R   0.819043 0.000302 0.344394 -0.013419
C26   C     C_3   0.505306 0.454621 0.599214 -0.155873
C27   C     C_3   0.483304 0.456325 0.482162 -0.159050
C28   C     C_3   0.005310 0.954617 0.599220 -0.155858
C29   C     C_R   0.152343 0.651237 0.091846 -0.061431
C30   C     C_3   0.983302 0.956332 0.482166 -0.159075
C31   C     C_3   0.429710 0.498605 0.564996 -0.134136
C32   C     C_3   0.556286 0.501529 0.518377 -0.117965
C33   C     C_3   0.929710 0.998595 0.565018 -0.134122
C34   C     C_3   0.056277 0.001540 0.518386 -0.117973
C35   C     C_3   0.409999 0.500193 0.449946 0.170272
C36   C     C_3   0.577375 0.499941 0.634363 0.178237
C37   C     C_3   0.909993 0.000195 0.449965 0.170293
C38   C     C_3   0.077374 0.999941 0.634375 0.178252
C39   C     C_3   0.482150 0.545415 0.485356 -0.149303
C40   C     C_R   0.346743 0.150831 0.909019 -0.088847
C41   C     C_3   0.504151 0.543930 0.602410 -0.153639
C42   C     C_3   0.982138 0.045422 0.485380 -0.149324
C43   C     C_3   0.004146 0.043925 0.602438 -0.153652
C44   C     C_R   0.796148 0.236869 0.961891 0.082372
C45   C     C_R   0.188153 0.233915 0.020535 0.100545
C46   C     C_R   0.296140 0.736872 0.961880 0.082367
C47   C     C_R   0.688351 0.733948 0.020841 0.100297
C48   C     C_R   0.802979 0.289266 0.998587 -0.085808
C49   C     C_R   0.192513 0.287880 0.999023 -0.097907
C50   C     C_R   0.302980 0.789267 0.998591 -0.085806
C51   C     C_R   0.652343 0.151237 0.091846 -0.061437
C52   C     C_R   0.692536 0.787889 0.999034 -0.097725
C53   C     C_R   0.735841 0.309789 0.014953 0.520109
C54   C     C_R   0.268102 0.308181 0.997565 0.513822
C55   C     C_R   0.235851 0.809788 0.014973 0.520120
C56   C     C_R   0.767982 0.808189 0.997295 0.513869
C57   C     C_R   0.936259 0.352067 0.092712 0.474980
C58   C     C_R   0.061121 0.351140 0.907587 0.434533
C59   C     C_R   0.436260 0.852067 0.092712 0.474954
C60   C     C_R   0.561127 0.851141 0.907589 0.434690
C61   C     C_R   0.174189 0.773417 0.012691 -0.166455
C62   C     C_R   0.868463 0.323494 0.000940 -0.152383
C63   C     C_R   0.829777 0.771232 0.002231 -0.160328
C64   C     C_R   0.674181 0.273418 0.012675 -0.166461
C65   C     C_R   0.329897 0.271220 0.002518 -0.160580
C66   C     C_R   0.178640 0.719163 0.991367 -0.014237
C67   C     C_R   0.815486 0.716405 0.008317 -0.016480
C68   C     C_R   0.678643 0.219162 0.991371 -0.014230
C69   C     C_R   0.315445 0.216387 0.008295 -0.016329
C70   C     C_R   0.234228 0.701987 0.958176 0.121162
C71   C     C_R   0.749436 0.698223 0.024929 0.129464
C72   C     C_R   0.734239 0.201983 0.958192 0.121168
C73   C     C_R   0.129685 0.323017 0.999099 -0.145812
C74   C     C_R   0.249227 0.198185 0.024610 0.129544
C75   C     C_3   0.301370 0.655542 0.998922 -0.453857
C76   C     C_3   0.675553 0.655444 0.964186 -0.472420
C77   C     C_3   0.801387 0.155542 0.998955 -0.453873
C78   C     C_3   0.175261 0.155476 0.963540 -0.472726
C79   C     C_3   0.870486 0.194604 0.003056 -0.408658
C80   C     C_3   0.107165 0.195351 0.958866 -0.398381
C81   C     C_3   0.370472 0.694604 0.003030 -0.408676
C82   C     C_3   0.607443 0.695315 0.959497 -0.398593
C83   C     C_R   0.097532 0.551641 0.625104 0.140584
C84   C     C_R   0.368463 0.823494 0.000941 -0.152380
C85   C     C_R   0.095185 0.551438 0.529852 0.135040
C86   C     C_R   0.597531 0.051641 0.625103 0.140569
C87   C     C_R   0.595184 0.051438 0.529852 0.135051
C88   C     C_R   0.099354 0.502809 0.673945 0.039231
C89   C     C_R   0.095454 0.502409 0.483340 0.032779
C90   C     C_R   0.599354 0.002810 0.673945 0.039227
C91   C     C_R   0.595454 0.002409 0.483340 0.032778
C92   C     C_R   0.114653 0.454325 0.637553 -0.154389
C93   C     C_R   0.111807 0.454032 0.541992 -0.179560
C94   C     C_R   0.614654 0.954325 0.637554 -0.154302
C95   C     C_R   0.629699 0.823022 0.999103 -0.145780
C96   C     C_R   0.611808 0.954032 0.541993 -0.179606
C97   C     C_3   0.169355 0.594291 0.574833 -0.463609
C98   C     C_3   0.172514 0.594197 0.678423 -0.503641
C99   C     C_3   0.669353 0.094292 0.574832 -0.463624
C100  C     C_3   0.672512 0.094198 0.678422 -0.503622
C101  C     C_R   0.045763 0.546433 0.303121 -0.103772
C102  C     C_R   0.020698 0.546480 0.753271 -0.090187
C103  C     C_R   0.545763 0.046433 0.303121 -0.103755
C104  C     C_R   0.520698 0.046480 0.753271 -0.090208
C105  C     C_R   0.731472 0.455050 0.750289 -0.115927
C106  C     C_R   0.061171 0.501537 0.367272 0.037364
C107  C     C_R   0.265027 0.455036 0.292588 -0.091453
C108  C     C_R   0.231472 0.955051 0.750291 -0.115925
C109  C     C_R   0.765023 0.955037 0.292600 -0.091528
C110  C     C_R   0.047269 0.456120 0.304979 -0.099173
C111  C     C_R   0.021131 0.455842 0.753150 -0.155814
C112  C     C_R   0.547269 0.956121 0.304979 -0.099172
C113  C     C_R   0.521131 0.955842 0.753150 -0.155783
C114  C     C_R   0.730835 0.545592 0.751508 -0.080937
C115  C     C_R   0.266708 0.545910 0.292050 -0.112864
C116  C     C_R   0.230836 0.045592 0.751512 -0.080902
H1    H     H_    0.517225 0.417795 0.648794 0.128201
H2    H     H_    0.885530 0.784887 0.996065 0.161959
H3    H     H_    0.625736 0.286910 0.031076 0.162120
H4    H     H_    0.385771 0.284882 0.996579 0.161955
H5    H     H_    0.276014 0.623487 0.934852 0.183900
H6    H     H_    0.689926 0.619659 0.017406 0.195051
H7    H     H_    0.776038 0.123483 0.934895 0.183900
H8    H     H_    0.189461 0.119629 0.016551 0.195071
H9    H     H_    0.324441 0.640924 0.082200 0.204672
H10   H     H_    0.659084 0.646022 0.881260 0.196767
H11   H     H_    0.824456 0.140930 0.082235 0.204671
H12   H     H_    0.472958 0.420763 0.430407 0.134612
H13   H     H_    0.158904 0.146150 0.880631 0.196794
H14   H     H_    0.885127 0.185166 0.941266 0.182266
H15   H     H_    0.081813 0.182565 0.009052 0.180562
H16   H     H_    0.385108 0.685170 0.941235 0.182304
H17   H     H_    0.582254 0.682589 0.009882 0.180646
H18   H     H_    0.933805 0.202869 0.088668 0.220160
H19   H     H_    0.051213 0.209361 0.873318 0.227650
H20   H     H_    0.433794 0.702864 0.088642 0.220143
H21   H     H_    0.551368 0.709229 0.873918 0.227488
H22   H     H_    0.119313 0.415926 0.675533 0.149008
H23   H     H_    0.017236 0.917786 0.648791 0.128192
H24   H     H_    0.115483 0.415391 0.510705 0.138587
H25   H     H_    0.619315 0.915927 0.675534 0.149104
H26   H     H_    0.615485 0.915392 0.510706 0.138602
H27   H     H_    0.141434 0.632662 0.527007 0.197709
H28   H     H_    0.240463 0.579192 0.752978 0.201521
H29   H     H_    0.641431 0.132662 0.527004 0.197710
H30   H     H_    0.740461 0.079194 0.752977 0.201519
H31   H     H_    0.235607 0.579629 0.588737 0.199060
H32   H     H_    0.147019 0.632620 0.691182 0.191940
H33   H     H_    0.735606 0.079631 0.588736 0.199060
H34   H     H_    0.972957 0.920775 0.430401 0.134575
H35   H     H_    0.647015 0.132621 0.691179 0.191939
H36   H     H_    0.062230 0.588000 0.331024 0.123369
H37   H     H_    0.031805 0.588238 0.742596 0.099827
H38   H     H_    0.562231 0.088000 0.331024 0.123370
H39   H     H_    0.531805 0.088238 0.742596 0.099833
H40   H     H_    0.707151 0.413840 0.729560 0.172925
H41   H     H_    0.281978 0.414099 0.323639 0.169562
H42   H     H_    0.207151 0.913841 0.729563 0.172923
H43   H     H_    0.781971 0.914100 0.323655 0.169573
H44   H     H_    0.064994 0.415249 0.335317 0.116033
H45   H     H_    0.471121 0.582330 0.436351 0.128115
H46   H     H_    0.033593 0.414430 0.743225 0.141004
H47   H     H_    0.564994 0.915249 0.335317 0.116036
H48   H     H_    0.533593 0.914430 0.743224 0.141048
H49   H     H_    0.706016 0.586735 0.734097 0.112186
H50   H     H_    0.286534 0.586880 0.321641 0.135468
H51   H     H_    0.206017 0.086735 0.734105 0.112155
H52   H     H_    0.786527 0.086881 0.321649 0.135463
H53   H     H_    0.971435 0.658114 0.180910 0.131946
H54   H     H_    0.019324 0.662787 0.821355 0.133745
H55   H     H_    0.471416 0.158110 0.180907 0.131951
H56   H     H_    0.515178 0.579430 0.654611 0.121570
H57   H     H_    0.519325 0.162787 0.821356 0.133737
H58   H     H_    0.374571 0.497457 0.580076 0.121481
H59   H     H_    0.610143 0.502734 0.501172 0.133403
H60   H     H_    0.874575 0.997439 0.580103 0.121481
H61   H     H_    0.110131 0.002753 0.501175 0.133396
H62   H     H_    0.725426 0.736014 0.692529 0.332856
H63   H     H_    0.282821 0.730751 0.315958 0.335364
H64   H     H_    0.225489 0.236045 0.692580 0.332840
H65   H     H_    0.782820 0.230750 0.315961 0.335357
H66   H     H_    0.765986 0.386411 0.019480 0.303523
H67   H     H_    0.971102 0.082341 0.436385 0.128109
H68   H     H_    0.234463 0.384914 0.984221 0.306459
H69   H     H_    0.266017 0.886410 0.019539 0.303527
H70   H     H_    0.734385 0.884925 0.984063 0.306426
H71   H     H_    0.056303 0.349257 0.232865 0.320969
H72   H     H_    0.945227 0.353351 0.761645 0.334393
H73   H     H_    0.556305 0.849257 0.232865 0.320974
H74   H     H_    0.445233 0.853348 0.761648 0.334366
H75   H     H_    0.774993 0.296323 0.798879 0.321905
H76   H     H_    0.235240 0.299541 0.202951 0.319645
H77   H     H_    0.274990 0.796324 0.798879 0.321908
H78   H     H_    0.015172 0.079421 0.654649 0.121548
H79   H     H_    0.735269 0.799553 0.202970 0.319656
H80   H     H_    0.125752 0.786908 0.031107 0.162113
N1    N     N_R   0.892620 0.603790 0.941770 -0.066397
N2    N     N_R   0.973690 0.529110 0.793240 -0.034275
N3    N     N_R   0.526310 0.029110 0.206760 -0.041349
N4    N     N_R   0.473690 0.029110 0.793240 -0.034278
N5    N     N_R   0.818570 0.472310 0.793020 -0.040007
N6    N     N_R   0.181430 0.472310 0.206980 -0.043235
N7    N     N_R   0.318570 0.972310 0.793020 -0.040008
N8    N     N_R   0.681430 0.972310 0.206980 -0.043224
N9    N     N_R   0.026930 0.472300 0.207330 -0.055424
N10   N     N_R   0.973070 0.472300 0.792670 -0.050542
N11   N     N_R   0.526930 0.972300 0.207330 -0.055423
N12   N     N_R   0.107380 0.603790 0.058230 -0.066935
N13   N     N_R   0.473070 0.972300 0.792670 -0.050555
N14   N     N_R   0.817960 0.529130 0.792460 -0.032869
N15   N     N_R   0.182040 0.529130 0.207540 -0.040436
N16   N     N_R   0.317960 0.029130 0.792460 -0.032866
N17   N     N_R   0.682040 0.029130 0.207540 -0.040437
N18   N     N_R   0.894850 0.397640 0.943830 -0.104492
N19   N     N_R   0.105150 0.397640 0.056170 -0.105706
N20   N     N_R   0.394850 0.897640 0.943830 -0.104492
N21   N     N_R   0.605150 0.897640 0.056170 -0.105694
N22   N     N_R   0.950040 0.603780 0.055950 -0.047663
N23   N     N_R   0.392620 0.103790 0.941770 -0.066393
N24   N     N_R   0.049960 0.603780 0.944050 -0.048493
N25   N     N_R   0.450040 0.103780 0.055950 -0.047651
N26   N     N_R   0.549960 0.103780 0.944050 -0.048497
N27   N     N_R   0.607380 0.103790 0.058230 -0.066937
N28   N     N_R   0.952270 0.397640 0.058010 -0.144528
N29   N     N_R   0.047730 0.397640 0.941990 -0.141012
N30   N     N_R   0.452270 0.897640 0.058010 -0.144523
N31   N     N_R   0.547730 0.897640 0.941990 -0.141035
N32   N     N_R   0.026310 0.529110 0.206760 -0.041351
Ni1   Ni    Ni4+2 0.934160 0.565860 0.869070 0.265057
Ni2   Ni    Ni4+2 0.065840 0.565860 0.130930 0.249883
Ni3   Ni    Ni4+2 0.434160 0.065860 0.869070 0.265055
Ni4   Ni    Ni4+2 0.565840 0.065860 0.130930 0.249887
Ni5   Ni    Ni4+2 0.067260 0.435560 0.132230 0.221585
Ni6   Ni    Ni4+2 0.932740 0.435560 0.867770 0.236647
Ni7   Ni    Ni4+2 0.567260 0.935560 0.132230 0.221580
Ni8   Ni    Ni4+2 0.432740 0.935560 0.867770 0.236645
O1    O     O_2   0.815574 0.654876 0.732920 -0.661882
O2    O     O_3   0.282521 0.362283 0.987624 -0.748472
O3    O     O_3   0.230045 0.863380 0.036996 -0.740738
O4    O     O_3   0.782257 0.862282 0.987089 -0.748526
O5    O     O_3   0.995485 0.329878 0.196550 -0.725795
O6    O     O_3   0.000295 0.328842 0.803879 -0.731344
O7    O     O_3   0.495487 0.829878 0.196550 -0.725790
O8    O     O_3   0.500304 0.828840 0.803883 -0.731227
O9    O     O_3   0.798360 0.333253 0.801712 -0.765357
O10   O     O_3   0.211299 0.336264 0.200206 -0.778532
O11   O     O_3   0.298358 0.833253 0.801713 -0.765361
O12   O     O_R   0.750736 0.722960 0.770038 -0.792660
O13   O     O_3   0.711313 0.836273 0.200213 -0.778557
O14   O     O_2   0.169775 0.659393 0.259748 -0.681029
O15   O     O_R   0.259869 0.717290 0.239482 -0.785821
O16   O     O_2   0.315554 0.154875 0.732911 -0.661879
O17   O     O_R   0.250795 0.222985 0.770084 -0.792667
O18   O     O_2   0.669768 0.159394 0.259743 -0.681027
O19   O     O_R   0.759870 0.217288 0.239485 -0.785821
O20   O     O_3   0.730026 0.363383 0.036956 -0.740731

loop_
_geom_bond_atom_site_label_1
_geom_bond_atom_site_label_2
_ccdc_geom_bond_type
N12   N24   A    
H74   O8    S    
N15   Ni2   S    
C87   C91   A    
N2    N10   A    
C76   H10   S    
H72   O6    S    
C34   C42   S    
C26   H1    S    
N6    N15   A    
H71   O5    S    
C92   H22   S    
N21   Ni7   S    
N32   Ni2   S    
C97   C98   S    
C9    H54   S    
N2    Ni1   S    
N11   Ni7   S    
C57   C62   A    
C39   C41   S    
C54   C65   A    
H69   O3    S    
C86   C90   A    
C8    H53   S    
N31   Ni8   S    
C99   H33   S    
C26   C27   S    
C29   N12   A    
C98   H32   S    
N24   Ni1   S    
C7    O13   S    
C101  N32   A    
N7    Ni8   S    
N29   Ni6   S    
C32   C36   S    
C4    O9    S    
C78   H13   S    
C82   H21   S    
C10   C15   A    
C102  N2    A    
C65   C69   A    
C71   C76   S    
C53   C64   A    
C78   C80   S    
C19   O16   D    
C47   C82   S    
C108  H42   S    
C2    C102  A    
C49   C54   A    
C5    N19   A    
C4    C62   A    
H76   O10   S    
N9    N32   A    
C52   C95   S    
C59   O7    S    
C11   C16   A    
C32   C39   S    
C37   C42   S    
C58   O6    S    
C33   H60   S    
N22   Ni2   S    
C57   O5    S    
H65   O19   S    
C10   N25   A    
C25   C37   S    
C91   C96   A    
H79   O13   S    
C21   C104  A    
C105  N5    A    
C61   C66   A    
C19   O17   S    
C97   H27   S    
C88   C92   A    
C51   N27   A    
C83   C98   S    
N19   Ni5   S    
C89   C106  S    
H73   O7    S    
C24   C38   S    
C16   C51   A    
C116  H51   S    
C2    C88   S    
C16   C68   S    
N4    Ni3   S    
C45   C49   A    
C39   H45   S    
C86   C100  S    
C5    O10   S    
C67   C71   A    
C77   H11   S    
C25   C109  A    
C98   H28   S    
C83   C88   A    
C99   H29   S    
C26   C31   S    
C44   C79   S    
C80   H15   S    
C75   H5    S    
C13   C91   S    
C5    C73   A    
C97   H31   S    
C36   C41   S    
N18   Ni6   S    
C1    C12   A    
C11   N26   A    
H68   O2    S    
C107  H41   S    
C3    H52   S    
C90   C94   A    
C87   C99   S    
C21   C90   S    
C77   C79   S    
C100  H35   S    
H77   O11   S    
C48   C53   A    
C15   C69   S    
C12   C67   S    
C63   C67   A    
C2    C111  A    
C59   N30   A    
C4    N18   A    
C60   O8    S    
C30   C34   S    
C50   C84   S    
C33   C43   S    
C6    O11   S    
C3    C25   A    
C6    C84   A    
C59   C84   A    
C54   O2    S    
C107  N6    A    
C21   C113  A    
C104  N4    A    
C76   C82   S    
C108  N7    A    
C112  H47   S    
C63   H2    S    
C85   C89   A    
C86   C87   A    
C75   C81   S    
C81   H16   S    
C17   O12   S    
C27   C35   S    
C10   H55   S    
C79   H14   S    
C96   H26   S    
N8    N17   A    
C8    N22   A    
C28   H23   S    
N30   Ni7   S    
C30   C37   S    
H66   O20   S    
C45   C74   A    
C75   H9    S    
N20   N30   A    
C32   H59   S    
C35   C39   S    
N28   Ni5   S    
C72   C77   S    
C77   H7    S    
N23   N25   A    
C46   C81   S    
H63   O15   S    
C27   H12   S    
C103  H38   S    
C48   C62   S    
C99   C100  S    
C61   H80   S    
C28   C38   S    
C18   O15   S    
C8    C12   A    
C23   C107  A    
N3    N11   A    
C14   C66   S    
C56   C63   A    
C69   C74   A    
C55   O3    S    
C18   C29   S    
C103  N3    A    
C13   C112  A    
C115  H50   S    
C94   C96   A    
N1    Ni1   S    
C80   H19   S    
C102  H37   S    
C47   C71   A    
N17   Ni4   S    
N18   N28   A    
C22   C36   S    
N21   N31   A    
H70   O4    S    
C9    N24   A    
C26   C36   S    
C53   O20   S    
C28   C33   S    
C24   C116  A    
C23   C35   S    
C43   H78   S    
C40   N23   A    
C111  H46   S    
H75   O9    S    
H62   O12   S    
N7    N16   A    
C13   C103  A    
C42   C43   S    
C14   C29   A    
C64   H3    S    
N1    N22   A    
C109  H43   S    
C64   C68   A    
N5    N14   A    
C110  H44   S    
N27   Ni4   S    
C20   O19   S    
C106  C110  A    
C101  C106  A    
N16   Ni3   S    
C79   H18   S    
C11   H57   S    
C31   C41   S    
C30   H34   S    
C83   C85   A    
C27   C32   S    
C34   C38   S    
C94   H25   S    
C56   O4    S    
C109  N8    A    
C1    N1    A    
C42   H67   S    
N4    N13   A    
C112  N11   A    
N23   Ni3   S    
N3    Ni4   S    
C31   C35   S    
N26   Ni3   S    
C114  H49   S    
H64   O17   S    
C20   O18   D    
C47   C52   A    
C58   N29   A    
C68   C72   A    
C20   C51   S    
C22   C105  A    
C7    C95   A    
C45   C80   S    
C46   C50   A    
C101  H36   S    
C1    C17   S    
C50   C55   A    
C115  N15   A    
N10   Ni6   S    
C60   N31   A    
C76   H6    S    
C114  N14   A    
C82   H17   S    
N9    Ni5   S    
N13   Ni8   S    
C113  N13   A    
C38   C43   S    
C116  N16   A    
C93   H24   S    
C41   H56   S    
N6    Ni5   S    
N5    Ni6   S    
C66   C70   A    
C111  N10   A    
C18   O14   D    
N20   Ni8   S    
C55   C61   A    
N25   Ni4   S    
C28   C30   S    
C92   C93   A    
N14   Ni1   S    
C9    C14   A    
C44   C72   A    
C110  N9    A    
C49   C73   S    
C104  H39   S    
C89   C93   A    
N26   N27   A    
C33   C37   S    
C15   C40   A    
C46   C70   A    
N8    Ni7   S    
C85   C97   S    
C19   C40   S    
C65   H4    S    
C23   C115  A    
C7    N21   A    
C60   C95   A    
C44   C48   A    
C3    N17   A    
C22   C114  A    
C105  H40   S    
C6    N20   A    
C74   C78   S    
C100  H30   S    
C70   C75   S    
C34   H61   S    
N19   N29   A    
C81   H20   S    
C31   H58   S    
C24   C108  A    
C52   C56   A    
C58   C73   A    
N12   Ni2   S    
C78   H8    S    
C113  H48   S    
C57   N28   A    
C17   O1    D    
