data_mof_unit_42115.cif
_audit_creation_date              2012-12-11T16:45:52-0500
_audit_creation_method            fapswitch 2.2
_symmetry_space_group_name_H-M    P1
_symmetry_Int_Tables_number       1
_space_group_crystal_system       triclinic
_cell_length_a                    19.820021
_cell_length_b                    16.94936
_cell_length_c                    15.829846
_cell_angle_alpha                 89.999473
_cell_angle_beta                  52.810104
_cell_angle_gamma                 89.999855
_cell_volume                      4236.37424442

loop_
_atom_site_label
_atom_site_type_symbol
_atom_type_description
_atom_site_fract_x
_atom_site_fract_y
_atom_site_fract_z
_atom_type_partial_charge
C1    C     C_R   0.879874 0.695430 0.985661 -0.106027
C2    C     C_R   0.208351 0.345799 0.984560 0.154310
C3    C     C_3   0.623994 0.142647 0.342709 -0.949777
C4    C     C_1   0.842580 0.755115 0.189931 -0.014827
C5    C     C_1   0.157350 0.755149 0.810093 -0.014866
C6    C     C_1   0.342563 0.255097 0.189929 -0.014831
C7    C     C_1   0.657462 0.255093 0.810059 -0.014809
C8    C     C_R   0.291654 0.845799 0.015428 0.154316
C9    C     C_R   0.708365 0.845811 0.984537 0.154290
C10   C     C_R   0.824505 0.656353 0.319456 0.017516
C11   C     C_R   0.175456 0.656383 0.680555 0.017512
C12   C     C_R   0.324522 0.156355 0.319452 0.017528
C13   C     C_R   0.675514 0.156339 0.680544 0.017511
C14   C     C_R   0.703883 0.677860 0.506534 0.139195
C15   C     C_R   0.296086 0.677904 0.493489 0.139181
C16   C     C_R   0.203908 0.177847 0.506541 0.139206
C17   C     C_R   0.120131 0.695428 0.014330 -0.106100
C18   C     C_R   0.796141 0.177858 0.493470 0.139183
C19   C     C_R   0.774379 0.706562 0.409464 0.057834
C20   C     C_R   0.225573 0.706596 0.590550 0.057830
C21   C     C_R   0.274388 0.206560 0.409464 0.057829
C22   C     C_R   0.725638 0.206552 0.590539 0.057843
C23   C     C_R   0.307918 0.281453 0.403524 -0.187383
C24   C     C_R   0.692076 0.281425 0.596472 -0.187362
C25   C     C_R   0.807936 0.781437 0.403533 -0.187395
C26   C     C_R   0.192006 0.781465 0.596475 -0.187357
C27   C     C_R   0.275826 0.323740 0.494912 -0.208806
C28   C     C_R   0.379879 0.195430 0.985654 -0.106066
C29   C     C_R   0.724160 0.323705 0.505080 -0.208825
C30   C     C_R   0.775850 0.823715 0.494925 -0.208823
C31   C     C_R   0.224101 0.823743 0.505077 -0.208811
C32   C     C_R   0.216249 0.288190 0.592322 0.027216
C33   C     C_R   0.783763 0.288163 0.407672 0.027182
C34   C     C_R   0.716252 0.788169 0.592331 0.027242
C35   C     C_R   0.283714 0.788200 0.407675 0.027160
C36   C     C_R   0.683968 0.714042 0.596683 0.099779
C37   C     C_R   0.316007 0.714080 0.403335 0.099846
C38   C     C_R   0.183989 0.214046 0.596682 0.099795
C39   C     C_R   0.620115 0.195432 0.014353 -0.106033
C40   C     C_R   0.816058 0.214041 0.403321 0.099822
C41   C     C_3   0.685066 0.636582 0.642973 -0.080743
C42   C     C_3   0.314951 0.636614 0.357025 -0.080756
C43   C     C_3   0.185118 0.136600 0.642976 -0.080760
C44   C     C_3   0.814993 0.136578 0.357012 -0.080732
C45   C     C_R   0.868992 0.312721 0.216182 -0.151466
C46   C     C_R   0.131014 0.312731 0.783817 -0.151503
C47   C     C_R   0.368967 0.812742 0.216184 -0.151465
C48   C     C_R   0.631009 0.812722 0.783820 -0.151482
C49   C     C_3   0.686539 0.597557 0.555239 -0.587569
C50   C     C_R   0.833942 0.337320 0.317130 0.059496
C51   C     C_3   0.313461 0.597599 0.444778 -0.587566
C52   C     C_3   0.186595 0.097548 0.555252 -0.587544
C53   C     C_3   0.813506 0.097556 0.444761 -0.587573
C54   C     C_2   0.692409 0.238178 0.091511 -0.222874
C55   C     C_2   0.307586 0.238177 0.908496 -0.222871
C56   C     C_2   0.192417 0.738183 0.091492 -0.222889
C57   C     C_2   0.807592 0.738183 0.908483 -0.222841
C58   C     C_2   0.217180 0.807046 0.039706 -0.191742
C59   C     C_2   0.782862 0.807071 0.960220 -0.191639
C60   C     C_2   0.717162 0.307052 0.039741 -0.191690
C61   C     C_R   0.166066 0.337339 0.682872 0.059488
C62   C     C_2   0.282840 0.307055 0.960255 -0.191691
C63   C     C_R   0.831505 0.409845 0.948213 -0.150074
C64   C     C_R   0.168495 0.409844 0.051786 -0.150077
C65   C     C_R   0.331510 0.909844 0.948204 -0.150085
C66   C     C_R   0.668503 0.909852 0.051772 -0.150070
C67   C     C_R   0.870835 0.592480 0.313572 -0.156344
C68   C     C_R   0.129144 0.592496 0.686433 -0.156353
C69   C     C_R   0.370853 0.092487 0.313567 -0.156350
C70   C     C_R   0.629177 0.092474 0.686426 -0.156329
C71   C     C_R   0.843014 0.317570 0.040397 -0.113671
C72   C     C_R   0.333905 0.837352 0.317128 0.059493
C73   C     C_R   0.156988 0.317572 0.959602 -0.113685
C74   C     C_R   0.343014 0.817570 0.040390 -0.113683
C75   C     C_R   0.656997 0.817580 0.959588 -0.113685
C76   C     C_R   0.859021 0.680424 0.217839 0.073014
C77   C     C_R   0.140949 0.680445 0.782169 0.073040
C78   C     C_R   0.359026 0.180421 0.217839 0.073016
C79   C     C_R   0.640994 0.180412 0.782160 0.073003
C80   C     C_R   0.873449 0.406529 0.313320 -0.123351
C81   C     C_R   0.126558 0.406544 0.686684 -0.123336
C82   C     C_R   0.373425 0.906550 0.313319 -0.123326
C83   C     C_R   0.666063 0.837324 0.682873 0.059505
C84   C     C_R   0.626554 0.906530 0.686681 -0.123369
C85   C     C_R   0.864633 0.602889 0.899008 -0.162441
C86   C     C_R   0.135372 0.602888 0.100984 -0.162382
C87   C     C_R   0.364631 0.102888 0.899012 -0.162342
C88   C     C_R   0.635363 0.102889 0.100997 -0.162379
C89   C     C_R   0.849303 0.680908 0.929594 0.149567
C90   C     C_R   0.150705 0.680905 0.070393 0.149630
C91   C     C_R   0.349306 0.180906 0.929593 0.149622
C92   C     C_R   0.650686 0.180909 0.070419 0.149593
C93   C     C_3   0.769813 0.617004 0.624043 -0.327529
C94   C     C_R   0.791650 0.345798 0.015439 0.154300
C95   C     C_3   0.787393 0.662908 0.691867 -0.285107
C96   C     C_3   0.876105 0.642716 0.657198 -0.949905
C97   C     C_3   0.230228 0.617001 0.375911 -0.327562
C98   C     C_3   0.212618 0.662940 0.308139 -0.284997
C99   C     C_3   0.123935 0.642688 0.342747 -0.950226
C100  C     C_3   0.269877 0.117065 0.624039 -0.327508
C101  C     C_3   0.287455 0.163037 0.691819 -0.285044
C102  C     C_3   0.376183 0.142918 0.657138 -0.950137
C103  C     C_3   0.730268 0.116972 0.375902 -0.327553
C104  C     C_3   0.712666 0.162909 0.308119 -0.285077
H1    H     H_    0.897770 0.752444 0.995796 0.104766
H2    H     H_    0.373405 0.624273 0.275972 0.133583
H3    H     H_    0.126689 0.124240 0.724042 0.133580
H4    H     H_    0.873444 0.124237 0.275956 0.133586
H5    H     H_    0.736238 0.552462 0.507976 0.190306
H6    H     H_    0.263768 0.552497 0.492032 0.190306
H7    H     H_    0.236305 0.052461 0.507994 0.190296
H8    H     H_    0.763808 0.052459 0.492021 0.190306
H9    H     H_    0.623026 0.575997 0.583465 0.190082
H10   H     H_    0.376973 0.576055 0.416577 0.190086
H11   H     H_    0.123086 0.075965 0.583488 0.190071
H12   H     H_    0.102240 0.752443 0.004187 0.104790
H13   H     H_    0.877017 0.076007 0.416553 0.190090
H14   H     H_    0.716848 0.217031 0.132389 0.140869
H15   H     H_    0.283144 0.217026 0.867621 0.140864
H16   H     H_    0.216827 0.717061 0.132408 0.140895
H17   H     H_    0.783144 0.717032 0.867614 0.140822
H18   H     H_    0.192813 0.828956 0.998645 0.135051
H19   H     H_    0.807280 0.829016 0.001218 0.134999
H20   H     H_    0.692764 0.328983 0.998722 0.135035
H21   H     H_    0.307243 0.328989 0.001270 0.135027
H22   H     H_    0.863480 0.255244 0.191990 0.086507
H23   H     H_    0.397777 0.252445 0.995789 0.104765
H24   H     H_    0.136524 0.255256 0.808009 0.086510
H25   H     H_    0.363446 0.755269 0.191996 0.086509
H26   H     H_    0.636516 0.755245 0.808015 0.086504
H27   H     H_    0.810630 0.443330 0.909769 0.101543
H28   H     H_    0.189370 0.443328 0.090231 0.101537
H29   H     H_    0.310641 0.943325 0.909750 0.101529
H30   H     H_    0.689381 0.943338 0.090212 0.101536
H31   H     H_    0.870535 0.566822 0.376029 0.094613
H32   H     H_    0.129447 0.566835 0.623978 0.094604
H33   H     H_    0.370570 0.066838 0.376015 0.094606
H34   H     H_    0.602209 0.252446 0.004228 0.104750
H35   H     H_    0.629487 0.066817 0.623962 0.094598
H36   H     H_    0.836251 0.264093 0.081123 0.078614
H37   H     H_    0.163757 0.264101 0.918867 0.078611
H38   H     H_    0.336247 0.764092 0.081110 0.078612
H39   H     H_    0.663769 0.764109 0.918852 0.078621
H40   H     H_    0.868936 0.434175 0.378041 0.094256
H41   H     H_    0.131073 0.434199 0.621966 0.094249
H42   H     H_    0.368900 0.934202 0.378044 0.094251
H43   H     H_    0.631067 0.934175 0.621958 0.094256
H44   H     H_    0.858070 0.575067 0.842955 0.106818
H45   H     H_    0.298820 0.382857 0.490077 0.136343
H46   H     H_    0.141945 0.575062 0.157026 0.106793
H47   H     H_    0.358059 0.075062 0.842968 0.106761
H48   H     H_    0.641930 0.075065 0.157046 0.106765
H49   H     H_    0.362433 0.305262 0.329589 0.140781
H50   H     H_    0.637545 0.305221 0.670405 0.140772
H51   H     H_    0.862464 0.805237 0.329603 0.140792
H52   H     H_    0.137469 0.805259 0.670402 0.140788
H53   H     H_    0.879564 0.579502 0.672705 0.257165
H54   H     H_    0.924090 0.654629 0.571250 0.264786
H55   H     H_    0.892623 0.679551 0.700024 0.257409
H56   H     H_    0.701142 0.382810 0.509908 0.136355
H57   H     H_    0.785294 0.727235 0.681360 0.215031
H58   H     H_    0.739308 0.647371 0.776688 0.181681
H59   H     H_    0.769863 0.552921 0.639247 0.185025
H60   H     H_    0.823494 0.627912 0.539355 0.200784
H61   H     H_    0.120570 0.579512 0.327049 0.257207
H62   H     H_    0.075936 0.654444 0.428719 0.264824
H63   H     H_    0.107359 0.679595 0.300048 0.257456
H64   H     H_    0.214643 0.727260 0.318750 0.215054
H65   H     H_    0.260733 0.647481 0.223297 0.181665
H66   H     H_    0.230233 0.552928 0.360626 0.185051
H67   H     H_    0.798863 0.882822 0.490098 0.136356
H68   H     H_    0.176530 0.627848 0.460608 0.200766
H69   H     H_    0.379667 0.079753 0.672765 0.257188
H70   H     H_    0.424148 0.154734 0.571169 0.264795
H71   H     H_    0.392713 0.179867 0.699852 0.257506
H72   H     H_    0.285322 0.227353 0.681283 0.215069
H73   H     H_    0.239386 0.147519 0.776648 0.181642
H74   H     H_    0.269941 0.052994 0.639290 0.185023
H75   H     H_    0.323550 0.127946 0.539341 0.200778
H76   H     H_    0.620658 0.079463 0.326958 0.257125
H77   H     H_    0.575975 0.154380 0.428715 0.264744
H78   H     H_    0.201083 0.882847 0.509898 0.136362
H79   H     H_    0.607410 0.179580 0.300017 0.257374
H80   H     H_    0.714682 0.227230 0.318740 0.215044
H81   H     H_    0.760789 0.147456 0.223275 0.181659
H82   H     H_    0.730265 0.052898 0.360626 0.185060
H83   H     H_    0.676573 0.127828 0.460599 0.200737
H84   H     H_    0.626629 0.624226 0.724035 0.133587
N1    N     N_R   0.908660 0.628630 0.995840 -0.051430
N2    N     N_R   0.096530 0.421430 0.063580 -0.041798
N3    N     N_R   0.403470 0.921430 0.936420 -0.041796
N4    N     N_R   0.596530 0.921430 0.063580 -0.041798
N5    N     N_R   0.927500 0.575670 0.211370 -0.045360
N6    N     N_R   0.072500 0.575670 0.788630 -0.045361
N7    N     N_R   0.427500 0.075670 0.211370 -0.045361
N8    N     N_R   0.572500 0.075670 0.788630 -0.045361
N9    N     N_R   0.908660 0.365680 0.995820 -0.047143
N10   N     N_R   0.091340 0.365680 0.004180 -0.047141
N11   N     N_R   0.408660 0.865680 0.995820 -0.047139
N12   N     N_R   0.091340 0.628630 0.004160 -0.051427
N13   N     N_R   0.591340 0.865680 0.004180 -0.047142
N14   N     N_R   0.922310 0.631420 0.151980 -0.064322
N15   N     N_R   0.077690 0.631420 0.848020 -0.064321
N16   N     N_R   0.422310 0.131420 0.151980 -0.064325
N17   N     N_R   0.577690 0.131420 0.848020 -0.064326
N18   N     N_R   0.927500 0.426330 0.211360 -0.037197
N19   N     N_R   0.072500 0.426330 0.788640 -0.037197
N20   N     N_R   0.427500 0.926330 0.211360 -0.037202
N21   N     N_R   0.572500 0.926330 0.788640 -0.037194
N22   N     N_R   0.903470 0.570760 0.936440 -0.040024
N23   N     N_R   0.408660 0.128630 0.995840 -0.051431
N24   N     N_R   0.096530 0.570760 0.063560 -0.040033
N25   N     N_R   0.403470 0.070760 0.936440 -0.040040
N26   N     N_R   0.596530 0.070760 0.063560 -0.040031
N27   N     N_1   0.828202 0.816022 0.170945 -0.109653
N28   N     N_1   0.171690 0.816066 0.829097 -0.109667
N29   N     N_1   0.328166 0.315992 0.170945 -0.109664
N30   N     N_1   0.671865 0.315993 0.829033 -0.109656
N31   N     N_R   0.591340 0.128630 0.004160 -0.051431
N32   N     N_R   0.922310 0.368460 0.151950 -0.037698
N33   N     N_R   0.077690 0.368460 0.848050 -0.037693
N34   N     N_R   0.422310 0.868460 0.151950 -0.037702
N35   N     N_R   0.577690 0.868460 0.848050 -0.037693
N36   N     N_R   0.903470 0.421430 0.936420 -0.041797
Ni1   Ni    Ni4+2 0.000000 0.630300 0.000000 0.211309
Ni2   Ni    Ni4+2 0.500000 0.130300 0.000000 0.211292
Ni3   Ni    Ni4+2 0.000000 0.369700 0.000000 0.209154
Ni4   Ni    Ni4+2 0.500000 0.869700 0.000000 0.209154
Ni5   Ni    Ni4+2 0.988090 0.497570 0.863760 0.210329
Ni6   Ni    Ni4+2 0.011910 0.497570 0.136240 0.210331
Ni7   Ni    Ni4+2 0.488090 0.997570 0.863760 0.210324
Ni8   Ni    Ni4+2 0.511910 0.997570 0.136240 0.210326

loop_
_geom_bond_atom_site_label_1
_geom_bond_atom_site_label_2
_ccdc_geom_bond_type
C3    C104  S    
N13   Ni4   S    
C49   H9    S    
C12   C69   A    
C13   C79   A    
C16   C21   A    
C75   H39   S    
C87   C91   A    
C25   H51   S    
C88   H48   S    
C96   H54   S    
C95   C96   S    
C85   H44   S    
N9    N36   A    
N26   Ni8   S    
C85   N22   A    
C82   N20   A    
C97   C98   S    
C75   N13   A    
C71   C94   A    
C73   H37   S    
C10   C67   A    
C11   C68   A    
C28   N23   A    
C104  H81   S    
C63   C94   A    
N12   N24   A    
C46   N33   A    
C88   N26   A    
C47   H25   S    
C39   N31   A    
C35   C37   A    
C86   N24   A    
C32   C61   S    
N1    N22   A    
C86   H46   S    
C14   C36   A    
C53   H13   S    
C43   C52   S    
C6    C78   S    
C14   C49   S    
N18   Ni6   S    
C13   C70   A    
C93   H59   S    
N20   N34   A    
C55   C62   D    
C29   C33   A    
C69   N7    A    
C17   N12   A    
N21   Ni7   S    
C37   C42   S    
C60   H20   S    
C23   H49   S    
C18   C40   A    
C9    C66   A    
C15   C37   A    
C55   C91   S    
C11   C77   A    
C18   C53   S    
C8    C58   S    
C66   H30   S    
C98   H65   S    
C26   H52   S    
C44   C53   S    
C41   C93   S    
C88   C92   A    
C2    C64   A    
C80   H40   S    
N23   Ni2   S    
C12   C78   A    
C13   C22   S    
N4    N13   A    
C15   C51   S    
N14   Ni1   S    
N11   Ni4   S    
C45   H22   S    
C34   C36   A    
N25   Ni7   S    
C28   H23   S    
C42   C51   S    
C81   N19   A    
C99   H62   S    
C56   C90   S    
C96   H53   S    
C74   H38   S    
C39   H34   S    
C100  H74   S    
C70   H35   S    
C27   H45   S    
C4    N27   T    
C87   H47   S    
C59   H19   S    
C56   H16   S    
N6    Ni5   S    
C48   H26   S    
C36   C41   S    
N8    N17   A    
C103  H82   S    
C10   C76   A    
N5    Ni6   S    
C77   N15   A    
C41   C49   S    
C82   H42   S    
C44   C103  S    
C24   H50   S    
C71   N9    A    
C29   H56   S    
C99   H63   S    
C23   C27   A    
C44   H4    S    
C69   H33   S    
C15   C20   A    
C30   H67   S    
C11   C20   S    
C58   H18   S    
C33   C40   A    
C30   C34   A    
C46   C61   A    
C51   H10   S    
C101  C102  S    
C64   H28   S    
C68   H32   S    
C103  H83   S    
C43   C100  S    
C86   C90   A    
C95   H58   S    
C85   C89   A    
C84   N21   A    
N19   Ni5   S    
C54   C60   D    
N7    N16   A    
C93   H60   S    
N18   N32   A    
C102  H71   S    
C79   N17   A    
C5    N28   T    
C80   N18   A    
C12   C21   S    
C97   H66   S    
N32   Ni3   S    
C66   N4    A    
C102  H69   S    
C67   H31   S    
C3    H76   S    
C54   C92   S    
C6    N29   T    
N24   Ni6   S    
C8    C65   A    
C83   C84   A    
N8    Ni7   S    
N34   Ni4   S    
C10   C19   S    
N3    N11   A    
C73   N10   A    
C8    C74   A    
C87   N25   A    
N17   Ni2   S    
C43   H3    S    
C24   C29   A    
C3    H77   S    
C2    C73   A    
C57   C89   S    
C63   H27   S    
N20   Ni8   S    
C65   H29   S    
N9    Ni3   S    
C53   H8    S    
C70   N8    A    
N23   N25   A    
C47   N34   A    
C35   C72   S    
N19   N33   A    
C51   H6    S    
C32   C38   A    
C21   C23   A    
C31   H78   S    
C65   N3    A    
N21   N35   A    
C5    C77   S    
C22   C24   A    
C42   C97   S    
C102  H70   S    
C34   C83   S    
N2    Ni6   S    
N16   Ni2   S    
C54   H14   S    
C39   C92   A    
N15   Ni1   S    
N10   Ni3   S    
N2    N10   A    
C7    C79   S    
C52   H11   S    
C46   H24   S    
C25   C30   A    
N4    Ni8   S    
C1    C89   A    
C104  H80   S    
C27   C32   A    
C18   C22   A    
C26   C31   A    
C14   C19   A    
N1    Ni1   S    
C17   C90   A    
C16   C52   S    
C78   N16   A    
C50   C80   A    
C62   H21   S    
C64   N2    A    
C7    N30   T    
C71   H36   S    
C48   N35   A    
C84   H43   S    
N33   Ni3   S    
C81   H41   S    
C52   H7    S    
C48   C83   A    
N26   N31   A    
C55   H15   S    
C95   H57   S    
C33   C50   S    
C49   H5    S    
C38   C43   S    
C61   C81   A    
N36   Ni5   S    
N35   Ni4   S    
C93   C95   S    
C20   C26   A    
C45   C50   A    
N6    N15   A    
C31   C35   A    
C100  C101  S    
N22   Ni5   S    
C56   C58   D    
N7    Ni8   S    
C28   C91   A    
C76   N14   A    
N12   Ni1   S    
N31   Ni2   S    
C1    N1    A    
C19   C25   A    
C98   H64   S    
C47   C72   A    
C4    C76   S    
C57   C59   D    
N5    N14   A    
C57   H17   S    
C42   H2    S    
C40   C44   S    
C96   H55   S    
C74   N11   A    
C41   H84   S    
N3    Ni7   S    
C98   C99   S    
C16   C38   A    
C103  C104  S    
C45   N32   A    
C63   N36   A    
C101  H72   S    
C68   N6    A    
C9    C75   A    
C9    C59   S    
C67   N5    A    
C100  H75   S    
C3    H79   S    
C97   H68   S    
C101  H73   S    
C72   C82   A    
C2    C62   S    
C17   H12   S    
C1    H1    S    
C99   H61   S    
C60   C94   S    
