data_mof_unit_19759.cif
_audit_creation_date              2012-12-11T16:26:27-0500
_audit_creation_method            fapswitch 2.2
_symmetry_space_group_name_H-M    P1
_symmetry_Int_Tables_number       1
_space_group_crystal_system       triclinic
_cell_length_a                    14.018947
_cell_length_b                    14.018956
_cell_length_c                    31.938007
_cell_angle_alpha                 89.998388
_cell_angle_beta                  90.001422
_cell_angle_gamma                 120.002409
_cell_volume                      5435.74364615

loop_
_atom_site_label
_atom_site_type_symbol
_atom_type_description
_atom_site_fract_x
_atom_site_fract_y
_atom_site_fract_z
_atom_type_partial_charge
C1    C     C_R   0.568013 0.443819 0.810603 0.551209
C2    C     C_R   0.443814 0.568019 0.189394 0.551214
C3    C     C_R   0.431984 0.875795 0.310605 0.551297
C4    C     C_R   0.124212 0.556187 0.189393 0.551213
C5    C     C_1   0.004233 0.522321 0.018680 0.173628
C6    C     C_1   0.518761 0.996572 0.481232 0.173207
C7    C     C_1   0.477703 0.481720 0.018703 0.173614
C8    C     C_1   0.004087 0.522769 0.481303 0.173076
C9    C     C_1   0.518202 0.996000 0.018705 0.173609
C10   C     C_1   0.477704 0.481544 0.481277 0.173463
C11   C     C_1   0.522628 0.004364 0.518666 0.173195
C12   C     C_R   0.875812 0.431990 0.689396 0.551266
C13   C     C_1   0.996417 0.518425 0.981248 0.173665
C14   C     C_1   0.481603 0.477654 0.518712 0.173349
C15   C     C_1   0.522108 0.003803 0.981272 0.173622
C16   C     C_1   0.996326 0.518904 0.518740 0.173054
C17   C     C_1   0.481602 0.477817 0.981269 0.173638
C18   C     C_R   0.929361 0.469536 0.851718 -0.088211
C19   C     C_R   0.540143 0.070756 0.648252 -0.088255
C20   C     C_R   0.530493 0.459837 0.851723 -0.088235
C21   C     C_R   0.929398 0.469527 0.648280 -0.088257
C22   C     C_R   0.540181 0.070660 0.851724 -0.088201
C23   C     C_R   0.556180 0.124188 0.810602 0.551207
C24   C     C_R   0.530507 0.459825 0.648269 -0.088173
C25   C     C_R   0.469563 0.929395 0.351713 -0.088181
C26   C     C_R   0.070779 0.540211 0.148254 -0.088216
C27   C     C_R   0.459823 0.530495 0.351729 -0.088232
C28   C     C_R   0.469471 0.929273 0.148264 -0.088208
C29   C     C_R   0.070648 0.540090 0.351732 -0.088299
C30   C     C_R   0.459807 0.530528 0.148264 -0.088230
C31   C     C_R   0.924739 0.555271 0.872743 -0.097056
C32   C     C_R   0.630244 0.074444 0.627364 -0.097149
C33   C     C_R   0.444573 0.369549 0.872712 -0.097053
C34   C     C_R   0.568018 0.443816 0.689394 0.551282
C35   C     C_R   0.925874 0.556071 0.627426 -0.097197
C36   C     C_R   0.630549 0.075294 0.872749 -0.097055
C37   C     C_R   0.444463 0.369547 0.627307 -0.097186
C38   C     C_R   0.555568 0.925126 0.372680 -0.097198
C39   C     C_R   0.075279 0.630537 0.127249 -0.097093
C40   C     C_R   0.369540 0.444511 0.372701 -0.097154
C41   C     C_R   0.555263 0.924726 0.127251 -0.097084
C42   C     C_R   0.073811 0.630046 0.372541 -0.097152
C43   C     C_R   0.369501 0.444628 0.127274 -0.097096
C44   C     C_R   0.951888 0.574672 0.915058 0.388894
C45   C     C_R   0.875810 0.431991 0.810602 0.551186
C46   C     C_R   0.622686 0.047529 0.585024 0.388966
C47   C     C_R   0.425182 0.377242 0.915033 0.388947
C48   C     C_R   0.953019 0.575631 0.585108 0.388832
C49   C     C_R   0.622835 0.048222 0.915071 0.388812
C50   C     C_R   0.425072 0.377194 0.584981 0.388825
C51   C     C_R   0.575081 0.952340 0.414989 0.388631
C52   C     C_R   0.048335 0.622886 0.084914 0.388833
C53   C     C_R   0.377203 0.425100 0.415024 0.389011
C54   C     C_R   0.574596 0.951750 0.084924 0.388817
C55   C     C_R   0.046805 0.622531 0.414874 0.389024
C56   C     C_R   0.556181 0.124216 0.689391 0.551258
C57   C     C_R   0.377162 0.425274 0.084946 0.388885
C58   C     C_R   0.984869 0.509190 0.936677 0.031690
C59   C     C_R   0.524672 0.015759 0.563244 0.031242
C60   C     C_R   0.490868 0.475582 0.936695 0.031641
C61   C     C_R   0.984859 0.509462 0.563316 0.031167
C62   C     C_R   0.524394 0.015302 0.936698 0.031670
C63   C     C_R   0.490887 0.475479 0.563287 0.031302
C64   C     C_R   0.509433 0.985025 0.436659 0.031389
C65   C     C_R   0.015687 0.524552 0.063255 0.031613
C66   C     C_R   0.475505 0.490830 0.436703 0.031481
C67   C     C_R   0.443816 0.568015 0.310605 0.551242
C68   C     C_R   0.508983 0.984522 0.063279 0.031625
C69   C     C_R   0.015484 0.524706 0.436725 0.031145
C70   C     C_R   0.475487 0.490977 0.063279 0.031592
C71   C     C_R   0.997503 0.428688 0.915253 0.195387
C72   C     C_R   0.431721 0.004050 0.584529 0.195008
C73   C     C_R   0.571570 0.568669 0.915307 0.195305
C74   C     C_R   0.996415 0.428093 0.584575 0.194866
C75   C     C_R   0.431246 0.002650 0.915275 0.195328
C76   C     C_R   0.571721 0.568567 0.584647 0.194984
C77   C     C_R   0.428649 0.997317 0.415288 0.194964
C78   C     C_R   0.431983 0.875799 0.189395 0.551184
C79   C     C_R   0.003182 0.431437 0.084655 0.195292
C80   C     C_R   0.568589 0.571600 0.415331 0.195165
C81   C     C_R   0.428412 0.997074 0.084688 0.195349
C82   C     C_R   0.004286 0.431864 0.415512 0.194898
C83   C     C_R   0.568588 0.571663 0.084666 0.195311
C84   C     C_R   0.969889 0.409298 0.872914 -0.104939
C85   C     C_R   0.439740 0.031369 0.626889 -0.105038
C86   C     C_R   0.590937 0.560504 0.872963 -0.104976
C87   C     C_R   0.968852 0.408583 0.626912 -0.105058
C88   C     C_R   0.439434 0.030185 0.872928 -0.104937
C89   C     C_R   0.124189 0.556169 0.310605 0.551259
C90   C     C_R   0.591082 0.560447 0.626997 -0.104958
C91   C     C_R   0.409155 0.969646 0.372957 -0.104929
C92   C     C_R   0.030577 0.439559 0.127013 -0.104964
C93   C     C_R   0.560455 0.590987 0.372986 -0.104957
C94   C     C_R   0.409099 0.969598 0.127040 -0.104952
C95   C     C_R   0.031677 0.439837 0.373162 -0.105095
C96   C     C_R   0.560456 0.590993 0.127017 -0.104972
Cl1   Cl    Cl    0.960080 0.305462 0.058702 -0.381488
Cl2   Cl    Cl    0.305138 0.959188 0.941186 -0.381909
Cl3   Cl    Cl    0.038501 0.344574 0.558473 -0.380289
Cl4   Cl    Cl    0.654443 0.694657 0.941257 -0.381489
Cl5   Cl    Cl    0.345833 0.040494 0.441244 -0.381755
Cl6   Cl    Cl    0.694557 0.654560 0.058708 -0.381360
Cl7   Cl    Cl    0.962879 0.306490 0.441689 -0.379672
Cl8   Cl    Cl    0.345640 0.040339 0.058753 -0.381607
Cl9   Cl    Cl    0.694532 0.654530 0.441304 -0.380997
Cl10  Cl    Cl    0.306125 0.962074 0.558433 -0.380184
Cl11  Cl    Cl    0.041050 0.346095 0.941153 -0.381786
Cl12  Cl    Cl    0.654767 0.694490 0.558655 -0.381095
Cr1   Cr    Cr6+3 0.504240 0.249200 0.750000 1.054318
Cr2   Cr    Cr6+3 0.744960 0.495760 0.750000 1.054326
Cr3   Cr    Cr6+3 0.750800 0.255040 0.750000 1.054332
Cr4   Cr    Cr6+3 0.249200 0.504240 0.250000 1.054295
Cr5   Cr    Cr6+3 0.495760 0.744960 0.250000 1.054338
Cr6   Cr    Cr6+3 0.255040 0.750800 0.250000 1.054352
F1    F     F_    0.060019 0.713182 0.064565 -0.523404
F2    F     F_    0.713168 0.060061 0.935444 -0.523485
F3    F     F_    0.942321 0.655022 0.564904 -0.523145
F4    F     F_    0.346477 0.286977 0.935370 -0.523323
F5    F     F_    0.653870 0.940873 0.435306 -0.523423
F6    F     F_    0.286882 0.346586 0.064610 -0.523300
F7    F     F_    0.057117 0.712525 0.435031 -0.523011
F8    F     F_    0.653167 0.940018 0.064566 -0.523418
F9    F     F_    0.286942 0.346326 0.435344 -0.522983
F10   F     F_    0.712798 0.058368 0.564792 -0.523062
F11   F     F_    0.940067 0.653171 0.935431 -0.523374
F12   F     F_    0.346230 0.286929 0.564672 -0.523070
H1    H     H_    0.893757 0.603026 0.857228 0.179264
H2    H     H_    0.603120 0.893899 0.142789 0.179254
H3    H     H_    0.103497 0.708359 0.356831 0.179176
H4    H     H_    0.290857 0.396691 0.142830 0.179249
H5    H     H_    0.025877 0.368739 0.142628 0.190534
H6    H     H_    0.342906 0.974179 0.357372 0.190636
H7    H     H_    0.631261 0.657170 0.142619 0.190533
H8    H     H_    0.028018 0.369285 0.357713 0.190773
H9    H     H_    0.343007 0.974334 0.142660 0.190515
H10   H     H_    0.631243 0.657227 0.357398 0.190597
H11   H     H_    0.369083 0.027306 0.642403 0.190709
H12   H     H_    0.708683 0.104490 0.643016 0.179110
H13   H     H_    0.974694 0.343259 0.857281 0.190489
H14   H     H_    0.657372 0.631235 0.642575 0.190625
H15   H     H_    0.368580 0.025367 0.857294 0.190493
H16   H     H_    0.972796 0.341896 0.642400 0.190735
H17   H     H_    0.657125 0.631300 0.857361 0.190530
H18   H     H_    0.396649 0.290894 0.857160 0.179281
H19   H     H_    0.895793 0.604424 0.643084 0.179181
H20   H     H_    0.709273 0.106235 0.857228 0.179300
H21   H     H_    0.396428 0.290924 0.642885 0.179138
H22   H     H_    0.603477 0.894385 0.357123 0.179243
H23   H     H_    0.106010 0.709186 0.142799 0.179265
H24   H     H_    0.290910 0.396546 0.357136 0.179092
O1    O     O_R   0.480350 0.140770 0.796330 -0.504478
O2    O     O_R   0.140770 0.480350 0.203670 -0.504521
O3    O     O_R   0.519650 0.660420 0.296330 -0.504523
O4    O     O_R   0.339580 0.859230 0.203670 -0.504552
O5    O     O_R   0.514930 0.348530 0.793250 -0.496299
O6    O     O_R   0.833600 0.485070 0.706750 -0.496304
O7    O     O_R   0.651470 0.166400 0.793250 -0.496323
O8    O     O_R   0.514930 0.348530 0.706750 -0.496368
O9    O     O_R   0.833600 0.485070 0.793250 -0.496351
O10   O     O_R   0.651470 0.166400 0.706750 -0.496297
O11   O     O_R   0.348530 0.514930 0.293250 -0.496355
O12   O     O_R   0.660420 0.519650 0.703670 -0.504459
O13   O     O_R   0.485070 0.833600 0.206750 -0.496334
O14   O     O_R   0.166400 0.651470 0.293250 -0.496236
O15   O     O_R   0.348530 0.514930 0.206750 -0.496315
O16   O     O_R   0.485070 0.833600 0.293250 -0.496354
O17   O     O_R   0.166400 0.651470 0.206750 -0.496342
O18   O     O_3   0.666667 0.333333 0.750000 -0.249300
O19   O     O_3   0.333333 0.666667 0.250000 -0.249312
O20   O     O_R   0.859230 0.339580 0.796330 -0.504510
O21   O     O_R   0.480350 0.140770 0.703670 -0.504650
O22   O     O_R   0.660420 0.519650 0.796330 -0.504573
O23   O     O_R   0.859230 0.339580 0.703670 -0.504543
O24   O     O_R   0.140770 0.480350 0.296330 -0.504684
O25   O     O_R   0.519650 0.660420 0.203670 -0.504558
O26   O     O_R   0.339580 0.859230 0.296330 -0.504390

loop_
_geom_bond_atom_site_label_1
_geom_bond_atom_site_label_2
_ccdc_geom_bond_type
C19   C56   S    
C73   Cl4   S    
Cr4   O24   S    
C21   C87   A    
C65   C79   A    
C83   Cl6   S    
C71   Cl11  S    
C29   C42   A    
Cr6   O19   S    
C64   C77   A    
C60   C73   A    
C77   Cl5   S    
C45   O9    A    
C31   H1    S    
C93   H10   S    
C45   O20   A    
C7    C70   S    
C55   F7    S    
C72   C85   A    
Cr2   O12   S    
Cr2   O9    S    
Cr6   O17   S    
Cr4   O11   S    
C41   C54   A    
C8    C69   S    
C3    O26   A    
C68   C81   A    
Cr1   O1    S    
C2    O25   A    
C58   C71   A    
C54   C68   A    
C63   C76   A    
C35   C48   A    
C26   C92   A    
C28   C41   A    
C28   C94   A    
C35   H19   S    
C6    C64   S    
C1    O5    A    
C30   C96   A    
C69   C82   A    
C47   C60   A    
Cr2   O18   S    
C47   F4    S    
C84   H13   S    
C44   C58   A    
C7    C17   T    
Cr1   O5    S    
C20   C86   A    
C51   F5    S    
C82   Cl7   S    
Cr4   O2    S    
C50   F12   S    
C22   C88   A    
C57   C70   A    
C82   C95   A    
C28   C78   S    
C89   O14   A    
C5    C13   T    
C59   C72   A    
Cr5   O25   S    
Cr6   O26   S    
C39   C52   A    
C54   F8    S    
C78   O13   A    
C8    C16   T    
C50   C63   A    
C41   H2    S    
C46   F10   S    
C89   O24   A    
C12   O6    A    
C11   C59   S    
Cr1   O8    S    
C29   C89   S    
C18   C31   A    
C86   H17   S    
C24   C37   A    
C10   C66   S    
C33   H18   S    
C4    C26   S    
C4    O2    A    
C44   F11   S    
C25   C91   A    
C31   C44   A    
C3    C25   S    
C92   H5    S    
Cr2   O6    S    
C5    C65   S    
C53   F9    S    
Cr5   O16   S    
C29   C95   A    
C78   O4    A    
Cr5   O19   S    
C91   H6    S    
C34   O12   A    
C96   H7    S    
C80   Cl9   S    
C75   Cl2   S    
C24   C34   S    
Cr3   O10   S    
C36   C49   A    
C32   H12   S    
C70   C83   A    
Cr1   O18   S    
C25   C38   A    
Cr5   O13   S    
C67   O11   A    
Cr6   O14   S    
Cr4   O19   S    
C27   C40   A    
C19   C32   A    
C94   H9    S    
C40   H24   S    
C55   C69   A    
C37   H21   S    
C53   C66   A    
C2    O15   A    
C38   H22   S    
C79   C92   A    
C74   Cl3   S    
C57   F6    S    
C21   C35   A    
C20   C33   A    
C34   O8    A    
C36   H20   S    
C72   Cl10  S    
C56   O21   A    
C10   C14   T    
C74   C87   A    
C30   C43   A    
C27   C93   A    
C16   C61   S    
C62   C75   A    
C18   C45   S    
C85   H11   S    
C88   H15   S    
C6    C11   T    
C66   C80   A    
C71   C84   A    
C52   F1    S    
C13   C58   S    
C23   O1    A    
C77   C91   A    
C1    C20   S    
C49   C62   A    
Cr3   O23   S    
C32   C46   A    
C79   Cl1   S    
C43   H4    S    
C51   C64   A    
Cr5   O3    S    
C19   C85   A    
C24   C90   A    
C90   H14   S    
C48   F3    S    
C38   C51   A    
C61   C74   A    
C22   C36   A    
C39   H23   S    
C1    O22   A    
C4    O17   A    
C2    C30   S    
C67   O3    A    
Cr3   O20   S    
C9    C15   T    
C9    C68   S    
C18   C84   A    
C56   O10   A    
C81   C94   A    
C48   C61   A    
C83   C96   A    
C42   C55   A    
C33   C47   A    
Cr4   O15   S    
C23   O7    A    
C37   C50   A    
C15   C62   S    
C42   H3    S    
C14   C63   S    
C95   H8    S    
C87   H16   S    
Cr3   O7    S    
C26   C39   A    
C73   C86   A    
C27   C67   S    
C43   C57   A    
C17   C60   S    
C12   C21   S    
C75   C88   A    
C49   F2    S    
C46   C59   A    
C76   Cl12  S    
C40   C53   A    
C22   C23   S    
Cr3   O18   S    
C80   C93   A    
Cr6   O4    S    
C52   C65   A    
Cr1   O21   S    
C3    O16   A    
C76   C90   A    
C12   O23   A    
C81   Cl8   S    
Cr2   O22   S    
