data_mof_unit_22868.cif
_audit_creation_date              2012-12-10T19:10:05-0500
_audit_creation_method            fapswitch 2.2
_symmetry_space_group_name_H-M    P1
_symmetry_Int_Tables_number       1
_space_group_crystal_system       triclinic
_cell_length_a                    10.880622
_cell_length_b                    10.810925
_cell_length_c                    9.553864
_cell_angle_alpha                 90.411593
_cell_angle_beta                  90.87424
_cell_angle_gamma                 90.131199
_cell_volume                      1123.65404085

loop_
_atom_site_label
_atom_site_type_symbol
_atom_type_description
_atom_site_fract_x
_atom_site_fract_y
_atom_site_fract_z
_atom_type_partial_charge
C1    C     C_R   0.495364 0.262345 0.499201 0.793012
C2    C     C_R   0.250713 0.795219 0.101830 -0.257945
C3    C     C_R   0.932400 0.557698 0.393481 -0.243324
C4    C     C_R   0.872523 0.499660 0.504496 -0.114022
C5    C     C_R   0.943308 0.449111 0.616209 0.026500
C6    C     C_R   0.070025 0.443314 0.603431 -0.166342
C7    C     C_R   0.129103 0.502319 0.494478 -0.083955
C8    C     C_R   0.060189 0.563848 0.389864 0.049595
C9    C     C_R   0.940763 0.482525 0.875345 0.467012
C10   C     C_R   0.905768 0.444974 0.009312 -0.262120
C11   C     C_R   0.822788 0.347892 0.025345 -0.171911
C12   C     C_R   0.262576 0.502794 0.498382 0.800610
C13   C     C_R   0.777169 0.284460 0.908011 -0.132842
C14   C     C_R   0.814215 0.317752 0.773630 -0.161428
C15   C     C_R   0.895237 0.417528 0.756056 0.025777
C16   C     C_R   0.461037 0.064843 0.620432 0.127983
C17   C     C_R   0.478019 0.129418 0.496369 -0.098292
C18   C     C_R   0.475824 0.063606 0.368872 -0.234796
C19   C     C_R   0.476585 0.934650 0.369305 -0.215855
C20   C     C_R   0.479297 0.870778 0.497198 -0.093078
C21   C     C_R   0.462078 0.937193 0.620820 0.152450
C22   C     C_3   0.536406 0.933462 0.752725 -0.501513
C23   C     C_R   0.495882 0.737742 0.499800 0.800667
C24   C     C_3   0.534145 0.072990 0.753188 -0.488470
C25   C     C_R   0.538307 0.601748 0.075536 0.287117
C26   C     C_R   0.449890 0.404875 0.072686 -0.101162
C27   C     C_R   0.449671 0.404998 0.923940 -0.076429
C28   C     C_R   0.537855 0.601968 0.928075 0.245750
C29   C     C_3   0.662566 0.657353 0.927252 -0.522876
C30   C     C_3   0.662185 0.658788 0.085567 -0.527665
C31   C     C_R   0.738054 0.499160 0.501604 0.779125
C32   C     C_R   0.190895 0.848428 0.215539 -0.204112
C33   C     C_R   0.122798 0.774391 0.306436 0.477380
C34   C     C_R   0.118702 0.645081 0.285448 -0.019808
C35   C     C_R   0.174468 0.593469 0.167098 -0.135891
C36   C     C_R   0.240928 0.668201 0.076616 -0.093823
Cu1   Cu    Cu3+1 0.499990 0.499980 0.640670 0.946321
Cu2   Cu    Cu3+1 0.500010 0.500020 0.359330 0.939543
H1    H     H_    0.302834 0.852695 0.031784 0.144865
H2    H     H_    0.794952 0.320810 0.129073 0.164135
H3    H     H_    0.714743 0.208106 0.922743 0.133820
H4    H     H_    0.781173 0.265482 0.683534 0.131015
H5    H     H_    0.481616 0.110885 0.269620 0.158622
H6    H     H_    0.482632 0.885934 0.270209 0.167794
H7    H     H_    0.485402 0.891691 0.840645 0.196584
H8    H     H_    0.629674 0.896726 0.733526 0.199142
H9    H     H_    0.480990 0.112913 0.840919 0.187970
H10   H     H_    0.626100 0.113959 0.736266 0.197170
H11   H     H_    0.410692 0.327018 0.126751 0.133674
H12   H     H_    0.197866 0.947152 0.233646 0.147683
H13   H     H_    0.409815 0.327565 0.867273 0.136452
H14   H     H_    0.728762 0.592384 0.881332 0.227489
H15   H     H_    0.664145 0.750963 0.883421 0.195970
H16   H     H_    0.731363 0.596301 0.133064 0.218470
H17   H     H_    0.659629 0.753555 0.131350 0.184085
H18   H     H_    0.169801 0.494748 0.147487 0.148792
H19   H     H_    0.283380 0.627789 0.985612 0.157402
H20   H     H_    0.879511 0.604962 0.313388 0.129010
H21   H     H_    0.123873 0.398867 0.685331 0.160284
H22   H     H_    0.942501 0.491591 0.100988 0.144732
N1    N     N_R   0.500790 0.500930 0.147930 -0.180090
N2    N     N_R   0.500790 0.500890 0.852020 -0.178956
O1    O     O_R   0.500000 0.319640 0.618810 -0.586297
O2    O     O_R   0.500010 0.319680 0.381230 -0.591092
O3    O     O_R   0.319640 0.499990 0.618790 -0.575268
O4    O     O_R   0.319650 0.500030 0.381210 -0.582226
O5    O     O_R   0.499990 0.680320 0.618770 -0.578284
O6    O     O_R   0.500000 0.680360 0.381190 -0.581223
O7    O     O_R   0.680350 0.499970 0.618790 -0.579290
O8    O     O_R   0.680360 0.500010 0.381210 -0.581800
O9    O     O_3   0.066227 0.827819 0.420328 -0.626182
C37   C     C_3   0.951884 0.879548 0.378398 0.033430
H23   H     H_    0.879073 0.835301 0.441302 0.165115
H24   H     H_    0.925853 0.863355 0.265949 0.111936
C38   C     C_3   0.952767 0.018878 0.408401 -0.328460
H25   H     H_    0.984026 0.036346 0.518064 0.233235
H26   H     H_    0.018407 0.064960 0.337549 0.207350
C39   C     C_3   0.825316 0.075321 0.386939 -0.934839
H27   H     H_    0.792606 0.060502 0.277357 0.257093
H28   H     H_    0.829527 0.176384 0.408397 0.251127
H29   H     H_    0.758723 0.033008 0.459615 0.258384
O10   O     O_3   0.029378 0.573779 0.860629 -0.623096
C40   C     C_3   0.979699 0.692324 0.887543 0.029679
H30   H     H_    0.055635 0.752494 0.925304 0.194582
H31   H     H_    0.910836 0.693299 0.972414 0.132638
C41   C     C_3   0.928812 0.750445 0.753007 -0.332614
H32   H     H_    0.998893 0.743624 0.670045 0.275938
H33   H     H_    0.845556 0.699908 0.716097 0.205054
C42   C     C_3   0.896880 0.886453 0.776590 -0.943759
H34   H     H_    0.834995 0.897232 0.867190 0.251382
H35   H     H_    0.849651 0.923515 0.682269 0.255438
H36   H     H_    0.981866 0.941270 0.796754 0.264749

loop_
_geom_bond_atom_site_label_1
_geom_bond_atom_site_label_2
_ccdc_geom_bond_type
Cu2   O8    S    
C16   C21   A    
Cu1   O7    S    
C19   C20   A    
C13   H3    S    
Cu1   N2    S    
C7    C8    A    
C25   C28   A    
C30   H16   S    
C26   C27   A    
C29   C30   S    
C28   C29   S    
C26   N1    A    
C18   C19   A    
C5    C6    A    
C41   H33   S    
C2    C32   A    
C34   C35   A    
C23   O5    A    
C2    H1    S    
C31   O8    A    
Cu2   O4    S    
C16   C17   A    
Cu1   O3    S    
C42   H35   S    
C9    C10   A    
C9    O10   S    
C14   H4    S    
Cu2   N1    S    
C16   C24   S    
C21   C22   S    
C37   C38   S    
C1    O1    A    
Cu1   O1    S    
C27   H13   S    
C33   C34   A    
Cu2   O2    S    
C7    C12   S    
C24   H10   S    
C37   H24   S    
C3    C8    A    
C26   H11   S    
C41   H32   S    
C37   H23   S    
C8    C34   S    
C12   O4    A    
C35   C36   A    
C23   O6    A    
C10   H22   S    
C38   H25   S    
Cu1   Cu2   S    
C27   N2    A    
C40   H30   S    
C20   C23   S    
C22   H7    S    
C17   C18   A    
C25   N1    A    
C42   H36   S    
C38   H26   S    
C32   H12   S    
C40   H31   S    
Cu2   O6    S    
C36   H19   S    
C22   C24   S    
C3    C4    A    
C1    O2    A    
C19   H6    S    
C30   H17   S    
C2    C36   A    
C25   C30   S    
C22   H8    S    
C35   H18   S    
C39   H27   S    
C24   H9    S    
C6    H21   S    
C4    C5    A    
C41   C42   S    
C6    C7    A    
C12   O3    A    
C1    C17   S    
C32   C33   A    
C9    C15   A    
O9    C37   S    
C18   H5    S    
C11   C13   A    
C39   H29   S    
C29   H15   S    
Cu1   O5    S    
C39   H28   S    
C11   H2    S    
C38   C39   S    
C5    C15   S    
C4    C31   S    
C10   C11   A    
C33   O9    S    
C3    H20   S    
C31   O7    A    
C40   C41   S    
C20   C21   A    
O10   C40   S    
C14   C15   A    
C42   H34   S    
C13   C14   A    
C29   H14   S    
C28   N2    A    
