data_mof_unit_35606.cif
_audit_creation_date              2012-12-10T20:27:15-0500
_audit_creation_method            fapswitch 2.2
_symmetry_space_group_name_H-M    P1
_symmetry_Int_Tables_number       1
_space_group_crystal_system       triclinic
_cell_length_a                    10.814245
_cell_length_b                    10.737701
_cell_length_c                    9.924262
_cell_angle_alpha                 89.814534
_cell_angle_beta                  104.363904
_cell_angle_gamma                 91.331897
_cell_volume                      1116.07651903

loop_
_atom_site_label
_atom_site_type_symbol
_atom_type_description
_atom_site_fract_x
_atom_site_fract_y
_atom_site_fract_z
_atom_type_partial_charge
C1    C     C_R   0.500039 0.260286 0.499984 0.851671
C2    C     C_R   0.608614 0.527873 0.101042 0.406451
C3    C     C_R   0.610301 0.520234 0.957306 0.426120
C4    C     C_R   0.259488 0.502949 0.441347 0.952306
C5    C     C_R   0.387836 0.492690 0.898949 0.077968
C6    C     C_3   0.288711 0.391182 0.864206 -0.493509
C7    C     C_3   0.298850 0.377848 0.019258 0.374093
C8    C     C_R   0.504360 0.739714 0.500658 0.839275
C9    C     C_R   0.740538 0.497852 0.558780 0.912899
C10   C     C_2   0.122588 0.497397 0.406949 -0.443443
C11   C     C_2   0.062391 0.530038 0.503529 0.401674
C12   C     C_R   0.509367 0.128703 0.499334 -0.008337
C13   C     C_2   0.877299 0.506283 0.593823 -0.502625
C14   C     C_2   0.938826 0.472088 0.499145 0.488647
C15   C     C_R   0.572185 0.065198 0.618072 -0.128514
C16   C     C_3   0.890845 0.270472 0.433101 -0.322425
C17   C     C_3   0.780369 0.167880 0.803415 -0.269757
C18   C     C_3   0.740789 0.685599 0.206938 -0.269113
C19   C     C_3   0.816811 0.458426 0.977855 -0.205967
C20   C     C_3   0.121861 0.293543 0.076639 -0.349724
C21   C     C_3   0.116819 0.729396 0.575326 -0.242871
C22   C     C_3   0.492497 0.845357 0.940601 -0.242566
C23   C     C_R   0.467269 0.063548 0.373507 -0.195833
C24   C     C_3   0.775438 0.807520 0.797194 -0.308234
C25   C     C_2   0.449017 0.108849 0.798877 0.408521
C26   C     C_R   0.470544 0.934900 0.373749 -0.216244
C27   C     C_R   0.517571 0.871689 0.499592 -0.039030
C28   C     C_R   0.581098 0.938804 0.617863 -0.141305
C29   C     C_3   0.589458 0.927313 0.772335 0.884130
C30   C     C_3   0.573768 0.070560 0.770909 0.356427
C31   C     C_R   0.388826 0.487218 0.041102 0.049107
H1    H     H_    0.195180 0.426430 0.804788 0.253309
H2    H     H_    0.834457 0.252477 0.511121 0.143972
H3    H     H_    0.752370 0.244806 0.727792 0.164748
H4    H     H_    0.814351 0.087189 0.753959 0.172942
H5    H     H_    0.862188 0.201596 0.887045 0.165656
H6    H     H_    0.823113 0.706823 0.296262 0.169085
H7    H     H_    0.657160 0.734701 0.225845 0.153981
H8    H     H_    0.765985 0.721765 0.111905 0.190852
H9    H     H_    0.883722 0.501708 0.069760 0.213601
H10   H     H_    0.873296 0.437601 0.901780 0.171707
H11   H     H_    0.778181 0.368140 0.007824 0.169629
H12   H     H_    0.320982 0.310020 0.815902 0.190757
H13   H     H_    0.178870 0.242899 0.168405 0.168941
H14   H     H_    0.101967 0.233192 0.982348 0.161149
H15   H     H_    0.029381 0.314974 0.099140 0.180262
H16   H     H_    0.160526 0.788217 0.667275 0.218554
H17   H     H_    0.016309 0.758745 0.534946 0.121207
H18   H     H_    0.172367 0.746764 0.496286 0.162329
H19   H     H_    0.527559 0.931743 0.001037 0.135668
H20   H     H_    0.555377 0.767595 0.982056 0.170933
H21   H     H_    0.396274 0.821635 0.955117 0.171210
H22   H     H_    0.814269 0.853360 0.715417 0.128871
H23   H     H_    0.348000 0.292102 0.067065 0.056001
H24   H     H_    0.714088 0.726570 0.753961 0.237579
H25   H     H_    0.857533 0.772387 0.877659 0.211655
H26   H     H_    0.448864 0.144445 0.901018 0.032770
H27   H     H_    0.924632 0.557922 0.687074 0.172822
H28   H     H_    0.073591 0.448895 0.312266 0.180377
H29   H     H_    0.424607 0.110846 0.277102 0.144812
H30   H     H_    0.428669 0.885373 0.277679 0.153377
H31   H     H_    0.992295 0.245125 0.476085 0.154781
H32   H     H_    0.850851 0.208959 0.342429 0.200002
N1    N     N_R   0.499160 0.499140 0.142600 -0.198852
N2    N     N_R   0.499160 0.499180 0.856960 -0.152913
O1    O     O_R   0.500020 0.316790 0.614700 -0.609301
O2    O     O_3   0.678576 0.134362 0.863353 -0.623592
O3    O     O_3   0.720269 0.555494 0.199206 -0.534681
O4    O     O_3   0.721812 0.543714 0.916529 -0.607892
O5    O     O_3   0.184135 0.405947 0.055096 -0.566175
O6    O     O_3   0.122087 0.603638 0.617285 -0.615678
O7    O     O_3   0.483664 0.858039 0.797057 -0.612168
O8    O     O_3   0.710107 0.893250 0.859969 -0.622926
O9    O     O_2   0.347741 0.093850 0.711906 -0.606676
O10   O     O_R   0.500000 0.316760 0.385350 -0.631665
O11   O     O_R   0.317820 0.500020 0.571850 -0.549370
O12   O     O_R   0.317800 0.499980 0.342510 -0.587524
O13   O     O_R   0.500000 0.683240 0.614650 -0.564385
O14   O     O_R   0.499980 0.683210 0.385300 -0.646936
O15   O     O_R   0.682200 0.500020 0.657490 -0.594353
O16   O     O_R   0.682180 0.499980 0.428150 -0.491480
O17   O     O_3   0.880970 0.395203 0.387691 -0.566997
Zn1   Zn    Zn3+2 0.500010 0.500020 0.653140 1.018202
Zn2   Zn    Zn3+2 0.499990 0.499980 0.346860 0.992032

loop_
_geom_bond_atom_site_label_1
_geom_bond_atom_site_label_2
_ccdc_geom_bond_type
C6    H1    S    
C7    O5    S    
C21   H18   S    
C24   H24   S    
C12   C23   A    
C26   C27   A    
C16   H31   S    
C21   O6    S    
C28   C29   S    
C3    O4    S    
C26   H30   S    
C2    O3    S    
O14   Zn2   S    
C11   C14   S    
C11   O6    S    
C24   O8    S    
N2    Zn1   S    
C29   O8    S    
C18   O3    S    
C25   O9    D    
C23   C26   A    
C9    C13   S    
N1    Zn2   S    
O1    Zn1   S    
O13   Zn1   S    
C8    O14   A    
C17   H5    S    
C20   H14   S    
C19   H11   S    
C22   H19   S    
C29   O7    S    
C13   C14   D    
C8    O13   A    
C20   O5    S    
C3    N2    A    
C1    C12   S    
C25   H26   S    
O15   Zn1   S    
O11   Zn1   S    
C22   O7    S    
C20   H13   S    
C2    N1    A    
C23   H29   S    
C17   O2    S    
C7    C31   S    
C1    O10   A    
C5    N2    A    
C19   H9    S    
C13   H27   S    
O12   Zn2   S    
C24   H22   S    
C9    O15   A    
C18   H8    S    
C29   C30   S    
C16   H2    S    
C12   C15   A    
C16   O17   S    
C1    O1    A    
C16   H32   S    
C6    H12   S    
C19   O4    S    
C17   H3    S    
C14   O17   S    
C4    C10   S    
O16   Zn2   S    
C15   C30   S    
C22   H21   S    
C25   C30   S    
C31   N1    A    
C18   H6    S    
C30   O2    S    
C6    C7    S    
C24   H25   S    
C21   H17   S    
C10   H28   S    
C18   H7    S    
C4    O12   A    
C15   C28   A    
C5    C6    S    
C2    C3    A    
O10   Zn2   S    
C4    O11   A    
C10   C11   D    
C27   C28   A    
C8    C27   S    
C17   H4    S    
C7    H23   S    
C21   H16   S    
C20   H15   S    
C19   H10   S    
C9    O16   A    
C22   H20   S    
C5    C31   A    
