data_mof_unit_61828.cif
_audit_creation_date              2013-03-05T15:41:29-0500
_audit_creation_method            fapswitch 2.2
_symmetry_space_group_name_H-M    P1
_symmetry_Int_Tables_number       1
_space_group_crystal_system       triclinic
_cell_length_a                    21.751184
_cell_length_b                    21.747732
_cell_length_c                    22.339351
_cell_angle_alpha                 59.119044
_cell_angle_beta                  119.344239
_cell_angle_gamma                 91.332308
_cell_volume                      7528.6167789

loop_
_atom_site_label
_atom_site_type_symbol
_atom_site_description
_atom_site_fract_x
_atom_site_fract_y
_atom_site_fract_z
_atom_type_partial_charge
O1    O     O_R   0.590490 0.448940 0.499990 -0.619770
O2    O     O_R   0.590420 0.551070 0.499980 -0.619395
C1    C     C_R   0.617557 0.502479 0.496687 0.976315
O3    O     O_R   0.438430 0.510550 0.376780 -0.624654
O4    O     O_R   0.438360 0.612680 0.376770 -0.604667
C2    C     C_R   0.418662 0.581967 0.337286 0.902349
Zn1   Zn    Zn3+2 0.500050 0.431810 0.500010 0.971739
Zn2   Zn    Zn3+2 0.499950 0.568190 0.499990 0.980858
O5    O     O_R   0.409580 0.448930 0.500020 -0.618134
O6    O     O_R   0.409510 0.551060 0.500010 -0.618995
O7    O     O_R   0.561640 0.387320 0.623230 -0.615240
O8    O     O_R   0.561570 0.489450 0.623220 -0.617816
C3    C     C_R   0.382420 0.497541 0.503114 0.927279
C4    C     C_R   0.581305 0.418034 0.662743 0.903965
C5    C     C_3   0.292005 0.752947 0.971071 -0.273965
C6    C     C_3   0.301953 0.782289 0.023884 0.269608
H1    H     H_    0.326350 0.754312 0.946801 0.175305
C7    C     C_1   0.374030 0.627815 0.248343 -0.157126
C8    C     C_1   0.124894 0.874392 0.751560 -0.167095
C9    C     C_3   0.280493 0.681512 0.030292 -0.179571
C10   C     C_3   0.290883 0.712040 0.082445 0.038296
C11   C     C_3   0.195898 0.721802 0.974763 -0.179928
C12   C     C_3   0.208159 0.792503 0.917318 0.096305
C13   C     C_3   0.206622 0.751626 0.028241 -0.335302
C14   C     C_3   0.218978 0.821938 0.969871 0.462713
C15   C     C_1   0.336396 0.666195 0.173328 0.031659
C16   C     C_1   0.162343 0.837270 0.826528 0.024468
H2    H     H_    0.172513 0.750157 0.052791 0.154865
H3    H     H_    0.151631 0.697373 0.952694 0.156657
H4    H     H_    0.306334 0.622742 0.056672 0.157556
C17   C     C_2   0.755831 0.486970 0.445597 0.517596
C18   C     C_2   0.816733 0.488385 0.503961 -0.420457
H5    H     H_    0.821524 0.478231 0.559300 0.128084
C19   C     C_2   0.694001 0.476983 0.456738 -0.315019
C20   C     C_2   0.677137 0.511544 0.484338 -0.380907
H6    H     H_    0.662153 0.442171 0.441410 0.175936
H7    H     H_    0.704996 0.551099 0.493367 0.161488
C21   C     C_3   0.710190 0.218595 0.029484 0.583511
C22   C     C_3   0.695706 0.303864 0.971646 -0.321354
H8    H     H_    0.649727 0.349413 0.947054 0.156772
H9    H     H_    0.804892 0.327998 0.047191 0.159138
C23   C     C_1   0.625717 0.372271 0.751744 -0.173917
C24   C     C_1   0.875177 0.125440 0.248299 -0.171800
C25   C     C_3   0.721664 0.203410 0.974845 -0.317840
C26   C     C_3   0.708599 0.288634 0.917694 0.070716
C27   C     C_3   0.805821 0.192239 0.028451 -0.320044
C28   C     C_3   0.792904 0.207489 0.082382 0.070172
C29   C     C_3   0.791310 0.277534 0.970579 0.582989
C30   C     C_3   0.779829 0.292717 0.025203 -0.318935
C31   C     C_1   0.663174 0.334166 0.826787 0.012833
C32   C     C_1   0.838104 0.162539 0.173277 0.013746
H10   H     H_    0.851809 0.146690 0.053063 0.157880
H11   H     H_    0.696594 0.168145 0.952836 0.161248
C33   C     C_2   0.245457 0.506184 0.556899 -0.157141
C34   C     C_2   0.182839 0.510624 0.495490 -0.318828
H12   H     H_    0.249249 0.499122 0.610527 0.164068
H13   H     H_    0.176337 0.526185 0.437577 0.160101
C35   C     C_2   0.308822 0.515011 0.549803 -0.158122
C36   C     C_2   0.321265 0.489448 0.512395 -0.325914
H14   H     H_    0.346379 0.540097 0.577603 0.166646
H15   H     H_    0.288727 0.456761 0.493224 0.168757
O9    O     O_R   0.051050 0.909420 0.500010 -0.619902
O10   O     O_R   0.948920 0.909510 0.500030 -0.621861
C37   C     C_R   0.000601 0.879275 0.503020 0.927145
O11   O     O_R   0.112670 0.938280 0.623210 -0.605258
O12   O     O_R   0.010540 0.938370 0.623230 -0.616834
C38   C     C_R   0.081027 0.918554 0.662674 0.912590
Zn3   Zn    Zn3+2 0.068190 0.999870 0.499990 1.011721
Zn4   Zn    Zn3+2 0.931810 0.999990 0.500010 0.974056
O13   O     O_R   0.051080 0.090340 0.499970 -0.570209
O14   O     O_R   0.948950 0.090430 0.499990 -0.637267
O15   O     O_R   0.989460 0.061480 0.376770 -0.620423
O16   O     O_R   0.887330 0.061570 0.376790 -0.608700
C39   C     C_R   0.999190 0.121330 0.495868 0.814560
C40   C     C_R   0.918961 0.081326 0.337276 0.898412
O17   O     O_R   0.965150 0.625240 0.430430 -0.626405
O18   O     O_R   0.034710 0.555670 0.569560 -0.622223
C41   C     C_R   0.001519 0.619748 0.498896 0.926257
O19   O     O_R   0.874770 0.534770 0.430450 -0.569978
O20   O     O_R   0.944330 0.465210 0.569580 -0.643333
C42   C     C_R   0.881149 0.497051 0.500737 0.958350
Zn5   Zn    Zn3+2 0.953560 0.546450 0.407100 0.990656
Zn6   Zn    Zn3+2 0.046440 0.453550 0.592900 0.968799
O21   O     O_R   0.965290 0.444330 0.430440 -0.629269
O22   O     O_R   0.034850 0.374760 0.569570 -0.597959
O23   O     O_R   0.055670 0.534790 0.430420 -0.618856
O24   O     O_R   0.125230 0.465230 0.569550 -0.613124
C43   C     C_R   0.995264 0.380263 0.501395 0.857806
C44   C     C_R   0.118812 0.502504 0.499220 0.954005
C45   C     C_2   0.063302 0.688648 0.555856 -0.157669
C46   C     C_2   0.005812 0.687789 0.494585 -0.327864
H16   H     H_    0.110281 0.638454 0.609480 0.164883
H17   H     H_    0.962986 0.739556 0.436639 0.160253
C47   C     C_2   0.064958 0.759085 0.548854 -0.156664
C48   C     C_2   0.001773 0.808905 0.512016 -0.330563
H18   H     H_    0.118019 0.768751 0.576431 0.167406
H19   H     H_    0.949846 0.795544 0.493036 0.160524
C49   C     C_2   0.933543 0.313615 0.439945 -0.229116
C50   C     C_2   0.983790 0.311706 0.507801 0.360387
H20   H     H_    0.894365 0.366268 0.380264 0.157761
C51   C     C_2   0.933491 0.243549 0.445363 -0.287374
C52   C     C_2   0.997402 0.194850 0.480805 0.226132
H21   H     H_    0.881455 0.230822 0.423163 0.151949
N1    N     N_R   0.359096 0.816640 0.049137 0.200554
O25   O     O_R   0.361431 0.876999 0.992176 -0.354211
O26   O     O_R   0.407704 0.787640 0.128155 -0.400548
O27   O     O_3   0.671623 0.184420 0.067274 -0.601547
C53   C     C_3   0.596668 0.203958 0.004310 0.087603
H22   H     H_    0.591270 0.183867 0.965582 0.143174
H23   H     H_    0.570021 0.265931 0.962962 0.135157
C54   C     C_3   0.555520 0.166868 0.045554 -0.770748
H24   H     H_    0.559023 0.186445 0.083986 0.254317
H25   H     H_    0.496354 0.181844 0.996562 0.207725
H26   H     H_    0.580182 0.104747 0.086593 0.263364
O28   O     O_3   0.829811 0.311736 0.932709 -0.603835
C55   C     C_3   0.904772 0.292275 0.995595 0.095088
H27   H     H_    0.931444 0.230299 0.037059 0.137495
H28   H     H_    0.910180 0.312506 0.034209 0.140351
C56   C     C_3   0.945861 0.329270 0.954238 -0.795872
H29   H     H_    0.921172 0.391393 0.913075 0.258732
H30   H     H_    0.005036 0.314362 0.003159 0.204519
H31   H     H_    0.942331 0.309554 0.915909 0.256807
O29   O     O_3   0.027618 0.243746 0.586129 -0.562740
C57   C     C_3   0.988799 0.222062 0.625530 0.080196
H32   H     H_    0.934639 0.217184 0.586485 0.139471
H33   H     H_    0.979075 0.263262 0.637808 0.141713
C58   C     C_3   0.034741 0.145536 0.709098 -0.739700
H34   H     H_    0.088868 0.148513 0.750339 0.264031
H35   H     H_    0.004840 0.127822 0.740807 0.189516
H36   H     H_    0.044581 0.103079 0.698593 0.266710
N2    N     N_R   0.063903 0.216846 0.495836 0.249810
O30   O     O_R   0.128233 0.168728 0.562242 -0.334604
O31   O     O_R   0.061071 0.281689 0.438960 -0.386999
O32   O     O_3   0.185846 0.898042 0.931746 -0.590507
C59   C     C_3   0.193727 0.907241 0.992928 0.124809
H37   H     H_    0.252749 0.885383 0.046154 0.170206
H38   H     H_    0.160291 0.878082 0.017222 0.126845
C60   C     C_3   0.165591 0.990586 0.952992 -0.781565
H39   H     H_    0.106162 0.013756 0.900886 0.248450
H40   H     H_    0.171791 0.998699 0.000635 0.201707
H41   H     H_    0.197822 0.021483 0.927899 0.273565
O33   O     O_3   0.757065 0.485299 0.384548 -0.603872
C61   C     C_3   0.685471 0.514465 0.311059 0.111299
H42   H     H_    0.653698 0.568315 0.290925 0.157117
H43   H     H_    0.654661 0.472667 0.321276 0.136698
C62   C     C_3   0.692522 0.530086 0.240431 -0.799775
H44   H     H_    0.723231 0.477330 0.257950 0.250149
H45   H     H_    0.636604 0.552615 0.182254 0.207904
H46   H     H_    0.722771 0.572078 0.228170 0.258959

loop_
_geom_bond_atom_site_label_1
_geom_bond_atom_site_label_2
_geom_bond_distance
_ccdc_geom_bond_type
C61   C62   1.520814 S    
Zn6   O24   1.998391 S    
C10   C15   1.447114 S    
C6    C10   1.530836 S    
C11   H3    1.110054 S    
C59   C60   1.520643 S    
C34   H13   1.087075 S    
C54   H24   1.110741 S    
C7    C15   1.194362 T    
O19   Zn5   1.998385 S    
N1    O26   1.300214 A    
O29   C57   1.412070 S    
C28   C30   1.544703 S    
C9    H4    1.110115 S    
O18   C41   1.275444 A    
C55   H27   1.113236 S    
Zn1   O7    2.004992 S    
C18   C42   1.441018 S    
C51   C52   1.345355 D    
C57   H33   1.113859 S    
C20   H7    1.087179 S    
O17   C41   1.269006 A    
O20   Zn6   2.006274 S    
C21   C22   1.541498 S    
O7    C4    1.276777 A    
C56   H31   1.110760 S    
O12   Zn4   2.001381 S    
O18   Zn6   1.994128 S    
C35   H14   1.086508 S    
C61   H42   1.115210 S    
C27   H10   1.110018 S    
C53   H22   1.113229 S    
C61   H43   1.111821 S    
C19   C20   1.337842 D    
C21   O27   1.410616 S    
Zn4   O14   1.993167 S    
O5    C3    1.271005 A    
O9    C37   1.277512 A    
C33   C34   1.336116 D    
C25   H11   1.110009 S    
C6    N1    1.457198 S    
O10   Zn4   2.010839 S    
C55   H28   1.113224 S    
O11   C38   1.275814 A    
O13   C39   1.267723 A    
O27   C53   1.410029 S    
Zn4   O16   1.993131 S    
C12   C16   1.446265 S    
C8    C16   1.194005 T    
Zn3   O15   2.001384 S    
C39   C52   1.452235 S    
C5    C12   1.540845 S    
O12   C38   1.276569 A    
C51   H21   1.086196 S    
C59   H38   1.112518 S    
O16   C40   1.276453 A    
C47   C48   1.336201 D    
O15   C40   1.276715 A    
H9    C30   1.110030 S    
N1    O25   1.300191 A    
C25   C27   1.554806 S    
C45   C47   1.459213 S    
C62   H45   1.110509 S    
C56   H30   1.110492 S    
C24   C40   1.417012 S    
C5    C9    1.556673 S    
C2    C7    1.416081 S    
C33   H12   1.086505 S    
C36   H15   1.087057 S    
C5    C6    1.536930 S    
C13   H2    1.109930 S    
C59   H37   1.113538 S    
C52   N2    1.445862 S    
O3    C2    1.276002 A    
O17   Zn5   2.009762 S    
C22   H8    1.110039 S    
O19   C42   1.275618 A    
C28   C32   1.447672 S    
O3    Zn1   1.989595 S    
C35   C36   1.336489 D    
Zn5   O23   2.006278 S    
C60   H41   1.110775 S    
O23   C44   1.268727 A    
O1    C1    1.276826 A    
C47   H18   1.086533 S    
C58   H35   1.110363 S    
C21   C25   1.541862 S    
C46   H17   1.087101 S    
C62   H46   1.110787 S    
C45   H16   1.086551 S    
C17   C18   1.342451 D    
C1    C20   1.441223 S    
Zn2   O8    1.989597 S    
O11   Zn3   1.993124 S    
C17   C19   1.475402 S    
C54   H25   1.110505 S    
C53   C54   1.520634 S    
C4    C23   1.416951 S    
C13   C14   1.545415 S    
C8    C38   1.415532 S    
C14   O32   1.411013 S    
C21   C28   1.528104 S    
C60   H40   1.110434 S    
C23   C31   1.194801 T    
C29   O28   1.410592 S    
Zn2   O6    1.993784 S    
C29   C30   1.541612 S    
Zn6   O22   2.009760 S    
C9    C11   1.553840 S    
C49   H20   1.086100 S    
C57   C58   1.520889 S    
C11   C13   1.554848 S    
O4    Zn2   2.004992 S    
C58   H34   1.110706 S    
C25   C26   1.544615 S    
O22   C43   1.267916 A    
C50   O29   1.389557 S    
C62   H44   1.110917 S    
C33   C35   1.460187 S    
C26   C29   1.528042 S    
C6    C14   1.525364 S    
C5    H1    1.110098 S    
C27   C28   1.544894 S    
C22   C30   1.554193 S    
O1    Zn1   1.993785 S    
O2    Zn2   2.011359 S    
O21   C43   1.281095 A    
C37   C48   1.436743 S    
O8    C4    1.275908 A    
O20   C42   1.269992 A    
N2    O31   1.301885 A    
O6    C3    1.277502 A    
O14   C39   1.286552 A    
C56   H29   1.110734 S    
C48   H19   1.087088 S    
O32   C59   1.409581 S    
C3    C36   1.437140 S    
O9    Zn3   1.993381 S    
C41   C46   1.436576 S    
C49   C51   1.465343 S    
Zn5   O21   1.994128 S    
C55   C56   1.520672 S    
C22   C26   1.544801 S    
C18   H5    1.087422 S    
C17   O33   1.395985 S    
O24   C44   1.275908 A    
O2    C1    1.273539 A    
C58   H36   1.110999 S    
C34   C44   1.436961 S    
C24   C32   1.194843 T    
C45   C46   1.336075 D    
O4    C2    1.276250 A    
C26   C31   1.447600 S    
C53   H23   1.113232 S    
C54   H26   1.110731 S    
C19   H6    1.086060 S    
C12   C14   1.528756 S    
N2    O30   1.301440 A    
C43   C50   1.450648 S    
C60   H39   1.110518 S    
O10   C37   1.271287 A    
C27   C29   1.541900 S    
Zn1   O5    2.011359 S    
C9    C10   1.542143 S    
Zn3   O13   2.010624 S    
C49   C50   1.344551 D    
C10   C13   1.547451 S    
O33   C61   1.412033 S    
C11   C12   1.540449 S    
O28   C55   1.409945 S    
C57   H32   1.114414 S    
