data_mof_unit_43394.cif
_audit_creation_date              2012-12-11T15:32:37-0500
_audit_creation_method            fapswitch 2.2
_symmetry_space_group_name_H-M    P1
_symmetry_Int_Tables_number       1
_space_group_crystal_system       triclinic
_cell_length_a                    6.945308
_cell_length_b                    20.421525
_cell_length_c                    24.367432
_cell_angle_alpha                 89.845065
_cell_angle_beta                  90.7248
_cell_angle_gamma                 89.419721
_cell_volume                      3455.65738255

loop_
_atom_site_label
_atom_site_type_symbol
_atom_type_description
_atom_site_fract_x
_atom_site_fract_y
_atom_site_fract_z
_atom_type_partial_charge
O1    O     O_R   0.507320 0.423560 0.460500 -0.530370
O2    O     O_R   0.170760 0.556250 0.437010 -0.531547
O3    O     O_R   0.004030 0.576440 0.539500 -0.524131
C1    C     C_R   0.338315 0.576294 0.421101 0.730770
O4    O     O_R   0.177370 0.422820 0.454110 -0.551546
O5    O     O_R   0.010680 0.442050 0.556720 -0.537617
C2    C     C_R   0.346687 0.398804 0.443381 0.764663
O6    O     O_R   0.500680 0.557950 0.443280 -0.538000
O7    O     O_3   0.340380 0.506470 0.533650 -0.369880
V1    V     V_3+5 0.064130 0.498800 0.493760 1.426952
O8    O     O_R   0.681160 0.443750 0.562990 -0.534582
C3    C     C_R   0.851251 0.423948 0.578995 0.725337
O9    O     O_R   0.674560 0.577180 0.545890 -0.554435
C4    C     C_R   0.843910 0.601262 0.556471 0.796935
V2    V     V_3+5 0.564560 0.501200 0.506240 1.416955
O10   O     O_3   0.838180 0.493530 0.466350 -0.372560
C5    C     C_R   0.961311 0.835866 0.913676 -0.184615
C6    C     C_R   0.861848 0.662070 0.589008 -0.259967
C7    C     C_R   0.795430 0.731476 0.908843 0.228326
C8    C     C_R   0.875506 0.782504 0.940008 0.369019
C9    C     C_R   0.992993 0.833212 0.857022 -0.299310
C10   C     C_R   0.922783 0.780425 0.824635 0.012169
C11   C     C_R   0.804766 0.733199 0.850571 -0.012870
C12   C     C_R   0.958372 0.774777 0.766898 0.002733
C13   C     C_R   0.864645 0.725540 0.735303 0.047807
C14   C     C_R   0.720714 0.688987 0.760844 -0.222294
C15   C     C_R   0.692573 0.690991 0.817362 0.279385
C16   C     C_R   0.088927 0.815716 0.740181 -0.290551
C17   C     C_R   0.119569 0.811975 0.683667 0.512509
C18   C     C_R   0.017076 0.766161 0.651265 -0.133521
C19   C     C_R   0.905518 0.717675 0.677999 -0.056423
C20   C     C_R   0.027078 0.766368 0.593009 0.221629
C21   C     C_R   0.935144 0.717276 0.562407 0.342647
C22   C     C_R   0.848712 0.661326 0.646894 0.185634
H1    H     H_    0.058285 0.875548 0.838714 0.135865
H2    H     H_    0.620347 0.660394 0.736968 0.164316
H3    H     H_    0.171726 0.851503 0.762352 0.139903
C23   C     C_3   0.833896 0.309173 0.770315 -0.272620
C24   C     C_3   0.024163 0.277085 0.791431 0.504902
H4    H     H_    0.767045 0.355334 0.785136 0.126993
C25   C     C_1   0.960307 0.122385 0.875971 -0.178008
C26   C     C_1   0.864710 0.379369 0.625265 -0.196957
C27   C     C_3   0.738607 0.240260 0.772062 -0.157721
C28   C     C_3   0.930879 0.209333 0.792862 0.035392
C29   C     C_3   0.801338 0.227525 0.711913 -0.138563
C30   C     C_3   0.896857 0.295539 0.710575 0.064609
C31   C     C_3   0.993834 0.196287 0.733216 -0.251683
C32   C     C_3   0.085248 0.264748 0.732161 0.289066
C33   C     C_1   0.947725 0.161348 0.838376 -0.017360
C34   C     C_1   0.878373 0.341783 0.663817 -0.048752
H5    H     H_    0.061505 0.150576 0.717728 0.138558
H6    H     H_    0.707284 0.207191 0.679105 0.135997
H7    H     H_    0.594026 0.229701 0.788667 0.173259
C35   C     C_3   0.474003 0.718199 0.204977 0.369764
C36   C     C_3   0.279928 0.703961 0.234308 -0.346406
H8    H     H_    0.171416 0.667267 0.221772 0.141315
C37   C     C_1   0.346850 0.621276 0.375014 -0.214740
C38   C     C_1   0.477695 0.878676 0.125043 -0.180457
C39   C     C_3   0.582777 0.718842 0.260541 0.169037
C40   C     C_3   0.390364 0.705381 0.290522 -0.076600
C41   C     C_3   0.547234 0.793378 0.264856 0.358374
C42   C     C_3   0.439946 0.793066 0.208806 -0.131789
C43   C     C_3   0.354974 0.780372 0.293932 0.185442
C44   C     C_3   0.248372 0.779261 0.238214 0.420796
C45   C     C_1   0.362277 0.659082 0.336753 0.013405
C46   C     C_1   0.464060 0.840404 0.163064 0.065475
C47   C     C_R   0.456035 0.165682 0.084423 -0.310162
C48   C     C_R   0.358070 0.338236 0.410189 -0.150657
C49   C     C_R   0.276065 0.268587 0.087446 0.219019
C50   C     C_R   0.349801 0.215442 0.057683 0.315142
C51   C     C_R   0.504349 0.172348 0.140330 0.403314
C52   C     C_R   0.408834 0.220726 0.173170 -0.136659
C53   C     C_R   0.308495 0.272566 0.145146 -0.140764
C54   C     C_R   0.409431 0.219667 0.232557 -0.033473
C55   C     C_R   0.355649 0.277798 0.261825 -0.052816
C56   C     C_R   0.263580 0.328385 0.232273 -0.224835
C57   C     C_R   0.242628 0.327166 0.175464 0.489249
C58   C     C_R   0.441278 0.161464 0.264236 0.510307
C59   C     C_R   0.444040 0.164010 0.321412 -0.268269
C60   C     C_R   0.412532 0.222293 0.349656 -0.021154
C61   C     C_R   0.376791 0.281276 0.320620 0.073870
C62   C     C_R   0.412651 0.221007 0.407144 -0.210227
C63   C     C_R   0.379090 0.277816 0.437445 0.247643
C64   C     C_R   0.365698 0.340893 0.351901 0.184051
H9    H     H_    0.467822 0.118773 0.344057 0.148252
H10   H     H_    0.191959 0.368267 0.252807 0.180208
H11   H     H_    0.435760 0.175113 0.428865 0.125175
O11   O     O_R   0.323550 0.942140 0.056770 -0.546247
O12   O     O_R   0.647080 0.077200 0.045890 -0.537136
O13   O     O_R   0.813610 0.057920 0.943260 -0.546182
C65   C     C_R   0.477260 0.102037 0.055814 0.826749
O14   O     O_R   0.653470 0.943760 0.063000 -0.525521
O15   O     O_R   0.820050 0.923540 0.960490 -0.526743
C66   C     C_R   0.485895 0.923847 0.079020 0.740622
O16   O     O_R   0.317110 0.076520 0.039540 -0.528247
O17   O     O_3   0.483830 0.993580 0.966380 -0.375956
V3    V     V_3+5 0.760140 0.001190 0.006240 1.475803
O18   O     O_R   0.149510 0.922740 0.954070 -0.551243
C67   C     C_R   0.980148 0.898227 0.943960 0.755668
O19   O     O_R   0.143120 0.056170 0.936970 -0.528776
C68   C     C_R   0.973184 0.076469 0.921314 0.733226
V4    V     V_3+5 0.259690 0.998700 0.993700 1.450456
O20   O     O_3   0.986130 0.006420 0.033620 -0.368257
N1    N     N_2   0.539521 0.653717 0.839554 -0.481600
H12   H     H_    0.518583 0.609384 0.820264 0.248418
C69   C     C_3   0.361327 0.690200 0.845460 -0.509408
H13   H     H_    0.252976 0.658988 0.865703 0.190650
H14   H     H_    0.304489 0.705271 0.804468 0.183851
H15   H     H_    0.384051 0.734353 0.871205 0.210596
N2    N     N_2   0.124054 0.817121 0.564579 -0.437781
H16   H     H_    0.037157 0.841780 0.536625 0.256839
C70   C     C_3   0.307052 0.797892 0.541357 -0.455628
H17   H     H_    0.385171 0.842311 0.528252 0.176976
H18   H     H_    0.285006 0.766117 0.504955 0.197769
H19   H     H_    0.397642 0.771193 0.572100 0.182900
O21   O     O_3   0.153213 0.301010 0.831674 -0.559577
C71   C     C_3   0.050168 0.320803 0.878308 -0.268619
H20   H     H_    0.957721 0.281082 0.894304 0.146936
H21   H     H_    0.962453 0.365456 0.869323 0.131972
H22   H     H_    0.154890 0.333343 0.911284 0.168545
N3    N     N_2   0.274397 0.276683 0.710080 -0.520177
H23   H     H_    0.291068 0.257480 0.671332 0.248918
C72   C     C_3   0.342520 0.343159 0.714730 -0.517541
H24   H     H_    0.488206 0.346374 0.696980 0.203218
H25   H     H_    0.352494 0.358021 0.758396 0.233466
H26   H     H_    0.245958 0.377546 0.691925 0.187098
O22   O     O_3   0.544754 0.688751 0.156797 -0.544175
C73   C     C_3   0.504502 0.621276 0.157313 -0.258869
H27   H     H_    0.349052 0.613009 0.148850 0.136515
H28   H     H_    0.548971 0.597371 0.196667 0.134685
H29   H     H_    0.586699 0.597350 0.124037 0.159513
O23   O     O_3   0.073613 0.813797 0.229729 -0.531278
C74   C     C_3   0.996799 0.798780 0.177594 -0.107631
H30   H     H_    0.957360 0.746349 0.174611 0.135537
H31   H     H_    0.096562 0.812132 0.144302 0.099064
H32   H     H_    0.863778 0.828208 0.171109 0.184280
N4    N     N_2   0.806209 0.601119 0.673832 -0.529184
H33   H     H_    0.708564 0.571755 0.653658 0.247598
C75   C     C_3   0.973236 0.565295 0.694190 -0.547018
H34   H     H_    0.925975 0.521237 0.716966 0.189804
H35   H     H_    0.059196 0.596150 0.722676 0.211084
H36   H     H_    0.064613 0.549351 0.659474 0.187860
N5    N     N_2   0.283165 0.813115 0.342344 -0.512561
H37   H     H_    0.343602 0.796047 0.378550 0.248152
C76   C     C_3   0.271224 0.883759 0.339145 -0.506802
H38   H     H_    0.194324 0.902774 0.375539 0.174308
H39   H     H_    0.190324 0.899574 0.301759 0.240331
H40   H     H_    0.417409 0.905143 0.338759 0.213497
O24   O     O_3   0.679959 0.842900 0.278308 -0.531196
C77   C     C_3   0.772583 0.828415 0.328711 -0.095824
H41   H     H_    0.887220 0.790996 0.323073 0.219458
H42   H     H_    0.671457 0.812327 0.360837 0.069556
H43   H     H_    0.842225 0.873554 0.343966 0.146800
N6    N     N_2   0.769233 0.687038 0.268076 -0.503770
H44   H     H_    0.817837 0.662271 0.234116 0.267076
C78   C     C_3   0.803688 0.652180 0.318921 -0.524677
H45   H     H_    0.959468 0.640848 0.323242 0.208918
H46   H     H_    0.724196 0.605278 0.318679 0.190295
H47   H     H_    0.759869 0.682445 0.354452 0.194936
O25   O     O_3   0.149868 0.379655 0.150242 -0.535655
C79   C     C_3   0.281766 0.431389 0.145283 -0.225188
H48   H     H_    0.410958 0.416065 0.121721 0.134045
H49   H     H_    0.325578 0.450665 0.186202 0.129502
H50   H     H_    0.210505 0.472071 0.122317 0.153988
N7    N     N_2   0.383822 0.403142 0.325823 -0.543738
H51   H     H_    0.309975 0.441239 0.343953 0.236877
C80   C     C_3   0.578613 0.420044 0.311493 -0.543659
H52   H     H_    0.577352 0.467254 0.288750 0.184077
H53   H     H_    0.642597 0.381873 0.284698 0.212994
H54   H     H_    0.668763 0.425353 0.349197 0.199015
N8    N     N_2   0.378328 0.274564 0.495847 -0.525078
H55   H     H_    0.471329 0.239632 0.512056 0.252098
C81   C     C_3   0.188328 0.270327 0.519186 -0.543708
H56   H     H_    0.120120 0.223339 0.507358 0.187518
H57   H     H_    0.095403 0.311696 0.504985 0.209133
H58   H     H_    0.199953 0.272565 0.564637 0.193757
N9    N     N_2   0.158550 0.315714 0.059166 -0.445855
H59   H     H_    0.209577 0.329122 0.021251 0.257524
C82   C     C_3   0.955791 0.299957 0.057284 -0.465584
H60   H     H_    0.874215 0.340272 0.036650 0.174513
H61   H     H_    0.899304 0.294311 0.099454 0.198855
H62   H     H_    0.932247 0.253989 0.033915 0.181181
O26   O     O_3   0.302089 0.209677 0.002523 -0.546607
C83   C     C_3   0.461503 0.228828 0.971147 -0.264120
H63   H     H_    0.585638 0.194581 0.976999 0.127156
H64   H     H_    0.505885 0.279781 0.980885 0.114569
H65   H     H_    0.419487 0.227566 0.927085 0.187988
O27   O     O_3   0.648095 0.132192 0.161582 -0.513498
C84   C     C_3   0.818578 0.168709 0.166809 -0.172803
H66   H     H_    0.795838 0.217620 0.185973 0.113063
H67   H     H_    0.887608 0.174154 0.126169 0.121874
H68   H     H_    0.918794 0.141474 0.194267 0.148105
O28   O     O_3   0.944981 0.718629 0.505733 -0.547852
C85   C     C_3   0.765404 0.740278 0.484650 -0.290288
H69   H     H_    0.649424 0.704892 0.493952 0.137382
H70   H     H_    0.775487 0.744002 0.439445 0.155972
H71   H     H_    0.726985 0.789810 0.500324 0.122130
O29   O     O_3   0.458684 0.099854 0.241361 -0.519644
C86   C     C_3   0.274204 0.075206 0.229233 -0.183291
H72   H     H_    0.218398 0.096675 0.190267 0.119718
H73   H     H_    0.170314 0.083270 0.263122 0.110944
H74   H     H_    0.287150 0.021550 0.223000 0.169716
O30   O     O_3   0.250142 0.854198 0.660195 -0.527719
C87   C     C_3   0.439019 0.835307 0.676346 -0.214990
H75   H     H_    0.464767 0.781625 0.671778 0.115803
H76   H     H_    0.470830 0.850517 0.719227 0.132243
H77   H     H_    0.542590 0.860568 0.649451 0.163476
N10   N     N_2   0.707280 0.678158 0.936533 -0.466735
H78   H     H_    0.644387 0.689786 0.973407 0.288499
C88   C     C_3   0.824468 0.619247 0.939759 -0.512389
H79   H     H_    0.739473 0.579138 0.958055 0.192077
H80   H     H_    0.953871 0.627599 0.965933 0.177737
H81   H     H_    0.870338 0.603652 0.898240 0.199558
O31   O     O_3   0.853852 0.782251 0.996415 -0.558574
C89   C     C_3   0.032673 0.766353 0.021496 -0.240552
H82   H     H_    0.125228 0.810294 0.024155 0.138322
H83   H     H_    0.110729 0.726010 0.000178 0.126404
H84   H     H_    0.005709 0.749106 0.063821 0.160112

loop_
_geom_bond_atom_site_label_1
_geom_bond_atom_site_label_2
_ccdc_geom_bond_type
C28   C33   S    
C13   C19   A    
C85   H70   S    
C36   H8    S    
N7    H51   S    
C17   O30   S    
O17   V4    S    
C4    C6    S    
C7    C11   A    
C7    C8    A    
C59   H9    S    
C51   O27   S    
C1    O6    A    
C73   H27   S    
C61   C64   A    
N1    C69   S    
C79   H48   S    
C72   H24   S    
C80   H53   S    
C81   H56   S    
O21   C71   S    
N8    C81   S    
C14   C15   A    
C20   N2    S    
C40   C43   S    
C10   C12   A    
C9    C10   A    
C16   C17   A    
C49   C50   A    
C89   H83   S    
O5    C3    A    
C23   C24   S    
C75   H36   S    
C72   H25   S    
C85   H71   S    
C69   H13   S    
O4    V1    S    
V2    O10   S    
O18   C67   A    
C15   N1    S    
C5    C8    A    
C83   H63   S    
C84   H67   S    
C41   C43   S    
N2    H16   S    
N1    H12   S    
C3    C26   S    
C64   N7    S    
C49   N9    S    
C2    C48   S    
O8    V2    S    
C38   C46   T    
C44   O23   S    
C25   C68   S    
N10   H78   S    
N9    C82   S    
C77   H43   S    
C63   N8    S    
C1    C37   S    
C86   H74   S    
C42   C44   S    
C49   C53   A    
O29   C86   S    
O1    V2    S    
C11   C15   A    
O12   C65   A    
O7    V1    S    
O15   C67   A    
O13   V3    S    
N6    C78   S    
C28   C31   S    
C52   C53   A    
C82   H62   S    
C81   H57   S    
C85   H69   S    
C21   O28   S    
C86   H72   S    
N7    C80   S    
O1    C2    A    
C36   C40   S    
O17   V3    S    
C84   H66   S    
C25   C33   T    
C70   H17   S    
C79   H49   S    
C39   N6    S    
C27   H7    S    
O14   V3    S    
C76   H38   S    
C80   H54   S    
O11   C66   A    
C35   C39   S    
C29   C31   S    
C30   C32   S    
C39   C41   S    
C23   C30   S    
C54   C55   A    
C76   H39   S    
V4    O20   S    
C48   C64   A    
C12   C13   A    
C52   C54   A    
C71   H22   S    
C80   H52   S    
O4    C2    A    
C42   C46   S    
C58   C59   A    
O23   C74   S    
C72   H26   S    
C31   H5    S    
C35   C42   S    
C29   H6    S    
C13   C14   A    
O18   V4    S    
C62   C63   A    
C5    C9    A    
C82   H60   S    
O12   V3    S    
O27   C84   S    
C8    O31   S    
C84   H68   S    
O2    C1    A    
C55   C56   A    
O13   C68   A    
C17   C18   A    
C18   C20   A    
C74   H32   S    
N4    C75   S    
C7    N10   S    
C31   C32   S    
C87   H77   S    
C75   H34   S    
C36   C44   S    
O14   C66   A    
C62   H11   S    
N3    H23   S    
C19   C22   A    
O26   C83   S    
C56   C57   A    
C5    C67   S    
N8    H55   S    
N6    H44   S    
V3    O20   S    
O3    C4    A    
C26   C34   T    
C70   H18   S    
C60   C62   A    
C87   H76   S    
C40   C45   S    
C24   O21   S    
O6    V2    S    
C88   H80   S    
O9    V2    S    
C27   C28   S    
C74   H30   S    
C77   H42   S    
C59   C60   A    
C89   H84   S    
O22   C73   S    
O2    V1    S    
C73   H29   S    
O15   V3    S    
C32   N3    S    
C79   H50   S    
C76   H40   S    
C86   H73   S    
O19   V4    S    
N4    H33   S    
C81   H58   S    
C14   H2    S    
N5    C76   S    
C35   C36   S    
C78   H45   S    
C43   N5    S    
O31   C89   S    
C48   C63   A    
C78   H47   S    
C55   C61   A    
C12   C16   A    
C37   C45   T    
C60   C61   A    
C73   H28   S    
O5    V1    S    
O11   V4    S    
O8    C3    A    
O16   V4    S    
C24   C28   S    
C9    H1    S    
C88   H81   S    
C35   O22   S    
C30   C34   S    
C22   N4    S    
C71   H20   S    
C77   H41   S    
C83   H65   S    
C47   C65   S    
C47   C50   A    
O25   C79   S    
C71   H21   S    
C38   C66   S    
C23   C27   S    
C27   C29   S    
O3    V1    S    
V1    O10   S    
O24   C77   S    
C20   C21   A    
C23   H4    S    
C75   H35   S    
C18   C19   A    
C69   H14   S    
C16   H3    S    
C6    C22   A    
C78   H46   S    
O19   C68   A    
C83   H64   S    
C47   C51   A    
C88   H79   S    
C89   H82   S    
O7    V2    S    
C41   C42   S    
C6    C21   A    
N2    C70   S    
N3    C72   S    
N9    H59   S    
C57   O25   S    
C65   O16   A    
C43   C44   S    
C29   C30   S    
C50   O26   S    
C39   C40   S    
C51   C52   A    
C87   H75   S    
N10   C88   S    
O28   C85   S    
C54   C58   A    
C56   H10   S    
C74   H31   S    
C53   C57   A    
C10   C11   A    
C58   O29   S    
O30   C87   S    
O9    C4    A    
C41   O24   S    
C70   H19   S    
N5    H37   S    
C24   C32   S    
C82   H61   S    
C69   H15   S    
