data_mof_unit_54193.cif
_audit_creation_date              2012-12-10T19:12:29-0500
_audit_creation_method            fapswitch 2.2
_symmetry_space_group_name_H-M    P1
_symmetry_Int_Tables_number       1
_space_group_crystal_system       triclinic
_cell_length_a                    15.703622
_cell_length_b                    10.67131
_cell_length_c                    9.716256
_cell_angle_alpha                 89.720545
_cell_angle_beta                  89.533219
_cell_angle_gamma                 89.636416
_cell_volume                      1628.12709539

loop_
_atom_site_label
_atom_site_type_symbol
_atom_type_description
_atom_site_fract_x
_atom_site_fract_y
_atom_site_fract_z
_atom_type_partial_charge
C1    C     C_R   0.492707 0.258038 0.500023 0.873730
C2    C     C_3   0.575554 0.928391 0.570441 -0.439091
C3    C     C_3   0.413117 0.066387 0.592202 0.100856
C4    C     C_R   0.337805 0.499934 0.500421 0.919218
C5    C     C_3   0.484701 0.070204 0.344695 -0.119364
C6    C     C_3   0.489836 0.120721 0.498503 0.019415
C7    C     C_3   0.495786 0.878066 0.497773 0.138404
C8    C     C_3   0.413480 0.921652 0.572726 -0.514819
C9    C     C_3   0.493765 0.927333 0.347234 -0.497562
C10   C     C_3   0.542140 0.385741 0.080650 -0.030743
C11   C     C_3   0.546085 0.388097 0.918410 -0.245357
C12   C     C_3   0.082591 0.496281 0.500502 0.207942
C13   C     C_3   0.410361 0.498607 0.082109 -0.270777
C14   C     C_3   0.539439 0.613094 0.078811 -0.224627
C15   C     C_3   0.410914 0.494504 0.919786 -0.235248
C16   C     C_R   0.499179 0.742188 0.499325 0.869014
C17   C     C_3   0.540289 0.610872 0.916671 -0.231298
C18   C     C_R   0.662179 0.499975 0.499584 0.899022
C19   C     C_3   0.971466 0.400899 0.577618 -0.166438
C20   C     C_3   0.028671 0.387732 0.448042 -0.170032
C21   C     C_1   0.248845 0.498318 0.501213 -0.190579
C22   C     C_1   0.751129 0.499243 0.498834 -0.168853
C23   C     C_3   0.971304 0.605738 0.552135 -0.165226
C24   C     C_3   0.027210 0.509419 0.630031 -0.162257
C25   C     C_2   0.429164 0.092934 0.744684 0.353717
C26   C     C_2   0.409234 0.108885 0.255801 0.307212
C27   C     C_3   0.322672 0.119677 0.553561 -0.297682
C28   C     C_3   0.248240 0.073244 0.645620 -0.360341
C29   C     C_3   0.163565 0.129058 0.598279 -0.905962
C30   C     C_2   0.629392 0.362987 0.140322 0.413439
C31   C     C_3   0.658682 0.116861 0.479235 -0.402706
C32   C     C_3   0.739792 0.104640 0.565962 -0.359090
C33   C     C_3   0.819044 0.135392 0.480591 -0.880413
C34   C     C_3   0.917372 0.497246 0.499702 0.208672
C35   C     C_3   0.028462 0.592585 0.422615 -0.166844
C36   C     C_3   0.972738 0.484077 0.370168 -0.153920
C37   C     C_1   0.173494 0.497027 0.501089 -0.090229
C38   C     C_1   0.826483 0.498399 0.499041 -0.078961
C39   C     C_3   0.577775 0.072619 0.559632 -0.120319
H1    H     H_    0.054101 0.298724 0.405118 0.143038
H2    H     H_    0.612830 0.389848 0.879075 0.174714
H3    H     H_    0.519488 0.299878 0.878682 0.180564
H4    H     H_    0.374978 0.416556 0.123111 0.216188
H5    H     H_    0.377429 0.409278 0.884674 0.215600
H6    H     H_    0.504973 0.698649 0.114074 0.128338
H7    H     H_    0.605115 0.622800 0.118348 0.196374
H8    H     H_    0.607017 0.616685 0.877952 0.167409
H9    H     H_    0.507060 0.696095 0.877742 0.140297
H10   H     H_    0.374552 0.582936 0.117641 0.147655
H11   H     H_    0.948191 0.473707 0.264025 0.146453
H12   H     H_    0.574736 0.899973 0.680847 0.150981
H13   H     H_    0.373941 0.575763 0.879327 0.145553
H14   H     H_    0.053978 0.670896 0.359299 0.130896
H15   H     H_    0.945645 0.694818 0.594621 0.131336
H16   H     H_    0.051728 0.519636 0.736209 0.133983
H17   H     H_    0.584655 0.110306 0.665531 0.148833
H18   H     H_    0.633500 0.884680 0.523879 0.169180
H19   H     H_    0.471781 0.033146 0.803450 0.038753
H20   H     H_    0.389763 0.048986 0.171868 0.081005
H21   H     H_    0.164837 0.232770 0.606434 0.276336
H22   H     H_    0.150737 0.102478 0.490056 0.259462
H23   H     H_    0.405773 0.872218 0.673338 0.156798
H24   H     H_    0.111061 0.093233 0.664510 0.249423
H25   H     H_    0.243776 0.969539 0.641294 0.206591
H26   H     H_    0.256788 0.099723 0.754669 0.269399
H27   H     H_    0.323672 0.223759 0.555097 0.219186
H28   H     H_    0.305686 0.089639 0.449034 0.219263
H29   H     H_    0.638534 0.288156 0.214631 0.045647
H30   H     H_    0.826119 0.068345 0.394103 0.258071
H31   H     H_    0.814713 0.232077 0.438496 0.272807
H32   H     H_    0.876390 0.128030 0.546259 0.243272
H33   H     H_    0.735763 0.170137 0.654473 0.219437
H34   H     H_    0.540288 0.106305 0.285626 0.111957
H35   H     H_    0.746549 0.007838 0.607111 0.222492
H36   H     H_    0.667043 0.061531 0.383382 0.207645
H37   H     H_    0.652305 0.216821 0.449290 0.193847
H38   H     H_    0.553583 0.899687 0.292448 0.168011
H39   H     H_    0.440466 0.881969 0.291567 0.162416
H40   H     H_    0.358474 0.890916 0.509904 0.163432
H41   H     H_    0.504509 0.301835 0.110649 0.113069
H42   H     H_    0.946115 0.322881 0.641468 0.138427
N1    N     N_3   0.498170 0.499750 0.138610 -0.057218
N2    N     N_3   0.498850 0.496730 0.861320 -0.045457
O1    O     O_R   0.499980 0.314910 0.616040 -0.612609
O2    O     O_2   0.372682 0.209358 0.269190 -0.592477
O3    O     O_2   0.690389 0.426776 0.106238 -0.603322
O4    O     O_R   0.500040 0.314680 0.383960 -0.612224
O5    O     O_R   0.376750 0.500100 0.616020 -0.622461
O6    O     O_R   0.376810 0.499870 0.383940 -0.602307
O7    O     O_R   0.499960 0.685320 0.616040 -0.643043
O8    O     O_R   0.500020 0.685090 0.383960 -0.642543
O9    O     O_R   0.623190 0.500130 0.616060 -0.626440
O10   O     O_R   0.623250 0.499900 0.383980 -0.606377
O11   O     O_2   0.395740 0.181658 0.803203 -0.622860
Zn1   Zn    Zn3+2 0.499960 0.500150 0.654960 0.921666
Zn2   Zn    Zn3+2 0.500040 0.499850 0.345040 0.941635

loop_
_geom_bond_atom_site_label_1
_geom_bond_atom_site_label_2
_ccdc_geom_bond_type
C1    O4    A    
C29   H24   S    
C16   O7    A    
C35   H14   S    
C2    C7    S    
C17   H9    S    
C3    C6    S    
C2    H18   S    
C7    C8    S    
C32   H33   S    
C1    O1    A    
C28   C29   S    
C15   H5    S    
C32   H35   S    
C5    C6    S    
C20   H1    S    
C22   C38   T    
C11   H3    S    
C12   C37   S    
O8    Zn2   S    
C2    C39   S    
C31   C32   S    
C8    H40   S    
C23   C24   S    
C30   O3    D    
C26   H20   S    
C33   H30   S    
O5    Zn1   S    
C25   O11   D    
C34   C38   S    
C14   C17   S    
C14   H6    S    
C29   H22   S    
N1    Zn2   S    
C1    C6    S    
C3    C25   S    
C14   H7    S    
C3    C8    S    
C10   C11   S    
C10   H41   S    
C15   N2    S    
C11   N2    S    
C13   N1    S    
C10   N1    S    
O9    Zn1   S    
C24   H16   S    
O1    Zn1   S    
C5    C9    S    
C10   C30   S    
C31   H36   S    
C39   H17   S    
C29   H21   S    
C23   C34   S    
N2    Zn1   S    
O4    Zn2   S    
C12   C20   S    
C9    H38   S    
C15   H13   S    
C12   C35   S    
C33   H31   S    
C13   H10   S    
C28   H25   S    
C7    C16   S    
O10   Zn2   S    
C23   C35   S    
C13   C15   S    
C25   H19   S    
C14   N1    S    
C13   H4    S    
C36   H11   S    
C23   H15   S    
C4    O6    A    
C7    C9    S    
C18   C22   S    
C19   C24   S    
C17   H8    S    
C19   C34   S    
O7    Zn1   S    
C19   C20   S    
C4    O5    A    
C12   C24   S    
C18   O9    A    
C32   C33   S    
O6    Zn2   S    
C3    C27   S    
C28   H26   S    
C27   H27   S    
C4    C21   S    
C31   H37   S    
C26   O2    D    
C31   C39   S    
C11   H2    S    
C34   C36   S    
C9    H39   S    
C5    H34   S    
C27   H28   S    
C2    H12   S    
C33   H32   S    
C5    C26   S    
C20   C36   S    
C21   C37   T    
C16   O8    A    
C27   C28   S    
C18   O10   A    
C6    C39   S    
C35   C36   S    
C17   N2    S    
C19   H42   S    
C30   H29   S    
C8    H23   S    
