data_mof_unit_68216.cif
_audit_creation_date              2013-03-05T16:08:54-0500
_audit_creation_method            fapswitch 2.2
_symmetry_space_group_name_H-M    P1
_symmetry_Int_Tables_number       1
_space_group_crystal_system       triclinic
_cell_length_a                    17.235496
_cell_length_b                    6.877204
_cell_length_c                    14.384192
_cell_angle_alpha                 90.000038
_cell_angle_beta                  110.250427
_cell_angle_gamma                 90.000041
_cell_volume                      1599.59997391

loop_
_atom_site_label
_atom_site_type_symbol
_atom_site_description
_atom_site_fract_x
_atom_site_fract_y
_atom_site_fract_z
_atom_type_partial_charge
O1    O     O_R   0.314130 0.635770 0.168990 -0.580277
O2    O     O_R   0.685870 0.364230 0.831010 -0.580252
O3    O     O_R   0.185870 0.135770 0.331010 -0.580277
O4    O     O_R   0.814130 0.864230 0.668990 -0.580257
O5    O     O_R   0.146800 0.302460 0.139760 -0.584544
O6    O     O_R   0.853200 0.697540 0.860240 -0.584518
O7    O     O_R   0.353200 0.802460 0.360240 -0.584556
O8    O     O_R   0.646800 0.197540 0.639760 -0.584534
C1    C     C_R   0.114005 0.475831 0.112773 1.043098
C2    C     C_R   0.885994 0.524169 0.887227 1.043127
C3    C     C_R   0.385994 0.975831 0.387227 1.043068
C4    C     C_R   0.614005 0.024169 0.612773 1.043126
O9    O     O_R   0.311100 0.305780 0.157130 -0.577460
O10   O     O_R   0.688900 0.694220 0.842870 -0.577453
O11   O     O_R   0.188900 0.805780 0.342870 -0.577467
O12   O     O_R   0.811100 0.194220 0.657130 -0.577479
O13   O     O_R   0.351340 0.139640 0.348510 -0.588564
O14   O     O_R   0.648660 0.860360 0.651490 -0.588519
O15   O     O_R   0.148660 0.639640 0.151490 -0.588511
O16   O     O_R   0.851340 0.360360 0.848510 -0.588812
C5    C     C_R   0.333014 0.475742 0.136291 1.166420
C6    C     C_R   0.666986 0.524258 0.863709 1.166478
C7    C     C_R   0.166987 0.975742 0.363710 1.166422
C8    C     C_R   0.833013 0.024258 0.636290 1.166205
C9    C     C_1   0.533588 0.008932 0.533047 -0.123530
C10   C     C_1   0.466412 0.991067 0.466953 -0.123515
C11   C     C_1   0.966412 0.508933 0.966953 -0.123642
C12   C     C_1   0.033587 0.491067 0.033047 -0.123413
O17   O     O_3   0.263010 0.470920 0.312770 -0.259456
O18   O     O_3   0.736990 0.529080 0.687230 -0.259391
O19   O     O_3   0.236990 0.970920 0.187230 -0.259406
O20   O     O_3   0.763010 0.029080 0.812770 -0.259524
V1    V     V_3+5 0.247590 0.194450 0.238360 1.338717
V2    V     V_3+5 0.752410 0.805550 0.761640 1.338625
V3    V     V_3+5 0.252410 0.694450 0.261640 1.338707
V4    V     V_3+5 0.747590 0.305550 0.738360 1.338546
C13   C     C_R   0.115195 0.993278 0.426493 -0.478303
C14   C     C_R   0.884806 0.006722 0.573507 -0.478200
C15   C     C_R   0.384806 0.493277 0.073508 -0.478298
C16   C     C_R   0.615194 0.506723 0.926493 -0.478331
C17   C     C_R   0.909702 0.837550 0.437369 0.329581
C18   C     C_R   0.090299 0.162453 0.562631 0.329553
C19   C     C_R   0.590300 0.337556 0.062634 0.329597
C20   C     C_R   0.409700 0.662443 0.937367 0.329607
C21   C     C_R   0.856617 0.886353 0.489211 0.197120
C22   C     C_R   0.143385 0.113646 0.510790 0.197111
C23   C     C_R   0.643385 0.386361 0.010791 0.197102
C24   C     C_R   0.356615 0.613640 0.989209 0.197051
C25   C     C_R   0.967653 0.072535 0.607716 0.505124
C26   C     C_R   0.032347 0.927470 0.392283 0.505174
C27   C     C_R   0.532346 0.572527 0.892282 0.505177
C28   C     C_R   0.467654 0.427472 0.107718 0.505173
C29   C     C_R   0.014613 0.060163 0.543141 -0.195019
C30   C     C_R   0.985389 0.939839 0.456860 -0.195021
C31   C     C_R   0.485387 0.560158 0.956858 -0.195023
C32   C     C_R   0.514613 0.439841 0.043142 -0.195029
S1    S     S_3+6 0.983595 0.877792 0.262379 0.030999
O21   O     O_2   0.993516 0.666067 0.243137 -0.257662
O22   O     O_2   0.893258 0.928706 0.228529 -0.171866
O23   O     O_3   0.026188 0.010643 0.194278 -0.550655
H1    H     H_    0.001321 0.959906 0.125880 0.367351
S2    S     S_3+6 0.016399 0.122245 0.737618 0.031092
O24   O     O_2   0.106741 0.071385 0.771484 -0.171556
O25   O     O_2   0.006453 0.333970 0.756839 -0.257888
O26   O     O_3   0.973817 0.989369 0.805722 -0.550449
H2    H     H_    0.998277 0.040961 0.874005 0.367153
S3    S     S_3+6 0.516406 0.377793 0.237622 0.031000
O27   O     O_2   0.506486 0.166067 0.256864 -0.257664
O28   O     O_2   0.606742 0.428711 0.271473 -0.171857
O29   O     O_3   0.473812 0.510640 0.305723 -0.550654
H3    H     H_    0.498673 0.459892 0.374120 0.367338
S4    S     S_3+6 0.483594 0.622202 0.762378 0.030994
O30   O     O_2   0.393257 0.571280 0.728528 -0.171885
O31   O     O_2   0.493511 0.833928 0.743134 -0.257641
O32   O     O_3   0.526188 0.489355 0.694277 -0.550667
H4    H     H_    0.501291 0.540028 0.625870 0.367355
N1    N     N_R   0.223544 0.202697 0.537648 0.264659
O33   O     O_R   0.289550 0.094727 0.561694 -0.337887
O34   O     O_R   0.229934 0.388982 0.526111 -0.298972
N2    N     N_R   0.776458 0.797299 0.462352 0.264666
O35   O     O_R   0.710451 0.905267 0.438310 -0.337872
O36   O     O_R   0.770069 0.611011 0.473882 -0.298946
N3    N     N_R   0.276455 0.702687 0.962349 0.264675
O37   O     O_R   0.210450 0.594714 0.938308 -0.337784
O38   O     O_R   0.270064 0.888974 0.973878 -0.298888
N4    N     N_R   0.723546 0.297314 0.037651 0.264660
O39   O     O_R   0.789551 0.405288 0.061692 -0.337889
O40   O     O_R   0.729937 0.111027 0.026123 -0.298965
N5    N     N_R   0.891252 0.668034 0.374958 0.285013
O41   O     O_R   0.943566 0.524341 0.394712 -0.313589
O42   O     O_R   0.818655 0.645396 0.307226 -0.210329
N6    N     N_R   0.108747 0.331979 0.625036 0.285009
O43   O     O_R   0.056429 0.475665 0.605278 -0.313563
O44   O     O_R   0.181345 0.354633 0.692763 -0.210339
N7    N     N_R   0.608752 0.168041 0.125045 0.285012
O45   O     O_R   0.556439 0.024344 0.105289 -0.313595
O46   O     O_R   0.681349 0.145405 0.192778 -0.210327
N8    N     N_R   0.391249 0.831958 0.874955 0.285009
O47   O     O_R   0.443562 0.975654 0.894710 -0.313598
O48   O     O_R   0.318652 0.854594 0.807222 -0.210333

loop_
_geom_bond_atom_site_label_1
_geom_bond_atom_site_label_2
_geom_bond_distance
_ccdc_geom_bond_type
C2    C11   1.465226 S    
C16   C23   1.408454 A    
C17   N5    1.438235 S    
C31   C32   1.430387 A    
O1    C5    1.282317 A    
O3    C7    1.282314 A    
N7    O45   1.301127 A    
C14   C25   1.414045 A    
N1    O33   1.301086 A    
O7    C3    1.319044 A    
C26   C30   1.430221 A    
O20   V4    2.152770 S    
C18   C29   1.421964 A    
O8    V4    1.968621 S    
O4    C8    1.282316 A    
N4    O40   1.301380 A    
S1    O22   1.503045 D    
O3    V1    2.012944 S    
O17   V1    2.152767 S    
C18   C22   1.406477 A    
C14   C21   1.408454 A    
S2    O25   1.502934 D    
C20   N8    1.438234 S    
C1    O15   1.306044 A    
C2    O16   1.306045 A    
O5    V1    1.968624 S    
O2    C6    1.282316 A    
C8    C14   1.478184 S    
O19   V1    1.686548 S    
O29   H3    0.990712 S    
N5    O42   1.301982 A    
C27   C31   1.430223 A    
O11   C7    1.295033 A    
C15   C28   1.414044 A    
O12   C8    1.295034 A    
O9    V1    2.008735 S    
O13   V1    1.971997 S    
S4    O32   1.682567 S    
O11   V3    2.008735 S    
N1    O34   1.301380 A    
O4    V2    2.012943 S    
O18   V2    2.152769 S    
S3    O27   1.502923 D    
C23   N4    1.436530 S    
N2    O36   1.301380 A    
N4    O39   1.301086 A    
S4    O30   1.503043 D    
S1    O23   1.682567 S    
C3    C10   1.465225 S    
C9    C10   1.223712 T    
C7    C13   1.478181 S    
O6    V2    1.968623 S    
O23   H1    0.990709 S    
S3    O28   1.503043 D    
O20   V2    1.686546 S    
O32   H4    0.990710 S    
O5    C1    1.319044 A    
S2    O24   1.503035 D    
C19   N7    1.438234 S    
N3    O37   1.301085 A    
C5    C15   1.478180 S    
O8    C4    1.319044 A    
C6    C16   1.478181 S    
N6    O44   1.301983 A    
O9    C5    1.295033 A    
O14   V2    1.971996 S    
C28   S3    1.796498 S    
S4    O31   1.502923 D    
N3    O38   1.301380 A    
O26   H2    0.990800 S    
N8    O48   1.301981 A    
O19   V3    2.152770 S    
C27   S4    1.796497 S    
O1    V3    2.012942 S    
O2    V4    2.012943 S    
C3    O13   1.306045 A    
C25   S2    1.796495 S    
S2    O26   1.682576 S    
C26   S1    1.796498 S    
O7    V3    1.968622 S    
N2    O35   1.301086 A    
O10   V2    2.008735 S    
C22   N1    1.436529 S    
N7    O46   1.301982 A    
C29   C30   1.430390 A    
C16   C27   1.414043 A    
O17   V3    1.686548 S    
C24   N3    1.436529 S    
O18   V4    1.686547 S    
C4    C9    1.465225 S    
S3    O29   1.682569 S    
O10   C6    1.295033 A    
C13   C22   1.408454 A    
O15   V3    1.971994 S    
O12   V4    2.008733 S    
C13   C26   1.414043 A    
C20   C31   1.421960 A    
S1    O21   1.502923 D    
C25   C29   1.430223 A    
N6    O43   1.301126 A    
C21   N2    1.436530 S    
C18   N6    1.438236 S    
C17   C30   1.421962 A    
O6    C2    1.319044 A    
O16   V4    1.971995 S    
C28   C32   1.430223 A    
C19   C32   1.421962 A    
N8    O47   1.301127 A    
C4    O14   1.306046 A    
C11   C12   1.223712 T    
C17   C21   1.406473 A    
N5    O41   1.301127 A    
C19   C23   1.406475 A    
C20   C24   1.406474 A    
C1    C12   1.465227 S    
C15   C24   1.408455 A    
