data_mof_unit_65839.cif
_audit_creation_date              2012-10-26T19:08:50-0400
_audit_creation_method            fapswitch 2.2
_symmetry_space_group_name_H-M    P1
_symmetry_Int_Tables_number       1
_space_group_crystal_system       orthorhombic
_cell_length_a                    15.94102
_cell_length_b                    11.73212
_cell_length_c                    10.473075
_cell_angle_alpha                 90.0
_cell_angle_beta                  90.0
_cell_angle_gamma                 90.0
_cell_volume                      1958.69500914

loop_
_atom_site_label
_atom_site_type_symbol
_atom_type_description
_atom_site_fract_x
_atom_site_fract_y
_atom_site_fract_z
_atom_type_partial_charge
C1    C     C_R   0.500000 0.283322 0.500000 0.545824
C2    C     C_R   0.339805 0.499997 0.500000 0.550128
C3    C     C_R   0.660195 0.499997 0.500000 0.550128
C4    C     C_1   0.500000 0.059735 0.500000 -0.028444
C5    C     C_1   0.500000 0.161945 0.500000 -0.010402
C6    C     C_1   0.500000 0.499989 0.072075 0.122578
C7    C     C_1   0.500000 0.499989 0.927925 0.122578
C8    C     C_R   0.500000 0.716688 0.500000 0.547511
C9    C     C_3   0.049352 0.433503 0.621033 -0.108927
C10   C     C_3   0.049352 0.433501 0.378968 -0.108927
C11   C     C_3   0.950648 0.433503 0.621033 -0.108927
C12   C     C_1   0.749456 0.499302 0.500000 -0.005379
C13   C     C_3   0.950648 0.433501 0.378968 -0.108927
C14   C     C_1   0.500000 0.940275 0.500000 -0.027765
C15   C     C_1   0.500000 0.838065 0.500000 -0.008841
C16   C     C_1   0.086961 0.479323 0.259790 0.210519
C17   C     C_1   0.086961 0.479325 0.740210 0.210519
C18   C     C_1   0.913039 0.479323 0.259790 0.210519
C19   C     C_1   0.913039 0.479325 0.740210 0.210519
C20   C     C_1   0.250544 0.499302 0.500000 -0.005379
C21   C     C_3   0.082984 0.497085 0.500000 0.017670
C22   C     C_3   0.917016 0.497085 0.500000 0.017670
C23   C     C_3   0.951479 0.620998 0.499999 -0.224583
C24   C     C_3   0.048520 0.620998 0.499999 -0.224583
C25   C     C_1   0.824682 0.498420 0.500000 -0.049646
C26   C     C_1   0.175317 0.498420 0.500000 -0.049646
Cu1   Cu    Cu3+1 0.500000 0.500000 0.625300 1.022538
Cu2   Cu    Cu3+1 0.500000 0.500000 0.374700 1.022538
H1    H     H_    0.071729 0.668044 0.585204 0.140704
H2    H     H_    0.071729 0.668043 0.414794 0.140704
H3    H     H_    0.928271 0.668044 0.585204 0.140704
H4    H     H_    0.928271 0.668043 0.414794 0.140704
H5    H     H_    0.929526 0.343173 0.615457 0.094107
H6    H     H_    0.929526 0.343171 0.384545 0.094107
H7    H     H_    0.070474 0.343173 0.615457 0.094107
H8    H     H_    0.070474 0.343171 0.384545 0.094107
N1    N     N_1   0.500000 0.499990 0.186410 -0.182614
N2    N     N_1   0.500000 0.499990 0.813590 -0.182614
N3    N     N_1   0.116388 0.515016 0.167017 -0.240898
N4    N     N_1   0.116388 0.515020 0.832983 -0.240898
N5    N     N_1   0.883612 0.515016 0.167017 -0.240898
N6    N     N_1   0.883612 0.515020 0.832983 -0.240898
O1    O     O_R   0.500000 0.337200 0.605810 -0.489502
O2    O     O_R   0.500000 0.337200 0.394190 -0.489502
O3    O     O_R   0.379430 0.500010 0.605860 -0.486434
O4    O     O_R   0.379430 0.500010 0.394140 -0.486434
O5    O     O_R   0.620570 0.500010 0.605860 -0.486434
O6    O     O_R   0.620570 0.500010 0.394140 -0.486434
O7    O     O_R   0.500000 0.662810 0.605810 -0.488274
O8    O     O_R   0.500000 0.662810 0.394190 -0.488274

loop_
_geom_bond_atom_site_label_1
_geom_bond_atom_site_label_2
_ccdc_geom_bond_type
C21   C26   S    
C10   C13   S    
C6    C7    S    
C8    O8    A    
C17   N4    T    
C16   N3    T    
C1    O2    A    
Cu1   O5    S    
C19   N6    T    
C12   C25   T    
C23   C24   S    
C9    C21   S    
C23   H4    S    
Cu1   O3    S    
C6    N1    T    
C13   H6    S    
C10   C21   S    
C10   C16   S    
C2    O4    A    
C9    C11   S    
Cu2   O4    S    
C20   C26   T    
Cu2   N1    S    
C1    C5    S    
C13   C18   S    
C3    O5    A    
C7    N2    T    
Cu2   O2    S    
C13   C22   S    
C8    C15   S    
C22   C23   S    
C2    O3    A    
C4    C14   S    
C24   H2    S    
C21   C24   S    
Cu1   N2    S    
C2    C20   S    
Cu1   O1    S    
C3    O6    A    
C11   H5    S    
C18   N5    T    
C9    C17   S    
Cu1   Cu2   S    
C9    H7    S    
C24   H1    S    
C11   C19   S    
C10   H8    S    
C3    C12   S    
C11   C22   S    
C14   C15   T    
Cu2   O8    S    
C8    O7    A    
C1    O1    A    
Cu2   O6    S    
Cu1   O7    S    
C4    C5    T    
C22   C25   S    
C23   H3    S    
