data_mof_unit_60084.cif
_audit_creation_date              2013-03-05T16:17:55-0500
_audit_creation_method            fapswitch 2.2
_symmetry_space_group_name_H-M    P1
_symmetry_Int_Tables_number       1
_space_group_crystal_system       triclinic
_cell_length_a                    19.320589
_cell_length_b                    18.033988
_cell_length_c                    23.553286
_cell_angle_alpha                 90.011159
_cell_angle_beta                  90.149323
_cell_angle_gamma                 89.919557
_cell_volume                      8206.57103616

loop_
_atom_site_label
_atom_site_type_symbol
_atom_site_description
_atom_site_fract_x
_atom_site_fract_y
_atom_site_fract_z
_atom_type_partial_charge
O1    O     O_R   0.400150 0.561970 0.500010 -0.594536
O2    O     O_R   0.599850 0.438030 0.499990 -0.581491
O3    O     O_R   0.599850 0.561970 0.499990 -0.594358
O4    O     O_R   0.400150 0.438030 0.500010 -0.581677
C1    C     C_R   0.367090 0.500039 0.499815 0.869718
C2    C     C_R   0.632911 0.499916 0.499930 0.870582
O5    O     O_R   0.499980 0.561970 0.417880 -0.593577
O6    O     O_R   0.500020 0.438030 0.582120 -0.551310
O7    O     O_R   0.500020 0.561970 0.582120 -0.592747
O8    O     O_R   0.499980 0.438030 0.417880 -0.551103
C3    C     C_R   0.498018 0.499990 0.390828 0.863760
C4    C     C_R   0.501995 0.499997 0.609163 0.866003
Cu1   Cu    Cu3+1 0.500000 0.573360 0.500000 0.969325
Cu2   Cu    Cu3+1 0.500000 0.426640 0.500000 1.021597
C5    C     C_R   0.563427 0.503517 0.880776 0.587519
C6    C     C_R   0.436822 0.502533 0.119171 0.587479
N1    N     N_R   0.501876 0.500605 0.851873 -0.465972
N2    N     N_R   0.498410 0.500609 0.148084 -0.465913
C7    C     C_R   0.440043 0.497027 0.879802 0.588592
C8    C     C_R   0.560296 0.498029 0.120153 0.588624
C9    C     C_R   0.438288 0.496999 0.939269 -0.060529
C10   C     C_R   0.562055 0.498036 0.060685 -0.060566
C11   C     C_R   0.500919 0.497553 0.969950 -0.044841
C12   C     C_R   0.499425 0.497548 0.030002 -0.044853
C13   C     C_R   0.564875 0.498441 0.940652 -0.124931
C14   C     C_R   0.435464 0.497386 0.059299 -0.124853
C15   C     C_R   0.375160 0.494923 0.968338 -0.179529
C16   C     C_R   0.625209 0.497018 0.031616 -0.179388
C17   C     C_R   0.372900 0.493877 0.027624 0.330770
C18   C     C_R   0.627489 0.496005 0.972329 0.330817
O9    O     O_2   0.622520 0.513498 0.851441 -0.441642
O10   O     O_2   0.377568 0.511617 0.148495 -0.441519
O11   O     O_2   0.380374 0.493088 0.850016 -0.503075
O12   O     O_2   0.620023 0.495045 0.149938 -0.503044
H1    H     H_    0.326812 0.492358 0.944997 0.226124
H2    H     H_    0.673595 0.495279 0.054956 0.226193
C19   C     C_R   0.528413 0.558362 0.239593 -0.066955
C20   C     C_R   0.471054 0.558000 0.760408 -0.066734
H3    H     H_    0.553165 0.603677 0.217390 0.172305
H4    H     H_    0.445714 0.602999 0.782645 0.172281
C21   C     C_R   0.527347 0.558071 0.298725 -0.248475
C22   C     C_R   0.472060 0.557719 0.701279 -0.247752
H5    H     H_    0.552571 0.602843 0.321379 0.184569
H6    H     H_    0.446223 0.602175 0.678644 0.184941
C23   C     C_R   0.495089 0.500100 0.328378 -0.160468
C24   C     C_R   0.505024 0.500131 0.671593 -0.160573
C25   C     C_R   0.462040 0.442536 0.297684 0.314668
C26   C     C_R   0.538881 0.442965 0.702234 0.313838
C27   C     C_R   0.465245 0.442506 0.238309 -0.128247
C28   C     C_R   0.535770 0.442931 0.761619 -0.128272
H7    H     H_    0.440448 0.398535 0.214451 0.198014
H8    H     H_    0.561177 0.399286 0.785465 0.198058
C29   C     C_R   0.497844 0.500328 0.209122 0.257946
C30   C     C_R   0.502428 0.500348 0.790838 0.257949
C31   C     C_R   0.254219 0.566062 0.507595 -0.220815
C32   C     C_R   0.745278 0.433056 0.507035 -0.170258
C33   C     C_R   0.745634 0.564912 0.488298 -0.220387
C34   C     C_R   0.254772 0.434046 0.489311 -0.170381
H9    H     H_    0.281991 0.617432 0.514516 0.198114
H10   H     H_    0.717132 0.382340 0.515474 0.202231
H11   H     H_    0.717723 0.616309 0.481536 0.198468
H12   H     H_    0.282926 0.382707 0.483044 0.200922
C35   C     C_R   0.181797 0.567121 0.506101 0.314740
C36   C     C_R   0.817605 0.430870 0.504448 0.300050
C37   C     C_R   0.817973 0.564704 0.484855 0.311681
C38   C     C_R   0.182376 0.432920 0.488706 0.304826
C39   C     C_R   0.145456 0.499996 0.496864 -0.184768
C40   C     C_R   0.854297 0.497168 0.492896 -0.182259
C41   C     C_R   0.290956 0.500057 0.499003 -0.152744
C42   C     C_R   0.709033 0.499439 0.498732 -0.152192
N3    N     N_R   0.035226 0.476105 0.448830 -0.136903
N4    N     N_R   0.964267 0.521778 0.540704 -0.160823
N5    N     N_R   0.966395 0.475201 0.447935 -0.124909
N6    N     N_R   0.033113 0.522905 0.541538 -0.150760
C43   C     C_R   0.929946 0.497399 0.494046 0.529549
C44   C     C_R   0.069634 0.499829 0.495685 0.528713
C45   C     C_R   0.547373 0.278340 0.531756 0.123010
C46   C     C_R   0.455169 0.721585 0.465819 0.098751
C47   C     C_R   0.452634 0.278449 0.468251 0.124336
C48   C     C_R   0.544826 0.721468 0.534186 0.100349
H13   H     H_    0.584919 0.308452 0.556770 0.185234
H14   H     H_    0.419772 0.691323 0.438766 0.139071
H15   H     H_    0.415068 0.308641 0.443248 0.185207
H16   H     H_    0.580215 0.691117 0.561247 0.140679
C49   C     C_R   0.548233 0.200268 0.532411 -0.214027
C50   C     C_R   0.454279 0.799663 0.465216 -0.231054
C51   C     C_R   0.451791 0.200383 0.467597 -0.213582
C52   C     C_R   0.545721 0.799542 0.534787 -0.230163
H17   H     H_    0.586586 0.172037 0.558127 0.189441
H18   H     H_    0.417995 0.827910 0.437565 0.176673
H19   H     H_    0.413439 0.172246 0.441885 0.189473
H20   H     H_    0.582004 0.827693 0.562439 0.177286
C53   C     C_R   0.500016 0.159678 0.500003 0.024708
C54   C     C_R   0.500002 0.840246 0.500000 0.044361
N7    N     N_R   0.500000 0.316380 0.500000 -0.200199
N8    N     N_R   0.500000 0.683620 0.500000 -0.183698
N9    N     N_R   0.454466 0.037110 0.467445 -0.203229
N10   N     N_R   0.545541 0.962817 0.532574 -0.206280
N11   N     N_R   0.545563 0.036984 0.532558 -0.203210
N12   N     N_R   0.454480 0.962943 0.467427 -0.206515
C55   C     C_R   0.500008 0.923832 0.500000 0.439218
C56   C     C_R   0.500016 0.076094 0.500002 0.446947
N13   N     N_R   0.306743 0.485098 0.054260 0.174026
O13   O     O_R   0.254862 0.526197 0.038204 -0.276286
O14   O     O_R   0.294690 0.426295 0.084670 -0.251872
N14   N     N_R   0.693793 0.488392 0.945694 0.173947
O15   O     O_R   0.744901 0.530464 0.961712 -0.276576
O16   O     O_R   0.706934 0.429763 0.915333 -0.251881
N15   N     N_R   0.421677 0.386678 0.325659 0.129272
O17   O     O_R   0.376035 0.405908 0.363458 -0.360956
O18   O     O_R   0.421277 0.319064 0.306361 -0.320476
N16   N     N_R   0.579898 0.387548 0.674197 0.129111
O19   O     O_R   0.624645 0.407170 0.635843 -0.360443
O20   O     O_R   0.581822 0.320152 0.693876 -0.320001
N17   N     N_R   0.146368 0.636947 0.512482 0.147673
O21   O     O_R   0.092438 0.652516 0.481459 -0.267240
O22   O     O_R   0.173169 0.688964 0.543874 -0.297533
N18   N     N_R   0.852415 0.361524 0.515431 0.145770
O23   O     O_R   0.908270 0.343317 0.488030 -0.264598
O24   O     O_R   0.824176 0.312604 0.548713 -0.280082
N19   N     N_R   0.853378 0.633404 0.473344 0.149542
O25   O     O_R   0.909548 0.634424 0.442991 -0.274172
O26   O     O_R   0.825587 0.696255 0.488175 -0.295275
N20   N     N_R   0.147481 0.363052 0.481242 0.149358
O27   O     O_R   0.092803 0.347149 0.510983 -0.271287
O28   O     O_R   0.175443 0.311287 0.450327 -0.277645

loop_
_geom_bond_atom_site_label_1
_geom_bond_atom_site_label_2
_geom_bond_distance
_ccdc_geom_bond_type
C34   H12   1.083417 S    
C20   H4    1.082864 S    
C51   H19   1.082526 S    
C15   C17   1.397306 A    
N5    C43   1.356009 A    
C48   H16   1.081743 S    
O3    C2    1.287769 A    
C27   H7    1.083329 S    
N16   O20   1.301337 A    
C25   C27   1.400008 A    
C40   C43   1.461789 S    
O5    C3    1.287053 A    
C28   C30   1.400328 A    
N6    C44   1.356624 A    
O1    C1    1.287390 A    
C36   C40   1.417586 A    
C7    C9    1.401135 A    
C12   C14   1.416954 A    
C20   C22   1.392877 A    
C31   H9    1.083338 S    
N15   O18   1.301257 A    
N3    C44   1.356348 A    
C5    C13   1.413452 A    
N14   O15   1.301179 A    
N17   O21   1.301429 A    
C36   N18   1.442248 S    
C17   N13   1.434304 S    
C5    N1    1.369796 A    
C22   C24   1.404724 A    
O7    Cu1   1.945111 S    
N18   O23   1.300553 A    
C1    C41   1.471022 S    
C50   C54   1.408931 A    
N2    C29   1.437721 S    
C49   C53   1.408647 A    
C34   C38   1.398941 A    
C52   H20   1.082509 S    
C54   C55   1.507394 S    
C46   N8    1.364577 A    
N17   O22   1.301488 A    
C31   C35   1.399686 A    
C28   H8    1.083321 S    
C11   C12   1.414811 A    
C32   C36   1.399391 A    
C37   N19   1.442179 S    
C33   C42   1.399267 A    
C48   N8    1.364584 A    
N9    C56   1.361911 A    
O3    Cu1   1.939777 S    
C8    O12   1.349923 S    
C46   C50   1.408213 A    
C26   C28   1.400159 A    
C38   C39   1.416751 A    
C9    C15   1.400799 A    
C45   C49   1.408110 A    
C10   C16   1.400807 A    
Cu1   Cu2   2.645945 S    
C18   N14   1.434282 S    
O4    Cu2   1.939781 S    
C21   H5    1.083389 S    
O2    C2    1.286692 A    
C22   H6    1.083438 S    
N4    C43   1.355536 A    
C47   C51   1.408043 A    
N16   O19   1.301446 A    
C24   C26   1.416850 A    
C23   C25   1.416755 A    
C6    C14   1.413393 A    
C35   C39   1.416749 A    
Cu1   N8    1.988428 S    
N4    N6    1.330436 A    
C50   H18   1.082511 S    
C33   C37   1.400195 A    
N3    N5    1.330079 A    
C49   H17   1.082528 S    
C15   H1    1.083694 S    
C25   N15   1.436033 S    
C45   N7    1.364780 A    
C32   H10   1.083413 S    
C47   N7    1.364769 A    
C46   H14   1.081749 S    
C20   C30   1.399423 A    
C45   H13   1.080283 S    
O6    C4    1.286745 A    
C37   C40   1.417302 A    
N13   O14   1.301415 A    
C6    N2    1.369856 A    
C33   H11   1.083282 S    
N19   O25   1.301263 A    
C31   C41   1.399968 A    
C4    C24   1.471452 S    
C26   N16   1.436357 S    
C8    C10   1.401148 A    
C32   C42   1.399580 A    
C9    C11   1.407848 A    
O8    Cu2   1.945113 S    
C38   N20   1.440385 S    
C10   C12   1.407842 A    
C3    C23   1.471829 S    
O1    Cu1   1.940355 S    
Cu2   N7    1.988428 S    
N9    N12   1.337530 A    
N20   O28   1.301505 A    
C13   C18   1.420288 A    
C2    C42   1.471085 S    
O6    Cu2   1.945031 S    
C7    O11   1.349920 S    
O4    C1    1.287054 A    
C53   C56   1.507346 S    
C34   C41   1.399801 A    
C5    O9    1.348343 S    
C6    O10   1.348348 S    
N10   C55   1.361921 A    
C16   C18   1.397318 A    
C19   C29   1.399472 A    
C48   C52   1.408182 A    
N15   O17   1.301401 A    
C47   H15   1.080196 S    
N14   O16   1.301406 A    
C35   N17   1.440449 S    
C27   C29   1.400354 A    
C51   C53   1.408612 A    
N12   C55   1.361906 A    
N1    C7    1.366895 A    
N2    C8    1.366956 A    
C11   C13   1.416975 A    
C19   C21   1.392958 A    
O2    Cu2   1.940351 S    
O7    C4    1.286957 A    
N18   O24   1.301653 A    
N19   O26   1.301598 A    
O8    C3    1.286855 A    
O5    Cu1   1.945034 S    
N11   C56   1.361904 A    
C16   H2    1.083693 S    
C14   C17   1.420290 A    
C19   H3    1.082852 S    
N10   N11   1.337540 A    
N13   O13   1.301200 A    
C52   C54   1.408909 A    
C21   C23   1.404835 A    
C39   C44   1.465122 S    
N1    C30   1.437658 S    
N20   O27   1.301434 A    
