data_mof_unit_44057.cif
_audit_creation_date              2012-10-26T18:26:39-0400
_audit_creation_method            fapswitch 2.2
_symmetry_space_group_name_H-M    P1
_symmetry_Int_Tables_number       1
_space_group_crystal_system       triclinic
_cell_length_a                    15.837167
_cell_length_b                    8.72124
_cell_length_c                    7.434713
_cell_angle_alpha                 102.050348
_cell_angle_beta                  94.238515
_cell_angle_gamma                 92.094788
_cell_volume                      1000.08258262

loop_
_atom_site_label
_atom_site_type_symbol
_atom_type_description
_atom_site_fract_x
_atom_site_fract_y
_atom_site_fract_z
_atom_type_partial_charge
C1    C     C_R   0.495108 0.200773 0.455976 0.597982
C2    C     C_3   0.978663 0.558712 0.668641 0.045916
C3    C     C_1   0.250533 0.499738 0.506623 0.075387
C4    C     C_1   0.749459 0.499693 0.493272 0.070414
C5    C     C_3   0.029691 0.410782 0.616812 -0.133618
C6    C     C_3   0.970299 0.587994 0.382947 -0.132465
C7    C     C_3   0.083198 0.499016 0.502203 0.045431
C8    C     C_3   0.916785 0.499769 0.497562 0.046566
C9    C     C_1   0.174970 0.499536 0.506251 0.037900
C10   C     C_1   0.825015 0.499522 0.493566 0.039662
C11   C     C_2   0.042731 0.372039 0.138915 0.217624
C12   C     C_R   0.504944 0.799234 0.544007 0.589700
C13   C     C_2   0.957298 0.626658 0.860894 0.222626
C14   C     C_R   0.339981 0.499574 0.502238 0.586062
C15   C     C_R   0.660019 0.500301 0.497741 0.575454
C16   C     C_2   0.478037 0.037059 0.441760 0.181461
C17   C     C_2   0.522230 0.962966 0.558116 0.180844
C18   C     C_3   0.966614 0.351044 0.443504 -0.130884
C19   C     C_3   0.033365 0.647732 0.556258 -0.129325
C20   C     C_3   0.021326 0.440062 0.331122 0.044857
Cu1   Cu    Cu3+1 0.509330 0.517380 0.684380 1.132075
Cu2   Cu    Cu3+1 0.490670 0.482620 0.315620 1.123993
H1    H     H_    0.938378 0.229557 0.396172 0.137685
H2    H     H_    0.635707 0.207238 0.970973 0.370382
H3    H     H_    0.061599 0.769221 0.603592 0.134872
H4    H     H_    0.944947 0.660229 0.286933 0.150555
H5    H     H_    0.055052 0.338549 0.712820 0.149695
H6    H     H_    0.434971 0.377845 0.948967 0.262762
H7    H     H_    0.565022 0.622161 0.051041 0.256488
H8    H     H_    0.992098 0.332983 0.030753 0.111514
H9    H     H_    0.007952 0.665907 0.968961 0.108227
H10   H     H_    0.278510 0.042826 0.160274 0.377352
N1    N     N_2   0.476600 0.456420 0.038510 -0.222913
N2    N     N_2   0.523400 0.543580 0.961490 -0.228229
O1    O     O_R   0.506070 0.286130 0.619780 -0.487497
O2    O     O_2   0.883616 0.638229 0.897145 -0.486139
O3    O     O_2   0.413313 0.857754 0.118104 -0.244668
O4    O     O_2   0.333690 0.851329 0.387947 -0.303991
O5    O     O_3   0.326645 0.097708 0.244672 -0.514174
O6    O     O_2   0.667322 0.919498 0.752632 -0.261874
O7    O     O_2   0.666368 0.149072 0.611717 -0.308961
O8    O     O_3   0.582839 0.155353 0.901891 -0.486015
O9    O     O_R   0.493930 0.713870 0.380220 -0.490138
O10   O     O_R   0.490300 0.256770 0.308360 -0.451215
O11   O     O_R   0.509700 0.743230 0.691640 -0.451111
O12   O     O_R   0.386960 0.514660 0.655680 -0.518982
O13   O     O_R   0.613040 0.485340 0.344320 -0.538222
O14   O     O_R   0.371190 0.485310 0.344260 -0.450424
O15   O     O_R   0.628810 0.514690 0.655740 -0.460038
O16   O     O_2   0.116421 0.360153 0.102822 -0.496661
S1    S     S_3+6 0.386185 0.953804 0.294666 0.026518
S2    S     S_3+6 0.613918 0.047018 0.705632 0.027541

loop_
_geom_bond_atom_site_label_1
_geom_bond_atom_site_label_2
_ccdc_geom_bond_type
C12   C17   S    
O5    S1    S    
Cu1   O1    S    
C6    C20   S    
O7    S2    D    
Cu1   O11   S    
Cu2   O9    S    
C16   S1    S    
C15   O13   A    
C4    C15   S    
Cu1   O15   S    
N1    N2    D    
C14   O12   A    
C1    C16   S    
O6    S2    D    
Cu1   Cu2   S    
C15   O15   A    
C6    C19   S    
C2    C13   S    
C6    H4    S    
C3    C14   S    
C5    C18   S    
C3    C9    T    
C6    C8    S    
C17   S2    S    
C8    C10   S    
H6    N1    S    
Cu2   O13   S    
C12   O9    A    
C18   C20   S    
O4    S1    D    
O3    S1    D    
Cu2   O10   S    
C11   C20   S    
C2    C5    S    
C19   H3    S    
C4    C10   T    
C18   H1    S    
Cu1   O12   S    
Cu2   O14   S    
H2    O8    S    
C1    O1    A    
C13   O2    D    
C7    C9    S    
C7    C20   S    
H10   O5    S    
C2    C8    S    
C5    C7    S    
Cu2   N1    S    
C11   O16   D    
C16   C17   D    
C7    C19   S    
C14   O14   A    
Cu1   N2    S    
C1    O10   A    
C2    C19   S    
C5    H5    S    
H7    N2    S    
C13   H9    S    
C8    C18   S    
C11   H8    S    
O8    S2    S    
C12   O11   A    
