data_mof_unit_67069.cif
_audit_creation_date              2012-12-11T17:41:21-0500
_audit_creation_method            fapswitch 2.2
_symmetry_space_group_name_H-M    P1
_symmetry_Int_Tables_number       1
_space_group_crystal_system       triclinic
_cell_length_a                    8.166661
_cell_length_b                    12.702649
_cell_length_c                    14.196961
_cell_angle_alpha                 92.884814
_cell_angle_beta                  90.603829
_cell_angle_gamma                 98.48944
_cell_volume                      1454.54394346

loop_
_atom_site_label
_atom_site_type_symbol
_atom_type_description
_atom_site_fract_x
_atom_site_fract_y
_atom_site_fract_z
_atom_type_partial_charge
Ba1   Ba    Ba6+2 0.855630 0.555280 0.454520 1.644146
Ba2   Ba    Ba6+2 0.334200 0.444810 0.545490 1.636388
C1    C     C_3   0.604423 0.947093 0.178522 -0.411522
C2    C     C_R   0.183762 0.498091 0.195779 0.040879
C3    C     C_R   0.339327 0.549870 0.225827 -0.294849
C4    C     C_3   0.144996 0.803788 0.194549 0.363868
C5    C     C_R   0.452161 0.597204 0.162171 0.019321
C6    C     C_R   0.406991 0.600444 0.067411 -0.149214
C7    C     C_R   0.249451 0.551913 0.034672 -0.002506
C8    C     C_R   0.137788 0.496777 0.098002 -0.022472
C9    C     C_R   0.052593 0.502554 0.902039 -0.022816
C10   C     C_R   0.940944 0.447359 0.965366 -0.002778
C11   C     C_R   0.007205 0.500493 0.804124 0.039794
C12   C     C_3   0.649762 0.856403 0.234696 0.339674
C13   C     C_R   0.853255 0.446215 0.773708 -0.294826
C14   C     C_R   0.739601 0.399861 0.837461 0.015234
C15   C     C_R   0.783786 0.398179 0.932517 -0.148919
C16   C     C_3   0.130151 0.840773 0.094953 -0.367685
C17   C     C_R   0.204846 0.556478 0.938912 -0.037497
C18   C     C_R   0.764073 0.176525 0.537829 -0.281836
C19   C     C_R   0.430173 0.813412 0.460460 -0.292225
C20   C     C_R   0.406006 0.994788 0.428056 -0.104604
C21   C     C_R   0.341479 0.887390 0.422615 -0.013542
C22   C     C_R   0.576863 0.846429 0.512196 0.055462
C23   C     C_3   0.475044 0.309020 0.258206 0.304891
C24   C     C_R   0.641543 0.957066 0.522241 -0.073173
C25   C     C_R   0.555568 0.031515 0.477607 -0.056347
C26   C     C_R   0.619372 0.141219 0.485605 0.044256
C27   C     C_R   0.853419 0.104753 0.578238 -0.008559
C28   C     C_3   0.225830 0.761274 0.655819 0.349644
C29   C     C_R   0.790157 0.995938 0.573507 -0.098765
C30   C     C_3   0.256822 0.880566 0.679281 0.202053
C31   C     C_3   0.970622 0.237303 0.344501 0.280783
C32   C     C_3   0.957107 0.118060 0.322870 -0.357825
C33   C     C_3   0.715499 0.673691 0.738038 0.323676
C34   C     C_3   0.455073 0.286436 0.152117 -0.391077
C35   C     C_3   0.732900 0.697672 0.844109 -0.389101
C36   C     C_3   0.043668 0.200740 0.806990 0.378571
C37   C     C_3   0.058005 0.166350 0.907505 -0.358567
C38   C     C_3   0.541357 0.142514 0.766561 0.348343
C39   C     C_3   0.592420 0.056038 0.825957 -0.405390
C40   C     C_R   0.985243 0.443222 0.061210 -0.035554
H1    H     H_    0.742178 0.889196 0.290564 0.081310
H2    H     H_    0.613823 0.606260 0.724221 0.058849
H3    H     H_    0.555083 0.006354 0.226308 0.103738
H4    H     H_    0.840352 0.760761 0.860170 0.130113
H5    H     H_    0.752030 0.625189 0.880475 0.061218
H6    H     H_    0.618734 0.725352 0.871402 0.114717
H7    H     H_    0.535813 0.819546 0.269459 -0.048651
H8    H     H_    0.508565 0.915428 0.124257 0.113612
H9    H     H_    0.356956 0.329895 0.286031 0.017400
H10   H     H_    0.575484 0.377419 0.271566 0.059290
H11   H     H_    0.350537 0.221199 0.136372 0.128283
H12   H     H_    0.366278 0.900113 0.727498 0.006293
H13   H     H_    0.429452 0.358858 0.117557 0.063267
H14   H     H_    0.570514 0.262436 0.122944 0.118732
H15   H     H_    0.715020 0.986714 0.142461 0.129893
H16   H     H_    0.170427 0.781512 0.043416 0.065104
H17   H     H_    0.122906 0.278985 0.801451 0.082235
H18   H     H_    0.912847 0.209434 0.792651 -0.085358
H19   H     H_    0.189223 0.161875 0.925733 0.150653
H20   H     H_    0.011930 0.224766 0.957522 0.064526
H21   H     H_    0.983474 0.086775 0.914794 0.111160
H22   H     H_    0.653089 0.179962 0.730062 -0.057020
H23   H     H_    0.284348 0.923524 0.614106 0.045907
H24   H     H_    0.449968 0.105468 0.711695 0.083355
H25   H     H_    0.682929 0.092380 0.881493 0.113767
H26   H     H_    0.650428 0.998410 0.780730 0.095490
H27   H     H_    0.062713 0.726540 0.199294 0.092989
H28   H     H_    0.482555 0.013237 0.860508 0.126615
H29   H     H_    0.375806 0.549491 0.299290 0.072170
H30   H     H_    0.495212 0.639905 0.019380 0.070267
H31   H     H_    0.695072 0.359495 0.980698 0.068967
H32   H     H_    0.817694 0.445146 0.699993 0.068863
H33   H     H_    0.898794 0.397845 0.106313 0.097184
H34   H     H_    0.849938 0.257210 0.367087 0.002436
H35   H     H_    0.291303 0.601833 0.893803 0.096197
H36   H     H_    0.334623 0.048496 0.395427 0.100502
H37   H     H_    0.860304 0.943332 0.608344 0.157544
H38   H     H_    0.812729 0.260653 0.542397 0.061648
H39   H     H_    0.275081 0.792026 0.207254 -0.070547
H40   H     H_    0.379265 0.729691 0.454566 0.073855
H41   H     H_    0.999743 0.849367 0.078527 0.153493
H42   H     H_    0.209305 0.918860 0.088100 0.108965
H43   H     H_    0.341103 0.734813 0.630586 -0.079925
H44   H     H_    0.128813 0.744685 0.599678 0.066701
H45   H     H_    0.063402 0.259533 0.402222 0.082418
H46   H     H_    0.124793 0.904843 0.788892 0.319573
H47   H     H_    0.863991 0.093392 0.265797 0.114846
H48   H     H_    0.918715 0.074097 0.386197 0.085812
H49   H     H_    0.078761 0.097730 0.300001 0.141781
H50   H     H_    0.832970 0.651827 0.711090 0.011446
O1    O     O_2   0.887370 0.460630 0.272300 -0.466243
O2    O     O_2   0.196741 0.111838 0.570962 -0.471866
O3    O     O_3   0.096137 0.123751 0.744451 -0.551374
O4    O     O_3   0.129410 0.451380 0.388510 -0.496112
O5    O     O_3   0.575400 0.626570 0.547370 -0.490449
O6    O     O_2   0.344320 0.238700 0.455090 -0.471982
O7    O     O_3   0.514746 0.217798 0.299524 -0.649795
O8    O     O_2   0.400397 0.408619 0.835288 -0.494778
O9    O     O_3   0.466896 0.213883 0.825292 -0.591237
O10   O     O_3   0.670210 0.653170 0.329170 -0.479022
O11   O     O_2   0.792339 0.592053 0.165090 -0.493835
O12   O     O_3   0.680457 0.765143 0.695871 -0.634025
O13   O     O_3   0.015925 0.289382 0.262310 -0.640110
O14   O     O_3   0.719860 0.785280 0.173534 -0.594508
O15   O     O_2   0.845380 0.761330 0.544970 -0.461549
O16   O     O_3   0.088930 0.704860 0.376040 -0.490873
O17   O     O_2   0.001885 0.888932 0.434318 -0.483708
O18   O     O_3   0.115762 0.913215 0.719956 -0.691587
O19   O     O_3   0.097882 0.880705 0.259298 -0.601916
O20   O     O_2   0.302330 0.539400 0.727760 -0.466103
O21   O     O_3   0.060300 0.548700 0.611500 -0.498314
O22   O     O_3   0.519500 0.346920 0.670840 -0.471594
O23   O     O_3   0.176445 0.710138 0.737826 -0.649959
O24   O     O_3   0.614310 0.373510 0.452640 -0.479344
O25   O     O_3   0.100780 0.295230 0.623970 -0.495912
P1    P     P_3+3 0.054400 0.427280 0.286870 0.968778
P2    P     P_3+3 0.668300 0.742890 0.573060 0.984101
P3    P     P_3+3 0.132866 0.842514 0.373746 0.947839
P4    P     P_3+3 0.135310 0.572810 0.713130 0.970306
P5    P     P_3+3 0.060664 0.156845 0.628539 0.999469
P6    P     P_3+3 0.659065 0.654636 0.206421 0.958005
P7    P     P_3+3 0.527292 0.241424 0.422120 0.931589
P8    P     P_3+3 0.531442 0.344502 0.793457 0.959086

loop_
_geom_bond_atom_site_label_1
_geom_bond_atom_site_label_2
_ccdc_geom_bond_type
C4    H27   S    
O5    P2    S    
O23   P4    S    
C8    C40   A    
C9    C11   A    
C4    O19   S    
O16   P3    S    
O11   P6    D    
Ba1   O16   S    
C23   H9    S    
C5    C6    A    
C39   H25   S    
O6    P7    D    
Ba2   O20   S    
C24   C25   A    
C30   O18   S    
O4    P1    S    
C33   C35   S    
C22   C24   A    
C36   C37   S    
Ba2   O21   S    
C12   H7    S    
C13   C14   A    
Ba1   Ba2   S    
Ba1   P2    S    
O15   P2    D    
C17   H35   S    
C32   H49   S    
C10   C40   A    
C34   H11   S    
C38   O9    S    
Ba2   O24   S    
C1    H8    S    
Ba2   O5    S    
C14   C15   A    
C39   H28   S    
O14   P6    S    
C16   H42   S    
Ba1   O24   S    
C35   H5    S    
C14   P8    S    
C28   O23   S    
O12   P2    S    
H46   O18   S    
C33   H50   S    
C24   C29   A    
C4    H39   S    
C38   H24   S    
C15   H31   S    
C2    P1    S    
Ba1   O21   S    
C37   H19   S    
C30   H12   S    
Ba2   O25   S    
C7    C17   A    
C16   H41   S    
C39   H26   S    
C18   C27   A    
C4    C16   S    
C6    H30   S    
C18   H38   S    
O8    P8    D    
C31   O13   S    
C20   H36   S    
C33   O12   S    
Ba1   O5    S    
C21   P3    S    
C3    C5    A    
O22   P8    S    
C6    C7    A    
C18   C26   A    
C1    H3    S    
O19   P3    S    
C35   H6    S    
C36   O3    S    
O25   P5    S    
C32   H48   S    
C34   H14   S    
C11   P4    S    
C31   H34   S    
O9    P8    S    
C27   C29   A    
C9    C17   A    
C27   P5    S    
C31   C32   S    
C40   H33   S    
C28   H43   S    
C33   H2    S    
C1    C12   S    
Ba1   O15   S    
C36   H18   S    
C1    H15   S    
O3    P5    S    
C38   C39   S    
C20   C25   A    
C19   C21   A    
O13   P1    S    
C28   H44   S    
O1    P1    D    
C2    C8    A    
O10   P6    S    
O2    P5    D    
C7    C8    A    
Ba2   P4    S    
C37   H20   S    
C22   P2    S    
O24   P7    S    
C5    P6    S    
C2    C3    A    
C9    C10   A    
C26   P7    S    
C29   H37   S    
C37   H21   S    
C38   H22   S    
C11   C13   A    
C31   H45   S    
C32   H47   S    
O20   P4    D    
C3    H29   S    
C34   H13   S    
C10   C15   A    
C28   C30   S    
C23   O7    S    
Ba2   O22   S    
Ba1   O4    S    
Ba2   O4    S    
C16   H16   S    
Ba1   P1    S    
C23   H10   S    
C23   C34   S    
C36   H17   S    
C12   O14   S    
C13   H32   S    
O21   P4    S    
C19   H40   S    
Ba2   O6    S    
Ba1   O1    S    
C19   C22   A    
C25   C26   A    
C20   C21   A    
C30   H23   S    
O7    P7    S    
C35   H4    S    
Ba1   O10   S    
O17   P3    D    
C12   H1    S    
