data_mof_unit_59008.cif
_audit_creation_date              2013-03-05T16:04:29-0500
_audit_creation_method            fapswitch 2.2
_symmetry_space_group_name_H-M    P1
_symmetry_Int_Tables_number       1
_space_group_crystal_system       triclinic
_cell_length_a                    10.907724
_cell_length_b                    9.666347
_cell_length_c                    14.971387
_cell_angle_alpha                 89.086778
_cell_angle_beta                  91.268855
_cell_angle_gamma                 88.804671
_cell_volume                      1577.60789015

loop_
_atom_site_label
_atom_site_type_symbol
_atom_site_description
_atom_site_fract_x
_atom_site_fract_y
_atom_site_fract_z
_atom_type_partial_charge
O1    O     O_R   0.319640 0.618740 0.499990 -0.563768
O2    O     O_R   0.680360 0.381260 0.500010 -0.547814
O3    O     O_R   0.680360 0.618740 0.500010 -0.510671
O4    O     O_R   0.319640 0.381260 0.499990 -0.520376
C1    C     C_R   0.262691 0.501621 0.500582 0.885136
C2    C     C_R   0.737441 0.499218 0.500230 0.856236
O5    O     O_R   0.499970 0.618800 0.370260 -0.542763
O6    O     O_R   0.500030 0.381200 0.629740 -0.534747
O7    O     O_R   0.500030 0.618800 0.629740 -0.582200
O8    O     O_R   0.499970 0.381200 0.370260 -0.532290
C3    C     C_R   0.501506 0.500282 0.329106 0.823905
C4    C     C_R   0.494239 0.499035 0.670606 0.859955
Cu1   Cu    Cu3+1 0.500000 0.640660 0.500000 1.101346
Cu2   Cu    Cu3+1 0.500000 0.359340 0.500000 1.132298
C5    C     C_R   0.575994 0.419219 0.814910 -0.163370
C6    C     C_R   0.402352 0.561959 0.185431 -0.190515
C7    C     C_R   0.485759 0.494559 0.767160 -0.106520
C8    C     C_R   0.500117 0.497605 0.232160 -0.126297
C9    C     C_R   0.384643 0.554554 0.810384 0.428365
C10   C     C_R   0.587416 0.415874 0.187553 0.455990
C11   C     C_R   0.377909 0.542390 0.904997 -0.083020
C12   C     C_R   0.575507 0.398541 0.094372 -0.074148
C13   C     C_R   0.476847 0.475099 0.952898 0.001252
C14   C     C_R   0.481515 0.474522 0.046834 -0.000896
C15   C     C_R   0.571394 0.407253 0.907066 0.058117
C16   C     C_R   0.391961 0.550077 0.093082 0.061298
C17   C     C_R   0.277782 0.595852 0.954163 0.325915
C18   C     C_R   0.655716 0.310748 0.046417 0.300924
C19   C     C_R   0.289788 0.606874 0.046997 -0.204117
C20   C     C_R   0.657829 0.323472 0.953440 -0.183458
H1    H     H_    0.650477 0.369757 0.779707 0.207855
H2    H     H_    0.332547 0.618109 0.221554 0.200652
H3    H     H_    0.215900 0.654066 0.083951 0.198927
H4    H     H_    0.723265 0.262017 0.916647 0.218637
C21   C     C_R   0.068130 0.391474 0.540795 0.286304
C22   C     C_R   0.932409 0.616554 0.465393 0.218473
C23   C     C_R   0.940625 0.387831 0.537811 0.224790
C24   C     C_R   0.060206 0.618599 0.466996 0.170252
C25   C     C_R   0.871674 0.499610 0.499558 -0.368712
C26   C     C_R   0.128772 0.505115 0.503664 -0.351266
C27   C     C_R   0.452871 0.077190 0.428834 0.332250
C28   C     C_R   0.548958 0.922558 0.570653 0.279832
C29   C     C_R   0.542526 0.069671 0.572719 0.330030
C30   C     C_R   0.457465 0.930161 0.427295 0.339680
N1    N     N_R   0.500000 0.852070 0.500000 -0.313601
N2    N     N_R   0.500000 0.147930 0.500000 -0.308818
O9    O     O_3   0.288832 0.611505 0.758711 -0.568851
C31   C     C_3   0.296252 0.757204 0.756786 0.070705
H5    H     H_    0.369027 0.789297 0.711046 0.193855
H6    H     H_    0.315806 0.800013 0.824233 0.164083
C32   C     C_3   0.174664 0.818909 0.720566 -0.336602
H7    H     H_    0.160719 0.788031 0.649989 0.254819
H8    H     H_    0.097411 0.778429 0.759510 0.293524
C33   C     C_3   0.172908 0.976161 0.725775 -0.600441
H9    H     H_    0.184142 0.008888 0.796222 0.261595
H10   H     H_    0.083630 0.017909 0.699092 0.311796
H11   H     H_    0.248285 0.019002 0.685844 0.279814
O10   O     O_3   0.685238 0.355234 0.235277 -0.552530
C34   C     C_3   0.779524 0.452123 0.247986 0.036911
H12   H     H_    0.799870 0.455907 0.320652 0.179137
H13   H     H_    0.755125 0.559795 0.224588 0.171511
C35   C     C_3   0.895622 0.403714 0.201019 -0.293825
H14   H     H_    0.916330 0.293510 0.218909 0.292425
H15   H     H_    0.880448 0.413284 0.127592 0.235302
C36   C     C_3   0.005880 0.489972 0.227063 -0.761213
H16   H     H_    0.986949 0.600961 0.210788 0.295451
H17   H     H_    0.087169 0.454946 0.189457 0.260859
H18   H     H_    0.027211 0.477054 0.299569 0.252210
N3    N     N_R   0.160838 0.630227 0.913005 0.128050
O11   O     O_R   0.105519 0.538660 0.864698 -0.268208
O12   O     O_R   0.098103 0.737067 0.939991 -0.334919
N4    N     N_R   0.727131 0.200790 0.089259 0.149044
O13   O     O_R   0.676060 0.119725 0.147174 -0.205307
O14   O     O_R   0.831887 0.162418 0.056639 -0.322589
N5    N     N_R   0.135308 0.278728 0.583378 0.164836
O15   O     O_R   0.200516 0.299102 0.655643 -0.315835
O16   O     O_R   0.133132 0.156286 0.548638 -0.276710
N6    N     N_R   0.865900 0.735229 0.428737 0.196071
O17   O     O_R   0.799046 0.724797 0.356282 -0.345596
O18   O     O_R   0.882454 0.856858 0.462423 -0.195878
N7    N     N_R   0.882791 0.274660 0.581365 0.171383
O19   O     O_R   0.847244 0.170468 0.534053 -0.237638
O20   O     O_R   0.899557 0.257778 0.667199 -0.279367
N8    N     N_R   0.118430 0.732787 0.424527 0.183053
O21   O     O_R   0.159825 0.832553 0.473295 -0.274552
O22   O     O_R   0.096895 0.756146 0.339769 -0.282903
N9    N     N_R   0.392078 0.149993 0.356061 0.176315
O23   O     O_R   0.280565 0.196812 0.365379 -0.291461
O24   O     O_R   0.437378 0.145525 0.276440 -0.259382
N10   N     N_R   0.617692 0.849902 0.640084 0.176774
O25   O     O_R   0.728354 0.805944 0.624192 -0.267614
O26   O     O_R   0.584563 0.858830 0.722770 -0.337539
N11   N     N_R   0.570749 0.132854 0.655775 0.165776
O27   O     O_R   0.485040 0.139929 0.714772 -0.338593
O28   O     O_R   0.684216 0.136261 0.683421 -0.250640
N12   N     N_R   0.429168 0.866865 0.344213 0.165319
O29   O     O_R   0.315868 0.865088 0.316019 -0.254772
O30   O     O_R   0.515287 0.858019 0.285606 -0.266706

loop_
_geom_bond_atom_site_label_1
_geom_bond_atom_site_label_2
_geom_bond_distance
_ccdc_geom_bond_type
C24   C26   1.411550 A    
N9    O23   1.300136 A    
C3    C8    1.451798 S    
N11   O27   1.301797 A    
C17   C19   1.399084 A    
O3    C2    1.300868 A    
N7    O19   1.301267 A    
Cu2   N2    2.043563 S    
O2    C2    1.310512 A    
O5    C3    1.309403 A    
C21   N5    1.433522 S    
O1    C1    1.302650 A    
C21   C23   1.391718 A    
N8    O22   1.300703 A    
N6    O18   1.301142 A    
C5    C15   1.384816 A    
C19   H3    1.084520 S    
N3    O12   1.301595 A    
O7    Cu1   1.950489 S    
C35   H15   1.110166 S    
C29   N11   1.424458 S    
C31   C32   1.527607 S    
C36   H17   1.110612 S    
N12   O30   1.301965 A    
C4    C7    1.450558 S    
C27   N2    1.371373 A    
C8    C10   1.410853 A    
O3    Cu1   1.974290 S    
C31   H6    1.115270 S    
C11   C17   1.423336 A    
C34   H12   1.106822 S    
N11   O28   1.297567 A    
C12   C18   1.420335 A    
Cu1   Cu2   2.719337 S    
C23   N7    1.429733 S    
C18   N4    1.438591 S    
N7    O20   1.301188 A    
C6    C16   1.391497 A    
C27   N9    1.430431 S    
C33   H10   1.109958 S    
C34   H13   1.117814 S    
C20   H4    1.084392 S    
C32   H7    1.110637 S    
N8    O21   1.301149 A    
N4    O14   1.301749 A    
O8    Cu2   1.950489 S    
N6    O17   1.300059 A    
O4    C1    1.307666 A    
O10   C34   1.417134 S    
C32   H8    1.109670 S    
C28   N1    1.371664 A    
N5    O15   1.301444 A    
C35   H14   1.111640 S    
C30   N12   1.425454 S    
N10   O26   1.300928 A    
O9    C31   1.412262 S    
O6    C4    1.302553 A    
C36   H18   1.109677 S    
N12   O29   1.297615 A    
N5    O16   1.300826 A    
C31   H5    1.105843 S    
C10   C12   1.411180 A    
C11   C13   1.422541 A    
C27   C30   1.421640 A    
C12   C14   1.420098 A    
O1    Cu1   1.983081 S    
C28   C29   1.423178 A    
C10   O10   1.385429 S    
C30   N1    1.380838 A    
C15   C20   1.395716 A    
C5    C7    1.390148 A    
C33   H9    1.110862 S    
C34   C35   1.530452 S    
O6    Cu2   1.957186 S    
C35   C36   1.524822 S    
C24   N8    1.432028 S    
O7    C4    1.304126 A    
C22   C25   1.416403 A    
C14   C16   1.408299 A    
N4    O13   1.301587 A    
C17   N3    1.434652 S    
C5    H1    1.085001 S    
C6    H2    1.084978 S    
C32   C33   1.523035 S    
C18   C20   1.396206 A    
C21   C26   1.407254 A    
C23   C25   1.410106 A    
C22   N6    1.439092 S    
Cu1   N1    2.043562 S    
N10   O25   1.299503 A    
C22   C24   1.394207 A    
C7    C9    1.410129 A    
C9    O9    1.385756 S    
C13   C15   1.407814 A    
O4    Cu2   1.974291 S    
N3    O11   1.301510 A    
O2    Cu2   1.983080 S    
C29   N2    1.381826 A    
O8    C3    1.297525 A    
C13   C14   1.406066 A    
O5    Cu1   1.957186 S    
C16   C19   1.395658 A    
C6    C8    1.392489 A    
C36   H16   1.110513 S    
C1    C26   1.462206 S    
N9    O24   1.301457 A    
C2    C25   1.464511 S    
C28   N10   1.433911 S    
C9    C11   1.423133 A    
C33   H11   1.110392 S    
