data_mof_unit_32216.cif
_audit_creation_date              2013-03-05T16:04:06-0500
_audit_creation_method            fapswitch 2.2
_symmetry_space_group_name_H-M    P1
_symmetry_Int_Tables_number       1
_space_group_crystal_system       triclinic
_cell_length_a                    10.78726
_cell_length_b                    9.523156
_cell_length_c                    10.798697
_cell_angle_alpha                 89.688462
_cell_angle_beta                  89.491631
_cell_angle_gamma                 90.152685
_cell_volume                      1109.27260306

loop_
_atom_site_label
_atom_site_type_symbol
_atom_site_description
_atom_site_fract_x
_atom_site_fract_y
_atom_site_fract_z
_atom_type_partial_charge
O1    O     O_R   0.319640 0.618740 0.499990 -0.569486
O2    O     O_R   0.680360 0.618740 0.500010 -0.579262
O3    O     O_R   0.319620 0.381170 0.499990 -0.564109
O4    O     O_R   0.680380 0.381170 0.500010 -0.555965
C1    C     C_R   0.262219 0.499596 0.503773 0.832831
C2    C     C_R   0.737607 0.500051 0.504282 0.801171
O5    O     O_R   0.500000 0.618810 0.319650 -0.596854
O6    O     O_R   0.500000 0.618810 0.680350 -0.587855
O7    O     O_R   0.499970 0.381240 0.319640 -0.579091
O8    O     O_R   0.500030 0.381240 0.680360 -0.575667
C3    C     C_R   0.507767 0.500740 0.262479 0.784114
C4    C     C_R   0.506552 0.499616 0.737387 0.803266
Cu1   Cu    Cu3+1 0.500000 0.640660 0.500000 0.982495
Cu2   Cu    Cu3+1 0.500000 0.359340 0.500000 0.999531
H1    H     H_    0.386278 0.331780 0.114634 0.161213
H2    H     H_    0.387461 0.328803 0.891201 0.184109
C5    C     C_R   0.680647 0.689002 0.123429 -0.316680
C6    C     C_R   0.690882 0.671019 0.866392 -0.306134
H3    H     H_    0.682256 0.695757 0.222970 0.204477
H4    H     H_    0.703309 0.658123 0.767726 0.188666
C7    C     C_R   0.760721 0.778549 0.056507 0.283521
C8    C     C_R   0.770583 0.763842 0.926954 0.285551
C9    C     C_R   0.602279 0.589867 0.932191 0.061394
C10   C     C_R   0.600079 0.594538 0.062919 0.055420
C11   C     C_R   0.518823 0.501891 0.128455 -0.059207
C12   C     C_R   0.519753 0.498193 0.870868 -0.055268
C13   C     C_R   0.446581 0.404490 0.065135 -0.173045
C14   C     C_R   0.446922 0.402890 0.937750 -0.159625
C15   C     C_R   0.063671 0.415527 0.597565 0.145977
C16   C     C_R   0.933605 0.418657 0.599758 0.136363
C17   C     C_R   0.871248 0.500284 0.510794 -0.105937
C18   C     C_R   0.128283 0.498791 0.509658 -0.116556
C19   C     C_R   0.936733 0.583567 0.426008 -0.135812
C20   C     C_R   0.064699 0.584083 0.426230 -0.162678
H5    H     H_    0.888374 0.646093 0.358040 0.194211
H6    H     H_    0.114368 0.648326 0.358980 0.169776
C21   C     C_R   0.434106 0.074726 0.413980 0.022625
C22   C     C_R   0.565032 0.073925 0.586492 0.036753
H7    H     H_    0.381023 0.130936 0.345236 0.131112
H8    H     H_    0.616576 0.129252 0.656270 0.161735
C23   C     C_R   0.434122 0.925928 0.413971 0.010815
C24   C     C_R   0.565189 0.925289 0.586369 0.040295
H9    H     H_    0.381091 0.870207 0.345210 0.135323
H10   H     H_    0.617090 0.869173 0.655772 0.158458
N1    N     N_R   0.500000 0.852070 0.500000 -0.177826
N2    N     N_R   0.500000 0.147940 0.500000 -0.173950
N3    N     N_R   0.827236 0.887371 0.120284 0.151196
O9    O     O_R   0.852078 0.874258 0.237419 -0.370237
O10   O     O_R   0.844843 0.009026 0.067412 -0.274021
N4    N     N_R   0.865718 0.835664 0.856813 0.160986
O11   O     O_R   0.848220 0.867561 0.740938 -0.354810
O12   O     O_R   0.976316 0.849987 0.902375 -0.274726
I1    I     I_    0.161383 0.290965 0.730176 -0.230927
I2    I     I_    0.832082 0.312136 0.743731 -0.227655

loop_
_geom_bond_atom_site_label_1
_geom_bond_atom_site_label_2
_geom_bond_distance
_ccdc_geom_bond_type
H2    C14   1.081226 S    
N4    O12   1.301665 A    
O7    Cu2   1.957663 S    
C17   C19   1.394266 A    
C15   C16   1.403438 A    
Cu1   Cu2   2.679054 S    
C11   C13   1.395607 A    
C23   H9    1.081842 S    
C12   C14   1.393406 A    
N3    O9    1.300721 A    
O6    C4    1.290900 A    
C9    C10   1.412629 A    
C1    C18   1.445630 S    
N4    O11   1.301538 A    
Cu2   N2    2.013195 S    
O4    Cu2   1.956329 S    
C7    C8    1.409866 A    
C22   H8    1.079232 S    
C16   I2    2.142967 S    
O2    C2    1.290233 A    
O3    Cu2   1.957432 S    
C24   H10   1.079540 S    
O1    C1    1.291524 A    
O8    C4    1.289539 A    
N3    O10   1.301531 A    
C19   H5    1.081244 S    
C19   C20   1.380423 A    
C22   C24   1.415495 A    
C15   C18   1.411672 A    
C20   H6    1.084093 S    
O7    C3    1.293873 A    
C21   C23   1.417022 A    
C16   C17   1.409184 A    
C21   H7    1.081837 S    
C22   N2    1.366901 A    
C5    C10   1.415586 A    
O1    Cu1   1.956205 S    
C3    C11   1.451117 S    
C6    C9    1.411981 A    
O6    Cu1   1.957504 S    
O3    C1    1.288706 A    
C8    N4    1.439277 S    
O5    Cu1   1.959755 S    
C10   C11   1.423256 A    
Cu1   N1    2.013290 S    
C6    H4    1.080388 S    
O4    C2    1.289291 A    
O8    Cu2   1.959916 S    
C9    C12   1.416265 A    
C13   C14   1.375737 A    
O2    Cu1   1.957311 S    
C23   N1    1.367502 A    
O5    C3    1.288242 A    
C2    C17   1.443951 S    
C5    H3    1.077484 S    
C21   N2    1.367614 A    
C6    C8    1.400174 A    
H1    C13   1.084321 S    
C5    C7    1.404947 A    
C15   I1    2.140980 S    
C4    C12   1.449684 S    
C7    N3    1.440720 S    
C24   N1    1.366262 A    
C18   C20   1.395639 A    
