data_mof_unit_39585.cif
_audit_creation_date              2012-10-26T18:28:56-0400
_audit_creation_method            fapswitch 2.2
_symmetry_space_group_name_H-M    P1
_symmetry_Int_Tables_number       1
_space_group_crystal_system       triclinic
_cell_length_a                    11.919325
_cell_length_b                    13.134054
_cell_length_c                    16.031504
_cell_angle_alpha                 97.764662
_cell_angle_beta                  77.378148
_cell_angle_gamma                 100.236469
_cell_volume                      2397.94147757

loop_
_atom_site_label
_atom_site_type_symbol
_atom_type_description
_atom_site_fract_x
_atom_site_fract_y
_atom_site_fract_z
_atom_type_partial_charge
C1    C     C_R   0.522859 0.701227 0.500027 0.524904
C2    C     C_R   0.376393 0.012292 0.442997 -0.024153
C3    C     C_R   0.382371 0.996236 0.286732 -0.107263
C4    C     C_R   0.620477 0.885612 0.541627 -0.098819
C5    C     C_R   0.365974 0.117505 0.472517 -0.092731
C6    C     C_R   0.466882 0.858252 0.456054 0.237536
C7    C     C_R   0.558444 0.137832 0.504061 0.258569
C8    C     C_R   0.459893 0.965828 0.469994 -0.030952
C9    C     C_R   0.539478 0.031534 0.513682 -0.028943
C10   C     C_R   0.920003 0.514939 0.608940 -0.158357
C11   C     C_R   0.080647 0.486392 0.391090 -0.172452
C12   C     C_R   0.817979 0.548760 0.596607 0.169582
C13   C     C_R   0.478474 0.299019 0.498095 0.533406
C14   C     C_R   0.180946 0.450154 0.404128 0.150104
C15   C     C_R   0.871466 0.497776 0.447695 0.003493
C16   C     C_R   0.128931 0.502969 0.552378 0.017082
C17   C     C_R   0.431372 0.495885 0.666337 0.540483
C18   C     C_R   0.568730 0.501477 0.332968 0.517150
C19   C     C_R   0.988452 0.498696 0.459143 -0.016629
C20   C     C_R   0.012266 0.503579 0.540887 -0.018365
C21   C     C_R   0.396871 0.501365 0.759898 0.004028
C22   C     C_R   0.604023 0.496378 0.238536 -0.015758
C23   C     C_R   0.248122 0.520866 0.887136 -0.123963
C24   C     C_R   0.346575 0.444667 0.071404 -0.137698
C25   C     C_R   0.754188 0.502523 0.111079 -0.114161
C26   C     C_R   0.296359 0.542054 0.802077 0.244543
C27   C     C_R   0.722595 0.512218 0.199334 0.249361
C28   C     C_R   0.466420 0.470730 0.808289 -0.181950
C29   C     C_R   0.519356 0.474711 0.186470 -0.193995
C30   C     C_R   0.431267 0.473895 0.898156 0.002172
C31   C     C_R   0.550971 0.474416 0.096193 0.000642
C32   C     C_R   0.314148 0.481376 0.934888 -0.010562
C33   C     C_R   0.671177 0.494442 0.059989 -0.012236
C34   C     C_R   0.510032 0.473935 0.952100 0.022753
C35   C     C_R   0.629422 0.500210 0.920609 -0.135128
C36   C     C_R   0.468500 0.463719 0.041291 0.022825
C37   C     C_R   0.142343 0.413292 0.046464 0.027030
C38   C     C_R   0.082628 0.344185 0.989684 -0.100412
C39   C     C_R   0.968372 0.296738 0.017869 -0.125382
C40   C     C_R   0.913261 0.315579 0.103383 -0.112558
C41   C     C_R   0.971214 0.384164 0.160073 -0.096730
C42   C     C_R   0.084289 0.434307 0.131616 -0.096308
C43   C     C_R   0.823007 0.574438 0.944651 0.036121
C44   C     C_R   0.894401 0.538419 0.869743 -0.110084
C45   C     C_R   0.999531 0.598372 0.839373 -0.109448
C46   C     C_R   0.268590 0.452595 0.018685 -0.013935
C47   C     C_R   0.037679 0.691535 0.886116 -0.111047
C48   C     C_R   0.966966 0.727265 0.961579 -0.149582
C49   C     C_R   0.857782 0.670724 0.989167 -0.111173
C50   C     C_R   0.217178 0.360010 0.335617 0.027324
C51   C     C_R   0.136504 0.308822 0.283486 -0.133441
C52   C     C_R   0.165566 0.235442 0.213930 -0.121096
C53   C     C_R   0.274865 0.205935 0.195266 -0.103616
C54   C     C_R   0.351720 0.244850 0.249579 -0.149659
C55   C     C_R   0.321432 0.317185 0.319897 -0.084574
C56   C     C_R   0.774047 0.631380 0.670318 0.043342
C57   C     C_R   0.708066 0.515140 0.974382 -0.016722
C58   C     C_R   0.850446 0.680926 0.726153 -0.114051
C59   C     C_R   0.814599 0.746555 0.799852 -0.111471
C60   C     C_R   0.701520 0.767208 0.821076 -0.111701
C61   C     C_R   0.628805 0.731585 0.763474 -0.147332
C62   C     C_R   0.667879 0.671291 0.687109 -0.057463
C63   C     C_3   0.824565 0.647588 0.270242 0.026160
C64   C     C_3   0.921549 0.705372 0.206186 -0.279794
C65   C     C_3   0.908229 0.819705 0.211377 -0.499536
C66   C     C_3   0.306048 0.693251 0.741902 0.008224
C67   C     C_3   0.246704 0.746138 0.687520 -0.260333
C68   C     C_R   0.466056 0.184039 0.492844 -0.036702
C69   C     C_3   0.300503 0.859837 0.681490 -0.484483
C70   C     C_3   0.728325 0.200256 0.415566 0.029565
C71   C     C_3   0.770507 0.097880 0.372942 -0.291755
C72   C     C_3   0.839451 0.110148 0.281918 -0.498312
C73   C     C_3   0.486658 0.767172 0.323251 0.036814
C74   C     C_3   0.425112 0.725341 0.248306 -0.238090
C75   C     C_3   0.313039 0.650496 0.274051 -0.368585
C76   C     C_R   0.249261 0.152075 0.494801 0.053672
C77   C     C_R   0.176608 0.143162 0.434973 -0.083735
C78   C     C_R   0.071485 0.182616 0.457631 -0.113856
C79   C     C_R   0.539889 0.816451 0.497649 -0.042856
C80   C     C_R   0.039353 0.234243 0.538932 -0.114557
C81   C     C_R   0.108824 0.241145 0.599762 -0.101978
C82   C     C_R   0.211531 0.197988 0.578636 -0.047832
C83   C     C_R   0.732043 0.856130 0.551692 0.044789
C84   C     C_R   0.805121 0.813892 0.479119 -0.057800
C85   C     C_R   0.914873 0.794390 0.484283 -0.111373
C86   C     C_R   0.957902 0.826435 0.559297 -0.109158
C87   C     C_R   0.889478 0.874583 0.630111 -0.106354
C88   C     C_R   0.775329 0.884225 0.627950 -0.093488
C89   C     C_R   0.647198 0.059643 0.631440 0.075045
C90   C     C_R   0.609735 0.992074 0.556766 -0.016613
C91   C     C_R   0.562317 0.080807 0.704932 -0.104331
C92   C     C_R   0.592668 0.147534 0.774763 -0.116220
C93   C     C_R   0.708025 0.193812 0.772005 -0.108976
C94   C     C_R   0.792848 0.173898 0.699180 -0.115332
C95   C     C_R   0.762679 0.108384 0.628383 -0.039774
C96   C     C_R   0.325412 0.966584 0.368197 0.094388
C97   C     C_R   0.216339 0.904164 0.377904 -0.055287
C98   C     C_R   0.164446 0.872393 0.306621 -0.132898
C99   C     C_R   0.220926 0.902330 0.225676 -0.117999
C100  C     C_R   0.329894 0.964510 0.215768 -0.139832
Cu1   Cu    Cu3+1 0.386820 0.492450 0.493500 0.937195
Cu2   Cu    Cu3+1 0.613180 0.507550 0.506500 0.938554
H1    H     H_    0.934366 0.511910 0.672699 0.072005
H2    H     H_    0.852557 0.480029 0.384039 0.151923
H3    H     H_    0.125530 0.324248 0.924147 0.107510
H4    H     H_    0.923549 0.243490 0.973834 0.100640
H5    H     H_    0.825589 0.277294 0.125738 0.106386
H6    H     H_    0.928948 0.397117 0.226588 0.143124
H7    H     H_    0.127635 0.486980 0.176575 0.092424
H8    H     H_    0.866672 0.466187 0.833253 0.094564
H9    H     H_    0.046394 0.573166 0.777288 0.166038
H10   H     H_    0.119358 0.738602 0.863334 0.128796
H11   H     H_    0.994714 0.800445 0.996631 0.100746
H12   H     H_    0.065711 0.487313 0.327116 0.079120
H13   H     H_    0.800348 0.701477 0.045343 0.106259
H14   H     H_    0.047579 0.322344 0.296969 0.087227
H15   H     H_    0.102661 0.201234 0.174607 0.121548
H16   H     H_    0.298289 0.150307 0.140712 0.109083
H17   H     H_    0.435090 0.218051 0.238021 0.099245
H18   H     H_    0.382463 0.334624 0.359127 0.189976
H19   H     H_    0.942038 0.675760 0.710567 0.093209
H20   H     H_    0.876067 0.784994 0.838670 0.125936
H21   H     H_    0.673503 0.817686 0.878225 0.106887
H22   H     H_    0.545171 0.757523 0.775042 0.082437
H23   H     H_    0.429518 0.463615 0.217589 0.135534
H24   H     H_    0.615613 0.665683 0.641766 0.181248
H25   H     H_    0.851287 0.660117 0.333158 0.149627
H26   H     H_    0.742269 0.681205 0.280277 0.110171
H27   H     H_    0.007464 0.698071 0.218953 0.142956
H28   H     H_    0.920097 0.670233 0.139947 0.177924
H29   H     H_    0.824874 0.826525 0.193854 0.135852
H30   H     H_    0.980304 0.860490 0.165665 0.139839
H31   H     H_    0.909172 0.858022 0.277380 0.142797
H32   H     H_    0.395239 0.687181 0.704826 0.122981
H33   H     H_    0.312894 0.742266 0.803458 0.116407
H34   H     H_    0.547103 0.444273 0.775435 0.138220
H35   H     H_    0.255436 0.704804 0.621862 0.194773
H36   H     H_    0.152465 0.742231 0.715163 0.144961
H37   H     H_    0.283062 0.904639 0.745628 0.131641
H38   H     H_    0.262243 0.893724 0.636329 0.152354
H39   H     H_    0.395789 0.866320 0.657769 0.148924
H40   H     H_    0.805630 0.261562 0.415892 0.150222
H41   H     H_    0.674228 0.225936 0.376065 0.121615
H42   H     H_    0.825538 0.073155 0.411817 0.163641
H43   H     H_    0.695431 0.035457 0.368406 0.153360
H44   H     H_    0.783767 0.130598 0.241386 0.139523
H45   H     H_    0.162955 0.539906 0.917104 0.144333
H46   H     H_    0.870785 0.036182 0.253082 0.149868
H47   H     H_    0.915565 0.171832 0.282851 0.142346
H48   H     H_    0.532962 0.705786 0.334429 0.132794
H49   H     H_    0.553175 0.834948 0.302254 0.078955
H50   H     H_    0.405120 0.790436 0.220154 0.166480
H51   H     H_    0.485508 0.685091 0.196962 0.110517
H52   H     H_    0.330466 0.586267 0.304680 0.185967
H53   H     H_    0.277382 0.618136 0.216010 0.100707
H54   H     H_    0.246905 0.690586 0.319861 0.191823
H55   H     H_    0.202377 0.110635 0.369574 0.142014
H56   H     H_    0.846023 0.509570 0.082712 0.149259
H57   H     H_    0.017113 0.176819 0.410876 0.112362
H58   H     H_    0.960753 0.269188 0.554505 0.127721
H59   H     H_    0.084057 0.281050 0.663027 0.094920
H60   H     H_    0.264574 0.204540 0.626611 0.097463
H61   H     H_    0.776360 0.796326 0.418648 0.086927
H62   H     H_    0.967320 0.755598 0.430029 0.088178
H63   H     H_    0.043584 0.813067 0.563068 0.103362
H64   H     H_    0.923144 0.900423 0.688126 0.109009
H65   H     H_    0.721672 0.914998 0.685949 0.120870
H66   H     H_    0.472245 0.046487 0.707735 0.093284
H67   H     H_    0.310368 0.422037 0.135063 0.121428
H68   H     H_    0.526677 0.163536 0.830928 0.106204
H69   H     H_    0.731699 0.245288 0.826207 0.104365
H70   H     H_    0.881789 0.209570 0.698145 0.094752
H71   H     H_    0.828757 0.094112 0.571914 0.122147
H72   H     H_    0.171396 0.882206 0.440497 0.112728
H73   H     H_    0.080608 0.824562 0.314188 0.098945
H74   H     H_    0.181055 0.876690 0.170487 0.106582
H75   H     H_    0.374163 0.987257 0.153092 0.095875
H76   H     H_    0.466481 0.045332 0.278694 0.087048
H77   H     H_    0.662270 0.522359 0.856156 0.128477
H78   H     H_    0.147417 0.518268 0.616292 0.151220
N1    N     N_R   0.216750 0.481110 0.483710 -0.225123
N2    N     N_R   0.783250 0.518890 0.516290 -0.229419
O1    O     O_R   0.419950 0.645670 0.495380 -0.461059
O2    O     O_3   0.240493 0.594424 0.758361 -0.601911
O3    O     O_3   0.669347 0.193217 0.502280 -0.542016
O4    O     O_3   0.406276 0.794825 0.398938 -0.537331
O5    O     O_R   0.580050 0.354330 0.504620 -0.448891
O6    O     O_R   0.611110 0.658410 0.506370 -0.538452
O7    O     O_R   0.388890 0.341590 0.493630 -0.525449
O8    O     O_R   0.350820 0.490050 0.621260 -0.473108
O9    O     O_R   0.649180 0.509950 0.378740 -0.479219
O10   O     O_R   0.541970 0.502800 0.632250 -0.539932
O11   O     O_R   0.458030 0.497200 0.367750 -0.553168
O12   O     O_3   0.810006 0.539134 0.246047 -0.590626

loop_
_geom_bond_atom_site_label_1
_geom_bond_atom_site_label_2
_ccdc_geom_bond_type
C69   H37   S    
C39   H4    S    
C87   C88   A    
C93   C94   A    
C13   O5    A    
C22   C29   A    
C29   H23   S    
C73   H48   S    
C41   C42   A    
C19   C20   A    
C21   C26   A    
C65   H30   S    
C81   C82   A    
C1    O1    A    
C77   C78   A    
C52   C53   A    
C15   C19   A    
C11   C19   A    
C70   H41   S    
C24   C36   A    
C61   H22   S    
C63   H25   S    
C10   H1    S    
C41   H6    S    
C3    H76   S    
Cu1   O7    S    
C38   C39   A    
C11   C14   A    
C78   C80   A    
C80   H58   S    
C87   H64   S    
Cu2   O9    S    
C69   H39   S    
C47   H10   S    
C15   N2    A    
C7    O3    S    
C13   O7    A    
C34   C35   A    
C73   C74   S    
C23   C26   A    
C37   C42   A    
C11   H12   S    
C67   H36   S    
C70   O3    S    
C94   H70   S    
C7    C68   A    
C66   H32   S    
C3    C100  A    
C12   N2    A    
C99   H74   S    
C47   C48   A    
Cu2   O5    S    
C10   C20   A    
C8    C9    A    
Cu2   O10   S    
C31   C33   A    
C3    C96   A    
C15   H2    S    
C89   C91   A    
C63   H26   S    
Cu1   O1    S    
C52   H15   S    
C59   H20   S    
C83   C88   A    
C59   C60   A    
C28   H34   S    
C54   H17   S    
C73   H49   S    
C18   O11   A    
C74   H50   S    
C61   C62   A    
C86   H63   S    
C81   H59   S    
C5    C68   A    
C100  H75   S    
C75   H54   S    
C65   H29   S    
Cu1   O11   S    
C97   C98   A    
C4    C90   A    
C55   H18   S    
C45   C47   A    
C17   O10   A    
C35   H77   S    
C18   O9    A    
C70   H40   S    
C74   C75   S    
C30   C34   A    
C51   C52   A    
Cu2   N2    S    
Cu1   Cu2   S    
C91   H66   S    
C76   C77   A    
C4    C79   A    
Cu1   O8    S    
C92   H68   S    
C91   C92   A    
C62   H24   S    
C53   H16   S    
C43   C49   A    
C6    C8    A    
C82   H60   S    
C58   C59   A    
C85   C86   A    
C23   H45   S    
Cu2   O6    S    
C66   H33   S    
C74   H51   S    
C60   C61   A    
C67   C69   S    
C89   C95   A    
C60   H21   S    
C43   C44   A    
C37   C38   A    
C83   C84   A    
C16   C20   A    
C88   H65   S    
C96   C97   A    
C50   C51   A    
C63   O12   S    
C27   O12   S    
C84   C85   A    
C24   H67   S    
C12   C56   S    
C84   H61   S    
C10   C12   A    
C40   H5    S    
C48   C49   A    
C71   H43   S    
C21   C28   A    
C64   H28   S    
C98   C99   A    
C22   C27   A    
C73   O4    S    
C1    C79   S    
C56   C62   A    
C2    C5    A    
C76   C82   A    
C39   C40   A    
C14   N1    A    
Cu1   N1    S    
C44   C45   A    
C86   C87   A    
C1    O6    A    
C7    C9    A    
C66   O2    S    
C54   C55   A    
C40   C41   A    
C58   H19   S    
C33   C57   A    
C97   H72   S    
C49   H13   S    
C18   C22   S    
C32   C46   A    
C42   H7    S    
C2    C8    A    
C51   H14   S    
C80   C81   A    
C9    C90   A    
C45   H9    S    
C53   C54   A    
C17   O8    A    
C25   C27   A    
C6    O4    S    
C50   C55   A    
C99   C100  A    
C35   C57   A    
C24   C46   A    
C64   C65   S    
C16   N1    A    
C5    C76   S    
C2    C96   S    
C95   H71   S    
C71   C72   S    
C29   C31   A    
C72   H46   S    
C23   C32   A    
C30   C32   A    
C98   H73   S    
C75   H52   S    
C6    C79   A    
C14   C50   S    
C4    C83   S    
C38   H3    S    
C72   H44   S    
C28   C30   A    
C92   C93   A    
C37   C46   S    
C56   C58   A    
C66   C67   S    
C34   C36   A    
C94   C95   A    
C67   H35   S    
C17   C21   S    
C70   C71   S    
C69   H38   S    
C43   C57   S    
C63   C64   S    
C75   H53   S    
C78   H57   S    
C64   H27   S    
C72   H47   S    
C44   H8    S    
C77   H55   S    
C25   H56   S    
C85   H62   S    
C31   C36   A    
C48   H11   S    
C89   C90   S    
C26   O2    S    
C65   H31   S    
C16   H78   S    
C25   C33   A    
C71   H42   S    
C13   C68   S    
C93   H69   S    
