data_mof_unit_37248.cif
_audit_creation_date              2012-12-10T19:22:27-0500
_audit_creation_method            fapswitch 2.2
_symmetry_space_group_name_H-M    P1
_symmetry_Int_Tables_number       1
_space_group_crystal_system       triclinic
_cell_length_a                    17.787661
_cell_length_b                    16.575177
_cell_length_c                    10.951597
_cell_angle_alpha                 90.335092
_cell_angle_beta                  94.047211
_cell_angle_gamma                 90.437738
_cell_volume                      3220.68693228

loop_
_atom_site_label
_atom_site_type_symbol
_atom_type_description
_atom_site_fract_x
_atom_site_fract_y
_atom_site_fract_z
_atom_type_partial_charge
C1    C     C_R   0.355342 0.499838 0.503137 0.871480
C2    C     C_R   0.644487 0.500366 0.491510 0.885830
C3    C     C_R   0.886240 0.520192 0.491835 -0.025183
C4    C     C_R   0.114625 0.523813 0.492873 -0.020383
C5    C     C_1   0.966816 0.529548 0.496024 0.118540
C6    C     C_1   0.034281 0.530780 0.496029 0.138949
C7    C     C_R   0.554870 0.830677 0.569908 -0.208979
C8    C     C_R   0.444340 0.829703 0.434150 -0.220508
C9    C     C_R   0.554747 0.745012 0.569516 0.171485
C10   C     C_R   0.444967 0.744047 0.431857 0.176727
C11   C     C_R   0.499464 0.873717 0.502758 0.036890
C12   C     C_1   0.499423 0.962584 0.503775 -0.023295
C13   C     C_1   0.499597 0.036533 0.503762 0.084129
C14   C     C_R   0.535246 0.170383 0.598735 0.256318
C15   C     C_R   0.464859 0.168101 0.403204 0.321450
C16   C     C_R   0.536736 0.256152 0.595419 0.040149
C17   C     C_R   0.463139 0.254431 0.405146 0.005468
C18   C     C_R   0.500096 0.125758 0.501783 -0.103310
C19   C     C_R   0.501303 0.499659 0.265214 0.901966
C20   C     C_R   0.498627 0.499974 0.734753 0.968847
C21   C     C_2   0.485149 0.435866 0.934290 -0.089264
C22   C     C_2   0.511630 0.435146 0.063723 -0.063061
C23   C     C_2   0.504917 0.499630 0.867180 -0.269787
C24   C     C_2   0.494009 0.498921 0.132816 -0.278656
C25   C     C_R   0.841106 0.584870 0.451616 0.369862
C26   C     C_R   0.161376 0.579376 0.559148 0.402673
C27   C     C_R   0.762272 0.576777 0.442449 -0.092908
C28   C     C_R   0.239419 0.565303 0.575851 -0.118510
C29   C     C_R   0.727675 0.502929 0.475832 -0.178645
C30   C     C_R   0.272007 0.501430 0.510849 -0.145969
C31   C     C_R   0.774330 0.434338 0.500145 -0.110575
C32   C     C_R   0.224052 0.445337 0.444120 -0.095464
C33   C     C_R   0.853857 0.443784 0.511675 -0.068214
C34   C     C_R   0.145154 0.456501 0.434999 -0.064433
Cu1   Cu    Cu3+1 0.500000 0.580420 0.500000 0.972224
Cu2   Cu    Cu3+1 0.500000 0.419580 0.500000 0.997768
H1    H     H_    0.535332 0.550390 0.911070 0.135542
H2    H     H_    0.464948 0.550220 0.090373 0.146500
H3    H     H_    0.597788 0.864171 0.624664 0.191060
H4    H     H_    0.401130 0.862397 0.380605 0.180427
N1    N     N_R   0.500000 0.701220 0.500000 -0.247112
N2    N     N_R   0.500000 0.298780 0.500000 -0.268118
O1    O     O_R   0.391260 0.567930 0.500000 -0.600508
O2    O     O_R   0.608740 0.567930 0.500000 -0.594309
O3    O     O_R   0.391280 0.432120 0.500000 -0.614074
O4    O     O_R   0.608720 0.432120 0.500000 -0.545649
O5    O     O_R   0.500000 0.567890 0.321940 -0.598350
O6    O     O_R   0.500000 0.567890 0.678060 -0.607066
O7    O     O_R   0.500030 0.432070 0.321950 -0.588967
O8    O     O_R   0.499970 0.432070 0.678050 -0.553772
C35   C     C_2   0.435021 0.368373 0.887826 0.412986
H5    H     H_    0.436653 0.311026 0.935153 0.063878
O9    O     O_2   0.388333 0.377415 0.801886 -0.503129
C36   C     C_2   0.559452 0.366357 0.107720 0.449788
H6    H     H_    0.555531 0.309217 0.058739 0.032552
O10   O     O_2   0.606914 0.374060 0.193214 -0.544444
C37   C     C_2   0.576754 0.295965 0.702795 0.576080
H7    H     H_    0.565082 0.277318 0.794320 -0.006480
O11   O     O_2   0.626079 0.346071 0.692006 -0.513019
C38   C     C_2   0.418368 0.295199 0.304533 0.492278
H8    H     H_    0.393022 0.352577 0.318962 0.110033
O12   O     O_2   0.409124 0.265357 0.202388 -0.552024
O13   O     O_3   0.874175 0.657208 0.420382 -0.596306
C39   C     C_3   0.888513 0.654751 0.294920 0.034500
H9    H     H_    0.842477 0.624301 0.236802 0.162616
H10   H     H_    0.942173 0.622621 0.283118 0.169938
C40   C     C_3   0.895803 0.740510 0.248295 -0.731697
H11   H     H_    0.841982 0.773043 0.256139 0.248983
H12   H     H_    0.941538 0.773296 0.302460 0.252028
H13   H     H_    0.909062 0.739273 0.150732 0.219151
O14   O     O_3   0.129033 0.642531 0.619805 -0.584745
C41   C     C_3   0.137677 0.715179 0.554434 0.031973
H14   H     H_    0.189911 0.717886 0.503664 0.149915
H15   H     H_    0.142053 0.765563 0.621899 0.184152
C42   C     C_3   0.069118 0.729967 0.466299 -0.746336
H16   H     H_    0.016765 0.725914 0.515565 0.286657
H17   H     H_    0.073160 0.791054 0.426100 0.213494
H18   H     H_    0.066661 0.684819 0.390875 0.233233
C43   C     C_2   0.718770 0.645689 0.388522 0.437000
H19   H     H_    0.735127 0.707108 0.413739 0.122325
O15   O     O_2   0.667565 0.634600 0.309802 -0.535925
C44   C     C_2   0.284278 0.614644 0.669320 0.458902
H20   H     H_    0.267614 0.675641 0.690354 0.073231
O16   O     O_2   0.338058 0.586083 0.729057 -0.524856
C45   C     C_2   0.740951 0.352222 0.508731 0.442560
H21   H     H_    0.697288 0.331916 0.441120 0.121519
O17   O     O_2   0.761915 0.306510 0.591095 -0.502409
C46   C     C_2   0.255577 0.374306 0.384253 0.308468
H22   H     H_    0.289852 0.331979 0.438356 0.096440
O18   O     O_2   0.242488 0.362130 0.274693 -0.510433
C47   C     C_2   0.903127 0.372413 0.537019 0.493476
H23   H     H_    0.887934 0.314224 0.496247 0.093043
O19   O     O_2   0.960221 0.377504 0.605466 -0.526898
C48   C     C_2   0.095020 0.395545 0.368270 0.486173
H24   H     H_    0.110882 0.332485 0.367388 0.100483
O20   O     O_2   0.036779 0.415259 0.310869 -0.554628
C49   C     C_2   0.614937 0.705595 0.648072 0.360384
H25   H     H_    0.608622 0.645599 0.682582 0.122259
O21   O     O_2   0.673853 0.741252 0.677570 -0.562848
C50   C     C_2   0.384757 0.703594 0.352614 0.363121
H26   H     H_    0.391416 0.644010 0.315993 0.122933
O22   O     O_2   0.325426 0.737823 0.325143 -0.578200
O23   O     O_3   0.574958 0.130465 0.693144 -0.556131
C51   C     C_3   0.525338 0.109726 0.783352 0.060116
H27   H     H_    0.490872 0.055980 0.753555 0.163593
H28   H     H_    0.486764 0.160028 0.804008 0.114983
C52   C     C_3   0.571689 0.089235 0.900779 -0.753620
H29   H     H_    0.606796 0.142035 0.932481 0.248130
H30   H     H_    0.533671 0.073312 0.972803 0.186918
H31   H     H_    0.608880 0.037225 0.885042 0.264347
O24   O     O_3   0.422558 0.125357 0.313040 -0.531339
C53   C     C_3   0.470440 0.091471 0.228843 0.119595
H32   H     H_    0.524010 0.067557 0.272912 0.121725
H33   H     H_    0.485054 0.137599 0.161029 0.173250
C54   C     C_3   0.428919 0.021854 0.161836 -0.747838
H34   H     H_    0.379219 0.044799 0.105858 0.263359
H35   H     H_    0.466824 0.990524 0.101155 0.191350
H36   H     H_    0.409649 0.977655 0.228961 0.250172

loop_
_geom_bond_atom_site_label_1
_geom_bond_atom_site_label_2
_ccdc_geom_bond_type
C15   C18   A    
C31   C45   S    
C27   C29   A    
C14   C18   A    
Cu2   N2    S    
O24   C53   S    
Cu1   O5    S    
C53   H33   S    
C49   H25   S    
C14   O23   S    
C22   C36   S    
C45   H21   S    
C2    O4    A    
C7    C11   A    
C13   C18   S    
C2    C29   S    
C27   C43   S    
C33   C47   S    
C5    C6    T    
C19   O5    A    
C37   O11   D    
C3    C33   A    
C54   H34   S    
C32   C46   S    
C38   O12   D    
C25   O13   S    
C17   N2    A    
C53   H32   S    
C20   O8    A    
C1    O1    A    
Cu1   Cu2   S    
C2    O2    A    
C54   H35   S    
C24   H2    S    
C52   H29   S    
C31   C33   A    
Cu2   O4    S    
Cu1   O1    S    
C21   C22   S    
C10   N1    A    
C26   O14   S    
C52   H30   S    
C41   C42   S    
Cu1   O6    S    
C51   H28   S    
C51   H27   S    
C49   O21   D    
C4    C34   A    
C45   O17   D    
C36   O10   D    
C28   C44   S    
C40   H11   S    
C39   C40   S    
C15   O24   S    
C3    C25   A    
C43   H19   S    
C41   H15   S    
C47   H23   S    
C43   O15   D    
C23   H1    S    
C35   H5    S    
C38   H8    S    
C35   O9    D    
C39   H10   S    
C48   O20   D    
C42   H16   S    
C47   O19   D    
C19   O7    A    
C20   C23   S    
C54   H36   S    
C50   O22   D    
Cu2   O3    S    
C46   H22   S    
C10   C50   S    
Cu1   O2    S    
C42   H17   S    
C20   O6    A    
C4    C6    S    
C46   O18   D    
C44   O16   D    
C21   C23   D    
C52   H31   S    
C14   C16   A    
C16   N2    A    
C21   C35   S    
Cu2   O8    S    
C15   C17   A    
C36   H6    S    
C9    C49   S    
C9    N1    A    
C34   C48   S    
C41   H14   S    
C3    C5    S    
C4    C26   A    
C11   C12   S    
C25   C27   A    
C26   C28   A    
C40   H13   S    
C39   H9    S    
C28   C30   A    
C19   C24   S    
O14   C41   S    
C29   C31   A    
C30   C32   A    
C1    O3    A    
C37   H7    S    
C8    C11   A    
C1    C30   S    
C22   C24   D    
C16   C37   S    
C53   C54   S    
C48   H24   S    
Cu1   N1    S    
C42   H18   S    
C17   C38   S    
O13   C39   S    
C7    C9    A    
C12   C13   T    
C8    C10   A    
C44   H20   S    
O23   C51   S    
C7    H3    S    
C50   H26   S    
C8    H4    S    
C40   H12   S    
C51   C52   S    
Cu2   O7    S    
C32   C34   A    
