data_mof_unit_53124.cif
_audit_creation_date              2012-12-11T14:13:26-0500
_audit_creation_method            fapswitch 2.2
_symmetry_space_group_name_H-M    P1
_symmetry_Int_Tables_number       1
_space_group_crystal_system       triclinic
_cell_length_a                    17.26265
_cell_length_b                    17.319388
_cell_length_c                    17.392241
_cell_angle_alpha                 89.99934
_cell_angle_beta                  90.365883
_cell_angle_gamma                 90.016995
_cell_volume                      5199.80045149

loop_
_atom_site_label
_atom_site_type_symbol
_atom_type_description
_atom_site_fract_x
_atom_site_fract_y
_atom_site_fract_z
_atom_type_partial_charge
C1    C     C_R   0.595552 0.316028 0.128510 0.086250
C2    C     C_R   0.197642 0.107032 0.597451 0.092399
C3    C     C_3   0.799440 0.235852 0.855069 -0.249286
C4    C     C_3   0.765038 0.208094 0.153963 -0.251424
C5    C     C_3   0.150274 0.250304 0.052480 -0.282921
C6    C     C_3   0.245440 0.857852 0.079885 -0.279251
C7    C     C_3   0.863422 0.753131 0.073796 -0.279223
C8    C     C_3   0.261925 0.299919 0.347718 -0.263765
C9    C     C_3   0.636196 0.253344 0.432233 -0.275021
C10   C     C_3   0.725508 0.706525 0.348790 -0.254876
C11   C     C_3   0.303693 0.726932 0.360309 -0.251933
C12   C     C_3   0.274844 0.705338 0.651585 -0.255767
C13   C     C_R   0.894047 0.196935 0.599782 0.106645
C14   C     C_3   0.700318 0.736018 0.646331 -0.249744
C15   C     C_3   0.745185 0.361393 0.574950 -0.272557
C16   C     C_3   0.360058 0.261277 0.570905 -0.271794
C17   C     C_R   0.813763 0.902934 0.625157 0.087926
C18   C     C_R   0.095997 0.185587 0.373682 0.088091
C19   C     C_R   0.189869 0.898588 0.381620 0.091370
C20   C     C_R   0.900506 0.812967 0.376549 0.088620
C21   C     C_R   0.802103 0.106467 0.402524 0.098651
C22   C     C_R   0.606773 0.696477 0.099819 -0.219916
C23   C     C_R   0.303812 0.605438 0.101690 -0.221632
C24   C     C_R   0.393400 0.302847 0.097154 -0.216007
C25   C     C_R   0.697619 0.606424 0.098234 0.098755
C26   C     C_R   0.683630 0.410262 0.130238 -0.207834
C27   C     C_R   0.593944 0.313273 0.875351 -0.213051
C28   C     C_R   0.313615 0.407740 0.873732 -0.222353
C29   C     C_R   0.393641 0.696554 0.900076 -0.221918
C30   C     C_R   0.696802 0.606672 0.901105 -0.219847
C31   C     C_R   0.106393 0.196607 0.599603 -0.217740
C32   C     C_R   0.803324 0.106814 0.599091 -0.219409
C33   C     C_R   0.906146 0.813395 0.624847 -0.212481
C34   C     C_R   0.186040 0.908558 0.626846 -0.214217
C35   C     C_R   0.096368 0.810466 0.380361 -0.219069
C36   C     C_R   0.393995 0.696337 0.101324 0.103048
C37   C     C_R   0.814377 0.908736 0.372558 -0.214130
C38   C     C_R   0.892320 0.196908 0.402535 -0.217844
C39   C     C_R   0.185400 0.093004 0.373419 -0.217364
C40   C     C_R   0.662680 0.341865 0.164300 -0.152614
C41   C     C_R   0.684915 0.683781 0.111990 -0.070633
C42   C     C_R   0.316833 0.682707 0.116228 -0.080783
C43   C     C_R   0.316094 0.315212 0.111022 -0.088106
C44   C     C_R   0.683861 0.683987 0.887050 -0.078614
C45   C     C_R   0.662881 0.333679 0.842514 -0.155260
C46   C     C_R   0.331910 0.337163 0.843099 -0.144536
C47   C     C_R   0.303035 0.392955 0.099202 0.096567
C48   C     C_R   0.315628 0.684135 0.887625 -0.071239
C49   C     C_R   0.167756 0.838127 0.657728 -0.144027
C50   C     C_R   0.184483 0.184354 0.611569 -0.070547
C51   C     C_R   0.816487 0.184187 0.613089 -0.078353
C52   C     C_R   0.837309 0.833907 0.657848 -0.154041
C53   C     C_R   0.164175 0.161587 0.339819 -0.146822
C54   C     C_R   0.167407 0.828198 0.351108 -0.147972
C55   C     C_R   0.832938 0.838556 0.341363 -0.146226
C56   C     C_R   0.814286 0.184132 0.390182 -0.070966
C57   C     C_2   0.809003 0.719092 0.838374 -0.313711
C58   C     C_R   0.606244 0.696814 0.900036 0.102041
C59   C     C_2   0.280110 0.809991 0.840908 -0.314952
C60   C     C_2   0.264807 0.343006 0.722282 -0.252401
C61   C     C_2   0.657586 0.264907 0.723304 -0.246230
C62   C     C_2   0.730559 0.345740 0.285253 -0.245741
C63   C     C_2   0.282371 0.190869 0.162003 -0.300131
C64   C     C_2   0.193384 0.715462 0.169567 -0.313097
C65   C     C_2   0.721364 0.809773 0.157775 -0.317695
C66   C     C_2   0.234635 0.156626 0.221536 -0.237928
C67   C     C_2   0.776699 0.310810 0.346565 -0.315396
C68   C     C_2   0.766120 0.843680 0.220369 -0.247066
C69   C     C_R   0.686350 0.402820 0.875032 0.087868
C70   C     C_2   0.160725 0.759668 0.232274 -0.245014
C71   C     C_2   0.235103 0.843676 0.778429 -0.245354
C72   C     C_2   0.842781 0.764777 0.776924 -0.244797
C73   C     C_2   0.691391 0.219561 0.661643 -0.314642
C74   C     C_2   0.219394 0.309728 0.659884 -0.309060
C75   C     C_2   0.743000 0.742517 0.871277 0.656804
C76   C     C_2   0.256812 0.743398 0.872619 0.659336
C77   C     C_2   0.287254 0.299499 0.782714 0.678538
C78   C     C_2   0.701111 0.288594 0.783462 0.683476
C79   C     C_2   0.707361 0.303505 0.224241 0.680492
C80   C     C_R   0.399951 0.312220 0.877796 0.092618
C81   C     C_2   0.258417 0.255000 0.125901 0.671192
C82   C     C_2   0.258145 0.740295 0.135519 0.660493
C83   C     C_2   0.744227 0.742581 0.126985 0.657398
C84   C     C_2   0.208322 0.200028 0.280102 0.673859
C85   C     C_2   0.754563 0.243136 0.377109 0.654938
C86   C     C_2   0.787746 0.800822 0.281559 0.679917
C87   C     C_2   0.205081 0.782643 0.292179 0.680274
C88   C     C_2   0.212888 0.800511 0.717638 0.677441
C89   C     C_2   0.799125 0.788948 0.717055 0.681859
C90   C     C_2   0.757694 0.242914 0.629223 0.655101
C91   C     C_R   0.302600 0.606791 0.901343 0.097101
C92   C     C_2   0.242959 0.243947 0.626621 0.665835
C93   C     C_1   0.562559 0.240250 0.136613 0.080513
C94   C     C_1   0.771690 0.573144 0.079900 0.079569
C95   C     C_1   0.427543 0.771311 0.088843 0.094009
C96   C     C_1   0.227921 0.427343 0.088542 0.106647
C97   C     C_1   0.572280 0.771466 0.913194 0.096269
C98   C     C_1   0.762303 0.436136 0.868481 0.077847
C99   C     C_1   0.424171 0.232933 0.882871 0.049695
C100  C     C_1   0.227994 0.573742 0.917692 0.083817
C101  C     C_1   0.076077 0.733189 0.618099 0.062852
C102  C     C_R   0.100002 0.812611 0.622715 0.088886
C103  C     C_1   0.271670 0.074680 0.577539 0.097413
C104  C     C_1   0.927751 0.271359 0.584545 0.089714
C105  C     C_1   0.737805 0.936196 0.631703 0.079339
C106  C     C_1   0.062520 0.261284 0.366795 0.078102
C107  C     C_1   0.268809 0.924477 0.387883 0.058592
C108  C     C_1   0.924843 0.733641 0.380061 0.063092
C109  C     C_1   0.728261 0.072778 0.421082 0.081765
C110  C     C_3   0.755265 0.859635 0.928211 -0.274241
C111  C     C_3   0.139292 0.754119 0.928939 -0.281640
C112  C     C_3   0.228017 0.202339 0.848688 -0.267522
H1    H     H_    0.580093 0.752106 0.092775 0.120769
H2    H     H_    0.747233 0.081644 0.589089 0.122007
H3    H     H_    0.934762 0.758852 0.631642 0.128331
H4    H     H_    0.237973 0.941505 0.637367 0.126858
H5    H     H_    0.067766 0.755713 0.375327 0.128831
H6    H     H_    0.762455 0.941461 0.361713 0.128352
H7    H     H_    0.917650 0.252610 0.413428 0.119535
H8    H     H_    0.239507 0.063780 0.365406 0.129873
H9    H     H_    0.829373 0.660058 0.842943 0.123116
H10   H     H_    0.339060 0.830810 0.846662 0.120094
H11   H     H_    0.274043 0.405073 0.721805 0.114559
H12   H     H_    0.247939 0.578766 0.095286 0.121071
H13   H     H_    0.595232 0.273621 0.722367 0.115263
H14   H     H_    0.721550 0.407819 0.286738 0.110824
H15   H     H_    0.342728 0.173474 0.162386 0.119008
H16   H     H_    0.173137 0.656455 0.164286 0.121345
H17   H     H_    0.662819 0.831345 0.150886 0.120589
H18   H     H_    0.227904 0.094232 0.221670 0.113983
H19   H     H_    0.835499 0.332088 0.352381 0.122017
H20   H     H_    0.776214 0.905604 0.219024 0.111924
H21   H     H_    0.098421 0.768737 0.231766 0.116295
H22   H     H_    0.225463 0.905671 0.779415 0.112112
H23   H     H_    0.418572 0.247290 0.085194 0.119166
H24   H     H_    0.905191 0.773121 0.777596 0.114711
H25   H     H_    0.670497 0.160771 0.656247 0.123713
H26   H     H_    0.160003 0.329619 0.655789 0.119497
H27   H     H_    0.734343 0.837191 0.984302 0.112506
H28   H     H_    0.737987 0.921192 0.924334 0.183910
H29   H     H_    0.819640 0.857269 0.925558 0.132967
H30   H     H_    0.162066 0.732438 0.984936 0.113907
H31   H     H_    0.077608 0.736595 0.924608 0.182043
H32   H     H_    0.141313 0.818340 0.927048 0.134546
H33   H     H_    0.173637 0.236943 0.849337 0.124949
H34   H     H_    0.735670 0.442763 0.141394 0.128489
H35   H     H_    0.260813 0.210381 0.903305 0.130961
H36   H     H_    0.211272 0.140602 0.845121 0.176502
H37   H     H_    0.794077 0.274439 0.905796 0.135796
H38   H     H_    0.860759 0.217067 0.851978 0.174174
H39   H     H_    0.763347 0.183114 0.862683 0.123110
H40   H     H_    0.729342 0.215075 0.101029 0.135020
H41   H     H_    0.783898 0.146936 0.156622 0.173429
H42   H     H_    0.818165 0.244418 0.150753 0.128021
H43   H     H_    0.178664 0.281947 0.004575 0.119879
H44   H     H_    0.087637 0.264477 0.050500 0.184720
H45   H     H_    0.565323 0.258718 0.868586 0.129292
H46   H     H_    0.156045 0.186813 0.044188 0.131198
H47   H     H_    0.266736 0.836121 0.023619 0.113717
H48   H     H_    0.262267 0.919500 0.084472 0.184637
H49   H     H_    0.181063 0.854958 0.082209 0.133246
H50   H     H_    0.841861 0.732945 0.016804 0.113861
H51   H     H_    0.924744 0.734725 0.079329 0.181894
H52   H     H_    0.862216 0.817310 0.077033 0.134885
H53   H     H_    0.227209 0.291895 0.400742 0.131221
H54   H     H_    0.277167 0.362012 0.343918 0.177452
H55   H     H_    0.317121 0.266818 0.351796 0.124065
H56   H     H_    0.261431 0.440139 0.863271 0.129280
H57   H     H_    0.658645 0.232995 0.488798 0.112904
H58   H     H_    0.574829 0.234836 0.427590 0.181552
H59   H     H_    0.637263 0.317530 0.429166 0.133944
H60   H     H_    0.671408 0.741542 0.347096 0.128509
H61   H     H_    0.757223 0.716226 0.403791 0.134153
H62   H     H_    0.708360 0.644822 0.346934 0.174072
H63   H     H_    0.295583 0.761664 0.413399 0.134548
H64   H     H_    0.365813 0.710919 0.357425 0.175677
H65   H     H_    0.269663 0.672387 0.363513 0.124442
H66   H     H_    0.244002 0.715561 0.596193 0.133917
H67   H     H_    0.420426 0.752099 0.907344 0.120490
H68   H     H_    0.290958 0.643376 0.653618 0.174752
H69   H     H_    0.329479 0.739506 0.653984 0.128650
H70   H     H_    0.706224 0.773809 0.595068 0.135654
H71   H     H_    0.638774 0.717979 0.649591 0.174812
H72   H     H_    0.735787 0.682770 0.639523 0.123589
H73   H     H_    0.764880 0.340123 0.517988 0.112926
H74   H     H_    0.762954 0.422746 0.579885 0.183925
H75   H     H_    0.680869 0.359348 0.578758 0.133006
H76   H     H_    0.335348 0.246754 0.513379 0.112748
H77   H     H_    0.421360 0.242078 0.571578 0.177923
H78   H     H_    0.752815 0.581457 0.911385 0.121765
H79   H     H_    0.359694 0.324872 0.580035 0.140617
H80   H     H_    0.079479 0.252098 0.592432 0.119698
N1    N     N_R   0.574080 0.369570 0.076720 -0.057867
N2    N     N_R   0.130430 0.074080 0.576720 -0.064743
N3    N     N_R   0.925920 0.130430 0.576720 -0.064635
N4    N     N_R   0.869570 0.925920 0.576720 -0.057737
N5    N     N_R   0.074080 0.130430 0.423280 -0.058345
N6    N     N_R   0.130430 0.925920 0.423280 -0.056795
N7    N     N_R   0.925920 0.869570 0.423280 -0.057250
N8    N     N_R   0.869570 0.074080 0.423280 -0.064316
N9    N     N_R   0.574050 0.630410 0.076720 -0.042632
N10   N     N_R   0.369590 0.574050 0.076720 -0.042407
N11   N     N_R   0.425950 0.369590 0.076720 -0.041043
N12   N     N_R   0.630430 0.574080 0.076720 -0.063730
N13   N     N_R   0.630410 0.425950 0.076720 -0.039074
N14   N     N_R   0.574050 0.369590 0.923280 -0.037662
N15   N     N_R   0.369590 0.425950 0.923280 -0.039134
N16   N     N_R   0.425950 0.630410 0.923280 -0.042274
N17   N     N_R   0.630410 0.574050 0.923280 -0.042673
N18   N     N_R   0.074050 0.130410 0.576720 -0.041618
N19   N     N_R   0.869590 0.074050 0.576720 -0.043231
N20   N     N_R   0.925950 0.869590 0.576720 -0.038117
N21   N     N_R   0.130410 0.925950 0.576720 -0.038758
N22   N     N_R   0.074050 0.869590 0.423280 -0.037469
N23   N     N_R   0.425920 0.630430 0.076720 -0.063778
N24   N     N_R   0.869590 0.925950 0.423280 -0.038630
N25   N     N_R   0.925950 0.130410 0.423280 -0.043015
N26   N     N_R   0.130410 0.074050 0.423280 -0.039711
N27   N     N_1   0.537266 0.178775 0.143664 -0.079463
N28   N     N_1   0.831218 0.546559 0.064923 -0.081984
N29   N     N_1   0.453480 0.832098 0.078920 -0.082299
N30   N     N_1   0.166902 0.453852 0.080292 -0.077486
N31   N     N_1   0.546072 0.832025 0.923684 -0.081929
N32   N     N_1   0.823984 0.461629 0.862757 -0.077264
N33   N     N_1   0.442889 0.168899 0.887109 -0.079491
N34   N     N_R   0.369570 0.425920 0.076720 -0.064111
N35   N     N_1   0.167744 0.547678 0.930642 -0.078756
N36   N     N_1   0.057574 0.669058 0.614268 -0.077310
N37   N     N_1   0.331193 0.048862 0.561315 -0.078170
N38   N     N_1   0.953917 0.331568 0.572025 -0.087003
N39   N     N_1   0.676120 0.961644 0.637420 -0.076909
N40   N     N_1   0.036866 0.322742 0.360806 -0.078683
N41   N     N_1   0.332572 0.944604 0.393026 -0.074425
N42   N     N_1   0.943507 0.669516 0.382953 -0.077883
N43   N     N_1   0.668890 0.045922 0.436260 -0.081992
N44   N     N_R   0.574080 0.630430 0.923280 -0.064371
N45   N     N_R   0.630430 0.425920 0.923280 -0.057418
N46   N     N_R   0.425920 0.369570 0.923280 -0.056435
N47   N     N_R   0.369570 0.574080 0.923280 -0.063674
N48   N     N_R   0.074080 0.869570 0.576720 -0.056987
Ni1   Ni    Ni4+2 0.500000 0.370760 0.000000 0.212566
Ni2   Ni    Ni4+2 0.629240 0.500000 0.000000 0.212982
Ni3   Ni    Ni4+2 0.500000 0.629240 0.000000 0.207848
Ni4   Ni    Ni4+2 0.370760 0.500000 0.000000 0.211117
Ni5   Ni    Ni4+2 0.000000 0.870760 0.500000 0.217553
Ni6   Ni    Ni4+2 0.129240 1.000000 0.500000 0.216959
Ni7   Ni    Ni4+2 0.000000 0.129240 0.500000 0.207199
Ni8   Ni    Ni4+2 0.870760 1.000000 0.500000 0.212447
O1    O     O_3   0.720778 0.819345 0.866572 -0.564781
O2    O     O_3   0.677839 0.219754 0.371439 -0.563360
O3    O     O_3   0.772789 0.722090 0.284820 -0.573139
O4    O     O_3   0.284469 0.769657 0.293864 -0.572875
O5    O     O_3   0.227037 0.721632 0.714975 -0.573951
O6    O     O_3   0.719691 0.775854 0.714519 -0.572738
O7    O     O_3   0.780616 0.319505 0.634980 -0.564381
O8    O     O_3   0.320316 0.222477 0.629965 -0.569601
O9    O     O_3   0.179781 0.721149 0.867033 -0.564969
O10   O     O_3   0.273893 0.220424 0.784349 -0.572711
O11   O     O_3   0.780446 0.274949 0.786357 -0.572142
O12   O     O_3   0.721768 0.224629 0.220465 -0.573182
O13   O     O_3   0.180377 0.273513 0.124295 -0.566586
O14   O     O_3   0.279851 0.817187 0.141327 -0.566033
O15   O     O_3   0.820872 0.719300 0.133863 -0.564440
O16   O     O_3   0.219161 0.279528 0.281381 -0.574182

loop_
_geom_bond_atom_site_label_1
_geom_bond_atom_site_label_2
_ccdc_geom_bond_type
C103  N37   T    
C4    H42   S    
C90   O7    S    
C24   N11   A    
C81   O13   S    
C101  C102  S    
C47   N34   A    
C44   C75   S    
C15   H75   S    
C68   C86   D    
C48   C76   S    
C39   N26   A    
C36   C42   A    
C42   C82   S    
N16   Ni3   S    
N21   N48   A    
N8    Ni8   S    
C30   N17   A    
C14   H71   S    
C9    H58   S    
C32   C51   A    
C15   O7    S    
C33   C52   A    
C74   H26   S    
N46   Ni1   S    
C28   C46   A    
C11   H64   S    
C95   N29   T    
C29   N16   A    
C62   C67   S    
C63   C81   D    
C53   C84   S    
C79   O12   S    
N26   Ni6   S    
N44   Ni3   S    
C110  H27   S    
C8    H55   S    
N6    Ni6   S    
C73   C90   D    
C58   N44   A    
C66   H18   S    
C51   C90   S    
C7    H51   S    
C54   C87   S    
C33   N20   A    
C3    O11   S    
C72   H24   S    
C22   C41   A    
C27   C45   A    
C10   H60   S    
C39   H8    S    
C41   C83   S    
C112  H33   S    
C17   C52   A    
C68   H20   S    
C10   O3    S    
C80   N46   A    
C26   H34   S    
C66   C84   D    
C6    H48   S    
C2    C50   A    
C1    C40   A    
C112  O10   S    
C13   C51   A    
C83   O15   S    
C22   H1    S    
C37   H6    S    
C44   C58   A    
C102  N48   A    
C64   H16   S    
C48   C91   A    
C98   N32   T    
C82   O14   S    
C70   H21   S    
C47   C96   S    
C7    O15   S    
N47   Ni4   S    
C11   H65   S    
C64   C70   S    
C91   C100  S    
C8    O16   S    
C43   C47   A    
C37   N24   A    
C26   N13   A    
N15   N46   A    
C111  H31   S    
N22   Ni5   S    
C69   C98   S    
C25   N12   A    
C59   H10   S    
C4    H41   S    
C107  N41   T    
C63   C66   S    
C74   C92   D    
C85   O2    S    
C4    O12   S    
C59   C76   D    
N4    Ni8   S    
C35   C54   A    
C5    O13   S    
N8    N25   A    
C49   C88   S    
C30   C44   A    
C52   C89   S    
C58   C97   S    
N1    Ni1   S    
N18   Ni7   S    
C71   H22   S    
C20   C55   A    
C70   C87   D    
N16   N47   A    
C14   H70   S    
C6    H47   S    
C31   C50   A    
C110  O1    S    
C87   O4    S    
C4    H40   S    
C15   H74   S    
C108  N42   T    
C60   C77   D    
C3    H37   S    
C33   H3    S    
C23   N10   A    
C45   C69   A    
N7    N24   A    
C62   C79   D    
N1    N13   A    
C16   H76   S    
C25   C41   A    
C49   C102  A    
C62   H14   S    
C32   N19   A    
N7    Ni5   S    
C109  N43   T    
C29   C48   A    
C61   C73   S    
C5    H43   S    
N3    Ni7   S    
C31   H80   S    
N5    Ni7   S    
C97   N31   T    
C2    N2    A    
C65   C83   D    
C37   C55   A    
N19   Ni8   S    
C100  N35   T    
C1    N1    A    
C18   C106  S    
C20   N7    A    
N3    N19   A    
C16   H79   S    
C17   C105  S    
C65   H17   S    
N2    N18   A    
C111  H30   S    
C38   N25   A    
N12   Ni2   S    
C12   H69   S    
C14   O6    S    
C6    H49   S    
C61   C78   D    
C78   O11   S    
C65   C68   S    
N10   Ni4   S    
C3    H38   S    
C18   N5    A    
C94   N28   T    
C40   C79   S    
C6    O14   S    
C99   N33   T    
C104  N38   T    
C13   C104  S    
C11   H63   S    
C23   C42   A    
C64   C82   D    
C45   C78   S    
C8    H54   S    
C111  H32   S    
C38   H7    S    
N45   Ni2   S    
C19   C54   A    
C50   C92   S    
C12   H68   S    
C69   N45   A    
C5    H46   S    
C96   N30   T    
C77   O10   S    
C101  N36   T    
C80   C99   S    
C13   N3    A    
N48   Ni5   S    
C43   C81   S    
N9    N12   A    
C35   H5    S    
N14   Ni1   S    
N24   Ni8   S    
C21   N8    A    
N13   Ni2   S    
N6    N22   A    
C92   O8    S    
C24   H23   S    
C76   O9    S    
C86   O3    S    
C24   C43   A    
C34   C49   A    
C12   O5    S    
C22   N9    A    
N34   Ni4   S    
C19   N6    A    
C3    H39   S    
C67   H19   S    
N25   Ni7   S    
N20   Ni5   S    
C34   N21   A    
N17   Ni2   S    
C21   C56   A    
C14   H72   S    
C88   O5    S    
N11   Ni1   S    
C27   H45   S    
C5    H44   S    
C7    H52   S    
N23   Ni3   S    
C11   O4    S    
N9    Ni3   S    
C112  H35   S    
C93   N27   T    
C89   O6    S    
C110  H29   S    
C57   C75   D    
C55   C86   S    
C110  H28   S    
C9    O2    S    
N17   N44   A    
C36   N23   A    
C27   N14   A    
N15   Ni4   S    
C29   H67   S    
C67   C85   D    
C72   C89   D    
C16   O8    S    
C36   C95   S    
C26   C40   A    
C56   C85   S    
C39   C53   A    
C31   N18   A    
C73   H25   S    
C2    C103  S    
C10   H61   S    
C9    H57   S    
C46   C77   S    
C60   C74   S    
C106  N40   T    
N14   N45   A    
C30   H78   S    
C57   C72   S    
N21   Ni6   S    
C35   N22   A    
C9    H59   S    
C8    H53   S    
C28   H56   S    
N10   N23   A    
C57   H9    S    
C71   C88   D    
N4    N20   A    
C112  H36   S    
C25   C94   S    
C60   H11   S    
C38   C56   A    
C1    C93   S    
C15   H73   S    
N2    Ni6   S    
C91   N47   A    
C10   H62   S    
C105  N39   T    
C28   N15   A    
C7    H50   S    
C84   O16   S    
C17   N4    A    
C61   H13   S    
C18   C53   A    
C46   C80   A    
C32   H2    S    
C12   H66   S    
C75   O1    S    
C23   H12   S    
C34   H4    S    
C16   H77   S    
C111  O9    S    
N11   N34   A    
C63   H15   S    
N5    N26   A    
C59   C71   S    
C21   C109  S    
C20   C108  S    
C19   C107  S    
