data_mof_unit_38628.cif
_audit_creation_date              2012-12-10T19:45:01-0500
_audit_creation_method            fapswitch 2.2
_symmetry_space_group_name_H-M    P1
_symmetry_Int_Tables_number       1
_space_group_crystal_system       triclinic
_cell_length_a                    15.076217
_cell_length_b                    10.791744
_cell_length_c                    13.694149
_cell_angle_alpha                 89.791834
_cell_angle_beta                  89.640017
_cell_angle_gamma                 89.969482
_cell_volume                      2227.96091945

loop_
_atom_site_label
_atom_site_type_symbol
_atom_type_description
_atom_site_fract_x
_atom_site_fract_y
_atom_site_fract_z
_atom_type_partial_charge
C1    C     C_R   0.500143 0.262423 0.500153 0.816778
C2    C     C_R   0.641373 0.867839 0.597372 0.157205
C3    C     C_R   0.368012 0.171543 0.305114 -0.079102
C4    C     C_R   0.632195 0.828419 0.694726 -0.079308
C5    C     C_R   0.298580 0.234255 0.259095 -0.136377
C6    C     C_R   0.701730 0.765841 0.740670 -0.137152
C7    C     C_R   0.219169 0.256012 0.309442 -0.109624
C8    C     C_R   0.781129 0.744273 0.690250 -0.109992
C9    C     C_R   0.431912 0.935789 0.451169 0.106375
C10   C     C_R   0.568102 0.064211 0.548807 0.106439
C11   C     C_R   0.500145 0.871349 0.499647 -0.173109
C12   C     C_R   0.499861 0.737576 0.499845 0.816584
C13   C     C_R   0.499863 0.128650 0.500339 -0.172683
C14   C     C_R   0.568097 0.935062 0.548647 -0.031355
C15   C     C_R   0.431932 0.064938 0.451304 -0.031124
C16   C     C_R   0.328591 0.501243 0.500280 0.812226
C17   C     C_R   0.671414 0.498826 0.499709 0.809513
C18   C     C_R   0.562572 0.433063 0.793104 0.007564
C19   C     C_R   0.437434 0.566944 0.206896 0.007623
C20   C     C_R   0.437675 0.567348 0.793560 0.003892
C21   C     C_R   0.562350 0.432694 0.206442 -0.002866
C22   C     C_R   0.436091 0.568804 0.896634 -0.008403
C23   C     C_R   0.045848 0.435357 0.671443 0.140765
C24   C     C_R   0.563945 0.431254 0.103369 -0.008379
C25   C     C_R   0.500066 0.500114 0.948181 0.085647
C26   C     C_R   0.499965 0.499933 0.051821 0.086872
C27   C     C_R   0.564147 0.431616 0.896142 -0.008579
C28   C     C_R   0.435878 0.568422 0.103859 -0.009355
C29   C     C_R   0.372278 0.636888 0.949170 -0.197774
C30   C     C_R   0.627771 0.363193 0.050833 -0.203350
C31   C     C_R   0.372131 0.636628 0.051841 -0.205894
C32   C     C_R   0.627907 0.363434 0.948161 -0.204519
C33   C     C_R   0.814496 0.529351 0.414358 -0.253193
C34   C     C_R   0.954667 0.565594 0.327835 0.150193
C35   C     C_R   0.185355 0.471205 0.585458 -0.217965
C36   C     C_R   0.768076 0.496774 0.499076 -0.052764
C37   C     C_R   0.231949 0.503575 0.500812 -0.077244
C38   C     C_R   0.813638 0.463796 0.583637 -0.234645
C39   C     C_R   0.186487 0.536634 0.416141 -0.234345
C40   C     C_R   0.906344 0.464891 0.585434 0.046461
C41   C     C_R   0.093749 0.535738 0.414203 0.012162
C42   C     C_R   0.953430 0.499260 0.499534 -0.004415
C43   C     C_R   0.046537 0.501496 0.499967 -0.026175
C44   C     C_R   0.907241 0.531425 0.413213 0.013712
C45   C     C_R   0.209339 0.216071 0.406142 -0.125508
C46   C     C_R   0.092690 0.469397 0.586212 0.071058
C47   C     C_R   0.952861 0.432906 0.671311 0.088114
C48   C     C_R   0.047348 0.567777 0.328337 0.149670
C49   C     C_R   0.790840 0.784245 0.593544 -0.126349
C50   C     C_R   0.279054 0.154831 0.452846 -0.150033
C51   C     C_R   0.721023 0.845347 0.546914 -0.151426
C52   C     C_R   0.358722 0.132175 0.402470 0.156085
Cu1   Cu    Cu3+1 0.500010 0.499980 0.597420 0.937233
Cu2   Cu    Cu3+1 0.499990 0.500020 0.402580 0.934937
H1    H     H_    0.611319 0.380708 0.752121 0.116216
H2    H     H_    0.835082 0.696386 0.725987 0.128180
H3    H     H_    0.147885 0.233325 0.445083 0.142736
H4    H     H_    0.852282 0.767131 0.554543 0.142683
H5    H     H_    0.270975 0.124723 0.527906 0.128366
H6    H     H_    0.729017 0.875499 0.471855 0.125471
H7    H     H_    0.429106 0.154385 0.265356 0.121000
H8    H     H_    0.571119 0.845461 0.734549 0.120937
H9    H     H_    0.777394 0.554821 0.349977 0.152959
H10   H     H_    0.221891 0.445522 0.650327 0.187818
H11   H     H_    0.331303 0.810153 0.453517 0.206872
H12   H     H_    0.388680 0.619288 0.247879 0.116179
H13   H     H_    0.386499 0.821505 0.344960 0.228268
H14   H     H_    0.668704 0.189858 0.546455 0.206130
H15   H     H_    0.613517 0.178490 0.655017 0.228484
H16   H     H_    0.322197 0.689821 0.090541 0.139715
H17   H     H_    0.677844 0.310244 0.909461 0.139030
H18   H     H_    0.868633 0.319215 0.745544 0.220809
H19   H     H_    0.866354 0.470268 0.781774 0.213184
H20   H     H_    0.131659 0.681354 0.254141 0.213012
H21   H     H_    0.133829 0.530343 0.217889 0.203946
H22   H     H_    0.075544 0.312735 0.778779 0.241243
H23   H     H_    0.389191 0.620144 0.752872 0.129728
H24   H     H_    0.073200 0.463029 0.814391 0.242841
H25   H     H_    0.871245 0.524067 0.216756 0.211523
H26   H     H_    0.869505 0.675390 0.252419 0.210985
H27   H     H_    0.306227 0.265599 0.184343 0.129594
H28   H     H_    0.694176 0.734470 0.815426 0.129088
H29   H     H_    0.610845 0.379917 0.247130 0.128189
H30   H     H_    0.322439 0.690260 0.910880 0.140749
H31   H     H_    0.677622 0.309844 0.089124 0.138254
H32   H     H_    0.775867 0.437933 0.647965 0.147392
H33   H     H_    0.224338 0.562388 0.351841 0.147195
H34   H     H_    0.165300 0.304021 0.273652 0.128185
N1    N     N_R   0.499960 0.499900 0.743810 -0.181311
N2    N     N_R   0.500040 0.500100 0.256190 -0.180651
N3    N     N_3   0.360700 0.871579 0.403752 -0.589467
N4    N     N_3   0.639314 0.128424 0.596219 -0.589844
N5    N     N_3   0.907387 0.397395 0.759536 -0.611501
N6    N     N_3   0.092825 0.603258 0.240114 -0.556216
N7    N     N_3   0.093125 0.403025 0.758622 -0.606147
N8    N     N_3   0.910220 0.598776 0.239059 -0.553728
O1    O     O_R   0.500000 0.319630 0.582270 -0.584986
O2    O     O_R   0.500000 0.680370 0.417730 -0.586095
O3    O     O_R   0.499990 0.319660 0.417730 -0.581291
O4    O     O_R   0.500010 0.680340 0.582270 -0.581381
O5    O     O_R   0.370260 0.499960 0.582280 -0.594124
O6    O     O_R   0.629740 0.500040 0.417720 -0.594525
O7    O     O_R   0.370250 0.499990 0.417740 -0.584112
O8    O     O_R   0.629750 0.500010 0.582260 -0.585681

loop_
_geom_bond_atom_site_label_1
_geom_bond_atom_site_label_2
_ccdc_geom_bond_type
C40   C47   A    
C30   C32   A    
C6    H28   S    
C22   C29   A    
H20   N6    S    
H19   N5    S    
C1    O3    A    
C39   C41   A    
Cu1   Cu2   S    
C45   H3    S    
C48   N6    S    
C20   H23   S    
C38   H32   S    
C50   H5    S    
C7    C45   A    
C35   C37   A    
C17   O8    A    
C24   C26   A    
Cu2   N2    S    
H22   N7    S    
C11   C14   A    
Cu1   O8    S    
C4    H8    S    
C33   C36   A    
C19   H12   S    
C31   H16   S    
C21   H29   S    
Cu1   O5    S    
C49   C51   A    
C22   C25   A    
C50   C52   A    
C35   H10   S    
C17   C36   S    
C39   H33   S    
H26   N8    S    
H15   N4    S    
C12   O2    A    
C16   C37   S    
C40   C42   A    
C10   N4    S    
C23   C46   A    
C41   C43   A    
C8    H2    S    
C42   C44   A    
C32   H17   S    
C21   N2    A    
C3    H7    S    
Cu1   O4    S    
C23   C47   A    
C11   C12   S    
Cu2   O7    S    
C34   C44   A    
C29   H30   S    
C4    C6    A    
C10   C14   A    
C1    O1    A    
C5    C7    A    
C6    C8    A    
C18   N1    A    
Cu1   O1    S    
C25   C26   A    
C49   H4    S    
C2    C4    A    
C17   O6    A    
C5    H27   S    
C16   O7    A    
C7    H34   S    
H24   N7    S    
C33   H9    S    
H13   N3    S    
C47   N5    S    
C15   C52   S    
C30   H31   S    
C19   C28   A    
C9    C11   A    
C18   H1    S    
H18   N5    S    
C20   C22   A    
C13   C15   A    
Cu1   N1    S    
Cu2   O3    S    
C34   C48   A    
C42   C43   A    
H11   N3    S    
C27   C32   A    
C33   C44   A    
Cu2   O6    S    
C28   C31   A    
C18   C27   A    
C34   N8    S    
C3    C5    A    
C10   C13   A    
C3    C52   A    
C25   C27   A    
C20   N1    A    
C26   C28   A    
C36   C38   A    
C9    C15   A    
H25   N8    S    
C37   C39   A    
C19   N2    A    
C38   C40   A    
C45   C50   A    
H14   N4    S    
C41   C48   A    
C23   N7    S    
C2    C14   S    
C43   C46   A    
C24   C30   A    
C12   O4    A    
C2    C51   A    
C16   O5    A    
C1    C13   S    
C9    N3    S    
C29   C31   A    
C21   C24   A    
Cu2   O2    S    
C51   H6    S    
C35   C46   A    
C8    C49   A    
H21   N6    S    
