data_mof_unit_42797.cif
_audit_creation_date              2013-03-05T15:56:35-0500
_audit_creation_method            fapswitch 2.2
_symmetry_space_group_name_H-M    P1
_symmetry_Int_Tables_number       1
_space_group_crystal_system       triclinic
_cell_length_a                    6.957473
_cell_length_b                    14.574122
_cell_length_c                    15.971532
_cell_angle_alpha                 90.338396
_cell_angle_beta                  90.211584
_cell_angle_gamma                 89.799747
_cell_volume                      1619.44927966

loop_
_atom_site_label
_atom_site_type_symbol
_atom_site_description
_atom_site_fract_x
_atom_site_fract_y
_atom_site_fract_z
_atom_type_partial_charge
O1    O     O_R   0.361600 0.167310 0.164620 -0.607803
O2    O     O_R   0.638400 0.832690 0.835380 -0.612324
O3    O     O_R   0.691080 0.157570 0.338750 -0.566270
O4    O     O_R   0.308920 0.842430 0.661250 -0.571671
O5    O     O_R   0.861410 0.336420 0.339360 -0.604846
O6    O     O_R   0.138590 0.663580 0.660640 -0.609047
C1    C     C_R   0.522895 0.134424 0.366685 0.977874
C2    C     C_R   0.477567 0.866249 0.633980 0.985841
O7    O     O_R   0.691320 0.156280 0.165240 -0.601434
O8    O     O_R   0.308680 0.843720 0.834760 -0.584405
O9    O     O_R   0.861640 0.335130 0.164600 -0.568285
O10   O     O_R   0.138360 0.664870 0.835400 -0.567937
C3    C     C_R   0.520807 0.135688 0.134376 0.996251
C4    C     C_R   0.478327 0.868207 0.861667 1.027410
O11   O     O_R   0.361370 0.168600 0.339370 -0.586892
O12   O     O_R   0.638630 0.831400 0.660630 -0.607097
O13   O     O_3   0.527990 0.310540 0.251980 -0.244858
O14   O     O_3   0.472010 0.689460 0.748020 -0.251231
V1    V     V_3+5 0.802830 0.240980 0.251990 1.252678
V2    V     V_3+5 0.197170 0.759020 0.748010 1.256476
O15   O     O_R   0.191360 0.346160 0.165220 -0.552472
O16   O     O_R   0.808640 0.653840 0.834780 -0.555286
C5    C     C_R   0.021490 0.368440 0.136478 1.055294
C6    C     C_R   0.978158 0.631849 0.863626 1.118169
O17   O     O_R   0.191130 0.347440 0.338740 -0.591373
O18   O     O_R   0.808870 0.652560 0.661260 -0.590789
C7    C     C_R   0.022340 0.369621 0.367619 0.952890
C8    C     C_R   0.977664 0.630345 0.632405 0.938688
V3    V     V_3+5 0.302840 0.262750 0.251990 1.257888
V4    V     V_3+5 0.697160 0.737250 0.748010 1.253671
O19   O     O_3   0.027820 0.193180 0.251990 -0.273681
O20   O     O_3   0.972180 0.806820 0.748010 -0.286893
C9    C     C_3   0.923623 0.420107 0.524438 -0.116863
C10   C     C_3   0.076381 0.579811 0.475615 -0.113407
C11   C     C_3   0.096817 0.468536 0.566891 -0.100154
C12   C     C_3   0.903185 0.531385 0.433166 -0.094548
H1    H     H_    0.176522 0.442848 0.622394 0.148941
H2    H     H_    0.823479 0.557070 0.377662 0.153699
H3    H     H_    0.860623 0.353867 0.544307 0.138287
H4    H     H_    0.139393 0.646046 0.455743 0.138929
C13   C     C_3   0.988139 0.560629 0.562091 -0.112506
C14   C     C_3   0.011864 0.439296 0.437962 -0.119493
C15   C     C_3   0.814759 0.512956 0.520386 -0.098685
C16   C     C_3   0.185243 0.486964 0.479670 -0.097457
H5    H     H_    0.661778 0.523770 0.537439 0.125920
H6    H     H_    0.338224 0.476147 0.462618 0.125544
C17   C     C_R   0.864054 0.487823 0.934691 0.291744
C18   C     C_R   0.135216 0.512219 0.064896 0.280160
C19   C     C_R   0.871529 0.425398 0.001868 0.279180
C20   C     C_R   0.126628 0.574915 0.997938 0.281279
C21   C     C_R   0.008190 0.436661 0.067248 -0.502103
C22   C     C_R   0.990425 0.563516 0.932654 -0.513497
C23   C     C_R   0.653791 0.995326 0.443839 0.420924
C24   C     C_R   0.350081 0.008228 0.559642 0.400801
C25   C     C_R   0.638511 0.931971 0.509115 -0.196451
C26   C     C_R   0.363446 0.070383 0.493001 -0.180827
H7    H     H_    0.744884 0.877681 0.513622 0.164813
H8    H     H_    0.258324 0.125174 0.488278 0.183085
C27   C     C_R   0.488019 0.936968 0.567401 -0.347048
C28   C     C_R   0.514534 0.065605 0.435026 -0.351895
C29   C     C_R   0.655677 0.060267 0.005940 -0.181328
C30   C     C_R   0.326838 0.958740 0.976112 -0.138351
H9    H     H_    0.770207 0.107687 0.011617 0.168971
H10   H     H_    0.194729 0.922187 0.962932 0.152545
C31   C     C_R   0.652122 0.998448 0.937960 0.211891
C32   C     C_R   0.327317 0.027530 0.038025 0.219011
C33   C     C_R   0.489360 0.941135 0.927022 -0.185296
C34   C     C_R   0.502619 0.070541 0.061200 -0.195149
N1    N     N_R   0.730985 0.471985 0.867123 0.270344
O21   O     O_R   0.549073 0.460434 0.882304 -0.312743
O22   O     O_R   0.792843 0.464750 0.790558 -0.409509
N2    N     N_R   0.264078 0.529640 0.133633 0.264558
O23   O     O_R   0.197625 0.538169 0.209351 -0.404756
O24   O     O_R   0.447851 0.537253 0.120860 -0.305595
N3    N     N_R   0.746563 0.347338 0.000244 0.240258
O25   O     O_R   0.767073 0.285569 0.941811 -0.413356
O26   O     O_R   0.588090 0.349365 0.043204 -0.347850
N4    N     N_R   0.246601 0.654653 0.000274 0.258439
O27   O     O_R   0.426562 0.648416 0.979107 -0.330209
O28   O     O_R   0.171280 0.734942 0.014906 -0.416295
N5    N     N_R   0.807365 0.984556 0.385239 0.229696
O29   O     O_R   0.960956 0.034476 0.393300 -0.374437
O30   O     O_R   0.812650 0.912137 0.337318 -0.390992
N6    N     N_R   0.201303 0.021573 0.620605 0.232156
O31   O     O_R   0.031118 0.048447 0.596857 -0.414731
O32   O     O_R   0.243743 0.022416 0.700044 -0.440936
C35   C     C_3   0.815324 0.002158 0.875216 -0.433872
C36   C     C_3   0.748367 0.042135 0.791800 -0.627977
H11   H     H_    0.638803 0.998047 0.761381 0.217985
H12   H     H_    0.686678 0.111755 0.801714 0.263435
H13   H     H_    0.872645 0.047791 0.749023 0.291315
H14   H     H_    0.932483 0.046298 0.898229 0.197574
H15   H     H_    0.884824 0.934414 0.866709 0.229105
C37   C     C_3   0.135726 0.064344 0.065720 -0.376980
C38   C     C_3   0.106031 0.161842 0.030020 -0.720071
H16   H     H_    0.236134 0.205312 0.032312 0.259026
H17   H     H_    0.066344 0.159311 0.963033 0.245348
H18   H     H_    0.992368 0.197794 0.065693 0.237920
H19   H     H_    0.019317 0.018735 0.043513 0.170011
H20   H     H_    0.122144 0.062574 0.134793 0.233937

loop_
_geom_bond_atom_site_label_1
_geom_bond_atom_site_label_2
_geom_bond_distance
_ccdc_geom_bond_type
C6    C22   1.492064 S    
C32   C34   1.420136 A    
C35   C36   1.527777 S    
O11   V3    2.002706 S    
C25   C27   1.405023 A    
O13   V3    1.716561 S    
C12   C14   1.540320 S    
C38   H16   1.107052 S    
C29   C34   1.392722 A    
O4    C2    1.302068 A    
V1    O19   1.711154 S    
C24   N6    1.435655 S    
N5    O29   1.300432 A    
C38   H18   1.105191 S    
C17   C19   1.411515 A    
O9    V1    2.007264 S    
C9    H3    1.110142 S    
C30   C33   1.400451 A    
C10   H4    1.110120 S    
C9    C14   1.541012 S    
C11   H1    1.110108 S    
N6    O32   1.301604 A    
O3    C1    1.300184 A    
C2    C27   1.487393 S    
N4    O28   1.300713 A    
O12   V4    2.002705 S    
C8    C13   1.511771 S    
C23   N5    1.430639 S    
N1    O22   1.301443 A    
O7    C3    1.317906 A    
C17   N1    1.437433 S    
C30   H10   1.083327 S    
C9    C11   1.550538 S    
O5    C7    1.299608 A    
O7    V1    2.005983 S    
C18   C21   1.415151 A    
O6    C8    1.299635 A    
O8    V2    2.005983 S    
C19   C21   1.418839 A    
C20   C22   1.415811 A    
C4    C33   1.487285 S    
C19   N3    1.434315 S    
O3    V1    2.009193 S    
O14   V4    1.716562 S    
C10   C12   1.550502 S    
C32   C37   1.502314 S    
C18   C20   1.411685 A    
C2    O12   1.299963 A    
C35   H14   1.100922 S    
C13   C15   1.541427 S    
C37   C38   1.547104 S    
C10   C13   1.540988 S    
C14   C16   1.541406 S    
C18   N2    1.436848 S    
C11   C13   1.540362 S    
C20   N4    1.433416 S    
N5    O30   1.300572 A    
C23   C28   1.414709 A    
C16   H6    1.110112 S    
C31   C35   1.518542 S    
C24   C27   1.417262 A    
C23   C25   1.401312 A    
O17   V3    2.007054 S    
C24   C26   1.405281 A    
C30   C32   1.404003 A    
C9    C15   1.550002 S    
C10   C16   1.549976 S    
N6    O31   1.301708 A    
N2    O24   1.300734 A    
O8    C4    1.304826 A    
N4    O27   1.300847 A    
C1    O11   1.302453 A    
C31   C33   1.419157 A    
O15   V3    2.001319 S    
C26   C28   1.404689 A    
N3    O25   1.300745 A    
C15   H5    1.110112 S    
C5    C21   1.493752 S    
C36   H13   1.107584 S    
C37   H20   1.108051 S    
O10   V2    2.007266 S    
O1    V3    2.006596 S    
C11   C16   1.550200 S    
N3    O26   1.300943 A    
C36   H12   1.111021 S    
O18   V4    2.007053 S    
C25   H7    1.084040 S    
O16   C6    1.304254 A    
O1    C3    1.292452 A    
C12   H2    1.110106 S    
C1    C28   1.488135 S    
V2    O20   1.711154 S    
O16   V4    2.001322 S    
C29   H9    1.059899 S    
N2    O23   1.301411 A    
C38   H17   1.104382 S    
C17   C22   1.413677 A    
O5    V1    2.006224 S    
O17   C7    1.302285 A    
O6    V2    2.006224 S    
O10   C6    1.298921 A    
O18   C8    1.302294 A    
O2    V4    2.006598 S    
O15   C5    1.306922 A    
V3    O19   2.168611 S    
V4    O20   2.168608 S    
C7    C14   1.511716 S    
C37   H19   1.105649 S    
C35   H15   1.105722 S    
O9    C5    1.297822 A    
O13   V1    2.161172 S    
C26   H8    1.083734 S    
O14   V2    2.161174 S    
N1    O21   1.301240 A    
O2    C4    1.296686 A    
O4    V2    2.009191 S    
C29   C31   1.406965 A    
C36   H11   1.107699 S    
C12   C15   1.550188 S    
C3    C34   1.506665 S    
