data_mof_unit_27901.cif
_audit_creation_date              2012-12-11T14:23:00-0500
_audit_creation_method            fapswitch 2.2
_symmetry_space_group_name_H-M    P1
_symmetry_Int_Tables_number       1
_space_group_crystal_system       triclinic
_cell_length_a                    11.138462
_cell_length_b                    11.214584
_cell_length_c                    18.725783
_cell_angle_alpha                 90.499633
_cell_angle_beta                  90.38057
_cell_angle_gamma                 59.169323
_cell_volume                      2008.46684988

loop_
_atom_site_label
_atom_site_type_symbol
_atom_type_description
_atom_site_fract_x
_atom_site_fract_y
_atom_site_fract_z
_atom_type_partial_charge
C1    C     C_R   0.241850 0.645214 0.611085 0.534025
C2    C     C_3   0.641298 0.546401 0.813619 -0.267032
C3    C     C_3   0.691272 0.652492 0.816819 0.024956
C4    C     C_3   0.653734 0.608104 0.683480 0.023492
C5    C     C_3   0.811082 0.552808 0.698453 -0.233914
C6    C     C_3   0.606684 0.530849 0.734664 -0.255385
C7    C     C_R   0.679718 0.171392 0.823994 -0.027063
C8    C     C_R   0.792484 0.159706 0.783898 0.028382
C9    C     C_R   0.792429 0.147876 0.708004 0.008185
C10   C     C_R   0.566890 0.165656 0.713442 0.077575
C11   C     C_R   0.558540 0.200174 0.786058 -0.115299
C12   C     C_R   0.629001 0.585556 0.608477 0.565615
C13   C     C_R   0.900103 0.170284 0.816359 -0.118290
C14   C     C_R   0.009862 0.157692 0.775535 -0.159381
C15   C     C_R   0.020117 0.125638 0.703248 -0.136386
C16   C     C_R   0.911558 0.121518 0.669264 -0.075571
C17   C     C_R   0.673637 0.161956 0.672943 -0.014360
C18   C     C_R   0.199552 0.662563 0.839296 0.002144
C19   C     C_R   0.203022 0.553612 0.800316 -0.000024
C20   C     C_R   0.186723 0.563085 0.725269 0.012593
C21   C     C_R   0.228086 0.755299 0.728771 -0.143458
C22   C     C_R   0.227542 0.756627 0.803684 -0.016300
C23   C     C_R   0.630667 0.225085 0.601555 0.549575
C24   C     C_R   0.215243 0.438185 0.835375 -0.108737
C25   C     C_R   0.186375 0.348118 0.799611 -0.090803
C26   C     C_R   0.144641 0.371767 0.728212 -0.090163
C27   C     C_R   0.148490 0.475752 0.690484 -0.094775
C28   C     C_R   0.206553 0.660624 0.688400 -0.015098
C29   C     C_R   0.708364 0.689391 0.181063 -0.001192
C30   C     C_R   0.792418 0.555024 0.212109 0.055987
C31   C     C_R   0.736884 0.518762 0.268596 0.024902
C32   C     C_R   0.559623 0.760433 0.285078 -0.119034
C33   C     C_R   0.592838 0.791143 0.218750 -0.159747
C34   C     C_R   0.271876 0.628348 0.392159 0.541505
C35   C     C_R   0.923647 0.450153 0.184974 -0.081227
C36   C     C_R   0.969279 0.311521 0.195142 -0.138102
C37   C     C_R   0.902079 0.275359 0.243806 -0.117301
C38   C     C_R   0.788003 0.377414 0.281241 -0.087956
C39   C     C_R   0.632990 0.624373 0.311085 -0.002195
C40   C     C_R   0.686063 0.076744 0.190620 -0.003309
C41   C     C_R   0.561909 0.115304 0.229178 -0.004693
C42   C     C_R   0.572587 0.094661 0.303596 0.025024
C43   C     C_R   0.798845 0.069648 0.304461 -0.163807
C44   C     C_R   0.808020 0.040806 0.230698 -0.159228
C45   C     C_R   0.618038 0.593257 0.385237 0.542996
C46   C     C_R   0.426775 0.181201 0.199186 -0.120359
C47   C     C_R   0.313030 0.208800 0.241247 -0.194881
C48   C     C_R   0.331191 0.161449 0.310963 -0.135029
C49   C     C_R   0.464396 0.089682 0.340227 0.074566
C50   C     C_R   0.672798 0.114495 0.339423 0.035448
C51   C     C_R   0.201543 0.642893 0.168368 -0.003978
C52   C     C_R   0.253009 0.722070 0.199182 0.033464
C53   C     C_R   0.234890 0.746128 0.273012 0.018455
C54   C     C_R   0.219896 0.537896 0.282707 -0.142486
C55   C     C_R   0.197619 0.542196 0.209410 -0.154419
C56   C     C_R   0.624040 0.215543 0.400336 0.547730
C57   C     C_R   0.289860 0.801645 0.156813 -0.065438
C58   C     C_R   0.266219 0.928065 0.182531 -0.116309
C59   C     C_R   0.215284 0.968797 0.251338 -0.156148
C60   C     C_R   0.205412 0.877891 0.297542 -0.106284
C61   C     C_R   0.232651 0.643281 0.316249 -0.005430
C62   C     C_R   0.699625 0.106002 0.896494 0.584338
C63   C     C_R   0.719101 0.682573 0.890958 0.548046
C64   C     C_R   0.121078 0.705080 0.907235 0.541448
C65   C     C_R   0.698656 0.050318 0.112176 0.542231
C66   C     C_R   0.731788 0.713575 0.106514 0.540674
C67   C     C_3   0.578474 0.784612 0.778263 -0.083440
C68   C     C_R   0.106301 0.702201 0.107055 0.522532
C69   C     C_3   0.576060 0.764023 0.699202 -0.221133
C70   C     C_3   0.830859 0.587413 0.774676 -0.219146
Cr1   Cr    Cr6+3 0.392940 0.397950 0.502230 1.053666
Cr2   Cr    Cr6+3 0.398400 0.708500 0.501260 1.012281
Cr3   Cr    Cr6+3 0.708640 0.393530 0.496460 1.007380
Cr4   Cr    Cr6+3 0.937880 0.938320 0.007620 0.986137
Cr5   Cr    Cr6+3 0.625560 0.937220 0.994510 1.017247
Cr6   Cr    Cr6+3 0.938080 0.625010 0.001190 0.984800
H1    H     H_    0.660387 0.419706 0.720027 0.129102
H2    H     H_    0.908718 0.488916 0.800576 0.151793
H3    H     H_    0.871762 0.438176 0.690763 0.147723
H4    H     H_    0.898691 0.192413 0.872777 0.121525
H5    H     H_    0.466723 0.223706 0.815420 0.197943
H6    H     H_    0.093291 0.160633 0.801843 0.100963
H7    H     H_    0.112057 0.104205 0.673439 0.129692
H8    H     H_    0.922500 0.095406 0.612996 0.143914
H9    H     H_    0.246924 0.829006 0.701759 0.139330
H10   H     H_    0.478593 0.802278 0.795331 0.076717
H11   H     H_    0.248359 0.416489 0.890643 0.121014
H12   H     H_    0.198938 0.260313 0.828495 0.122926
H13   H     H_    0.116616 0.304959 0.700580 0.142009
H14   H     H_    0.116500 0.489369 0.635135 0.140914
H15   H     H_    0.475207 0.841924 0.315400 0.165107
H16   H     H_    0.987428 0.472062 0.151258 0.146919
H17   H     H_    0.529100 0.893870 0.196950 0.144908
H18   H     H_    0.057138 0.231985 0.165336 0.098975
H19   H     H_    0.943001 0.168027 0.253621 0.114420
H20   H     H_    0.464875 0.818649 0.681271 0.125886
H21   H     H_    0.735670 0.346559 0.317243 0.146305
H22   H     H_    0.886535 0.062361 0.333570 0.120314
H23   H     H_    0.403511 0.224381 0.146285 0.159196
H24   H     H_    0.907838 0.000097 0.204310 0.160362
H25   H     H_    0.210387 0.267408 0.219709 0.109046
H26   H     H_    0.241115 0.182355 0.342352 0.152629
H27   H     H_    0.218989 0.457314 0.313532 0.161728
H28   H     H_    0.317783 0.775288 0.101183 0.118395
H29   H     H_    0.171175 0.472159 0.184934 0.111834
H30   H     H_    0.630325 0.808663 0.670093 0.193199
H31   H     H_    0.278714 0.997660 0.147870 0.104862
H32   H     H_    0.178658 0.072453 0.268672 0.118877
H33   H     H_    0.160571 0.920151 0.348996 0.164972
H34   H     H_    0.874587 0.656990 0.774768 0.180806
H35   H     H_    0.852760 0.599303 0.660918 0.149931
H36   H     H_    0.723965 0.444843 0.834666 0.136615
H37   H     H_    0.547514 0.580184 0.847291 0.105784
H38   H     H_    0.493470 0.571814 0.728595 0.121351
O1    O     O_R   0.507340 0.255690 0.581430 -0.462429
O2    O     O_R   0.524510 0.695820 0.424050 -0.481872
O3    O     O_R   0.736370 0.504260 0.414810 -0.490231
O4    O     O_R   0.691220 0.277270 0.422180 -0.541767
O5    O     O_3   0.499990 0.499990 0.499980 -0.316980
O6    O     O_R   0.089570 0.825450 0.930590 -0.529914
O7    O     O_R   0.818700 0.054260 0.929860 -0.504010
O8    O     O_R   0.606310 0.077010 0.915520 -0.447216
O9    O     O_R   0.646730 0.806540 0.917560 -0.472413
O10   O     O_R   0.837290 0.593240 0.915240 -0.525053
O11   O     O_R   0.065320 0.635310 0.931580 -0.504450
O12   O     O_R   0.280360 0.527380 0.578910 -0.502653
O13   O     O_R   0.068470 0.828620 0.091850 -0.535472
O14   O     O_R   0.799150 0.057200 0.079350 -0.497106
O15   O     O_R   0.585220 0.080180 0.076770 -0.547722
O16   O     O_R   0.627170 0.809480 0.067050 -0.524091
O17   O     O_R   0.816200 0.596410 0.076500 -0.527358
O18   O     O_R   0.045770 0.638240 0.081070 -0.540272
O19   O     O_3   0.833840 0.833520 0.001110 -0.274475
O20   O     O_R   0.260600 0.739610 0.584580 -0.531289
O21   O     O_R   0.532370 0.695050 0.573830 -0.508564
O22   O     O_R   0.744850 0.503430 0.576380 -0.510962
O23   O     O_R   0.699080 0.276500 0.571950 -0.538289
O24   O     O_R   0.498860 0.256520 0.419860 -0.506285
O25   O     O_R   0.272490 0.528150 0.429140 -0.491885
O26   O     O_R   0.252110 0.740440 0.423010 -0.526802
C71   C     C_2   0.585660 0.909155 0.794326 0.625341
O27   O     O_2   0.693924 0.908345 0.783079 -0.513666
O28   O     O_R   0.475136 0.019429 0.830682 -0.657528
H39   H     H_    0.389734 0.012449 0.837401 0.289961
C72   C     C_2   0.479553 0.112512 0.680350 0.623634
O29   O     O_2   0.375064 0.128794 0.709308 -0.574715
O30   O     O_R   0.523712 0.033884 0.617247 -0.669166
H40   H     H_    0.455689 0.005135 0.600184 0.323945
C73   C     C_3   0.236039 0.872925 0.842294 -0.228925
C74   C     C_3   0.326879 0.831568 0.911813 -0.276729
C75   C     C_3   0.273470 0.952812 0.964970 -0.419757
H41   H     H_    0.261452 0.046830 0.938967 0.120382
H42   H     H_    0.170917 0.978501 0.987362 0.171497
H43   H     H_    0.348986 0.924154 0.009756 0.147885
H44   H     H_    0.333220 0.741208 0.939056 0.164280
H45   H     H_    0.435702 0.797637 0.901145 0.153763
H46   H     H_    0.264989 0.928420 0.804572 0.091705
H47   H     H_    0.129248 0.953642 0.856142 0.205857
C76   C     C_2   0.487003 0.017134 0.409662 0.598648
O31   O     O_2   0.604681 0.948451 0.434804 -0.478811
O32   O     O_R   0.373829 0.022111 0.444532 -0.723734
H48   H     H_    0.403166 0.960320 0.488028 0.344618

loop_
_geom_bond_atom_site_label_1
_geom_bond_atom_site_label_2
_ccdc_geom_bond_type
C46   H23   S    
C8    C13   A    
C47   H25   S    
C70   H2    S    
Cr5   O8    S    
C44   H24   S    
C41   C42   A    
C35   C36   A    
C43   H22   S    
C69   H20   S    
C72   O29   D    
C7    C8    A    
C11   H5    S    
C26   H13   S    
C7    C11   A    
C2    H36   S    
C26   C27   A    
C17   C23   S    
C30   C35   A    
C55   H29   S    
Cr5   O9    S    
C36   C37   A    
C9    C16   A    
C18   C19   A    
C71   O28   S    
C30   C31   A    
Cr6   O17   S    
C32   C39   A    
C32   H15   S    
C10   C17   A    
C15   C16   A    
Cr4   O19   S    
C29   C33   A    
C34   O25   A    
C16   H8    S    
C37   H19   S    
C27   H14   S    
C58   H31   S    
C75   H43   S    
C68   O18   A    
C6    H38   S    
C60   H33   S    
C70   H34   S    
C46   C47   A    
C53   C61   A    
Cr4   O14   S    
O30   H40   S    
C8    C9    A    
C12   O21   A    
C1    C28   S    
C41   C46   A    
C76   O32   S    
Cr1   O12   S    
C5    H3    S    
C73   H47   S    
Cr5   O16   S    
C39   C45   S    
C35   H16   S    
C22   C73   S    
C59   C60   A    
C74   H45   S    
C13   C14   A    
Cr6   O11   S    
C2    C6    S    
C38   H21   S    
C4    C69   S    
C72   O30   S    
C53   C60   A    
C63   O10   A    
Cr1   O24   S    
C21   H9    S    
Cr3   O3    S    
C51   C52   A    
Cr6   O10   S    
C65   O14   A    
C54   H27   S    
C3    C70   S    
C1    O12   A    
C4    C6    S    
C10   C11   A    
C6    H1    S    
Cr2   O21   S    
C15   H7    S    
C20   C28   A    
C58   C59   A    
Cr5   O15   S    
C25   H12   S    
C50   C56   S    
C29   C66   S    
C67   C69   S    
C37   C38   A    
C43   C44   A    
C7    C62   S    
C29   C30   A    
C65   O15   A    
C56   O24   A    
Cr2   O20   S    
C76   O31   D    
C14   C15   A    
Cr3   O22   S    
Cr2   O26   S    
C75   H41   S    
C48   H26   S    
Cr1   O1    S    
C24   C25   A    
C68   O13   A    
C42   C50   A    
C9    C17   A    
C48   C49   A    
C54   C61   A    
C21   C28   A    
C64   O11   A    
C40   C65   S    
C71   O27   D    
C12   O22   A    
Cr6   O19   S    
Cr4   O13   S    
C4    C12   S    
C14   H6    S    
C1    O20   A    
C67   C71   S    
C62   O8    A    
Cr4   O6    S    
C52   C53   A    
C66   O17   A    
C45   O3    A    
C57   H28   S    
C54   C55   A    
C40   C41   A    
C67   H10   S    
Cr3   O4    S    
C18   C22   A    
C56   O4    A    
C23   O23   A    
C3    C67   S    
C4    C5    S    
C47   C48   A    
C5    C70   S    
C33   H17   S    
C63   O9    A    
C69   H30   S    
Cr5   O19   S    
C43   C50   A    
Cr1   O25   S    
C20   C27   A    
C3    C63   S    
C5    H35   S    
Cr2   O2    S    
C59   H32   S    
C64   O6    A    
C31   C38   A    
Cr1   O5    S    
C74   H44   S    
C32   C33   A    
C19   C20   A    
C19   C24   A    
C25   C26   A    
O32   H48   S    
C73   C74   S    
Cr6   O18   S    
C45   O2    A    
C18   C64   S    
C57   C58   A    
Cr3   O23   S    
Cr2   O5    S    
C34   O26   A    
C2    H37   S    
C31   C39   A    
C2    C3    S    
C51   C55   A    
C51   C68   S    
C75   H42   S    
C24   H11   S    
C13   H4    S    
C52   C57   A    
C42   C49   A    
C23   O1    A    
Cr3   O5    S    
C36   H18   S    
C40   C44   A    
Cr4   O7    S    
C10   C72   S    
C34   C61   S    
C74   C75   S    
C49   C76   S    
C21   C22   A    
C73   H46   S    
C62   O7    A    
O28   H39   S    
C66   O16   A    
