data_mof_unit_6019.cif
_audit_creation_date              2012-12-10T17:11:26-0500
_audit_creation_method            fapswitch 2.2
_symmetry_space_group_name_H-M    P1
_symmetry_Int_Tables_number       1
_space_group_crystal_system       triclinic
_cell_length_a                    15.024897
_cell_length_b                    13.000415
_cell_length_c                    11.794896
_cell_angle_alpha                 99.782636
_cell_angle_beta                  93.377765
_cell_angle_gamma                 91.901134
_cell_volume                      2264.26670714

loop_
_atom_site_label
_atom_site_type_symbol
_atom_type_description
_atom_site_fract_x
_atom_site_fract_y
_atom_site_fract_z
_atom_type_partial_charge
C1    C     C_R   0.498049 0.299432 0.478748 0.792700
C2    C     C_R   0.501134 0.700665 0.521426 0.833094
C3    C     C_R   0.037948 0.307708 0.469527 0.160184
C4    C     C_R   0.962254 0.692289 0.533872 0.135931
C5    C     C_R   0.503023 0.814326 0.534248 -0.125075
C6    C     C_R   0.495512 0.186057 0.466874 -0.088403
C7    C     C_R   0.468541 0.015195 0.348823 0.265315
C8    C     C_R   0.532983 0.985498 0.653416 0.267727
C9    C     C_R   0.472173 0.123652 0.359980 -0.259959
C10   C     C_R   0.528234 0.876286 0.641066 -0.210736
C11   C     C_R   0.515685 0.140257 0.563627 -0.261843
C12   C     C_R   0.481448 0.860691 0.438555 -0.279367
C13   C     C_R   0.512776 0.031812 0.555235 0.051108
C14   C     C_R   0.487643 0.968765 0.446811 0.097575
C15   C     C_R   0.413692 0.405223 0.022683 -0.294804
C16   C     C_R   0.595320 0.585586 0.974018 -0.373206
C17   C     C_R   0.418270 0.416516 0.142616 0.311023
C18   C     C_R   0.583526 0.581190 0.853780 0.331892
C19   C     C_R   0.544257 0.534646 0.155647 0.389578
C20   C     C_R   0.458321 0.463121 0.844409 0.387246
C21   C     C_R   0.537289 0.528796 0.032529 -0.038559
C22   C     C_R   0.469471 0.464935 0.966036 -0.066828
C23   C     C_R   0.329496 0.499705 0.500526 0.816064
C24   C     C_R   0.670425 0.499460 0.499349 0.885893
C25   C     C_R   0.814562 0.595473 0.515226 0.065222
C26   C     C_R   0.184474 0.403526 0.485290 0.059504
C27   C     C_R   0.766551 0.499453 0.498242 -0.137628
C28   C     C_R   0.233312 0.499494 0.501716 -0.185024
C29   C     C_R   0.808717 0.404179 0.480819 0.148785
C30   C     C_R   0.191110 0.594902 0.516771 0.175958
C31   C     C_R   0.902072 0.404747 0.482162 0.074610
C32   C     C_R   0.097745 0.594707 0.516644 0.065710
C33   C     C_R   0.952647 0.500694 0.499150 -0.049109
C34   C     C_R   0.046954 0.499145 0.499945 -0.067536
C35   C     C_R   0.909190 0.597738 0.516038 0.079713
C36   C     C_R   0.090330 0.402303 0.484608 0.118125
C37   C     C_R   0.945492 0.310281 0.468778 -0.262916
C38   C     C_R   0.054703 0.689249 0.534321 -0.230692
Cu1   Cu    Cu3+1 0.506660 0.507730 0.615930 0.969231
Cu2   Cu    Cu3+1 0.493340 0.492270 0.384070 0.941322
H1    H     H_    0.363662 0.350286 0.975138 0.172198
H2    H     H_    0.650078 0.634112 0.019827 0.160623
H3    H     H_    0.907889 0.236334 0.457923 0.183718
H4    H     H_    0.092710 0.763115 0.549238 0.183598
H5    H     H_    0.459093 0.812058 0.357481 0.196187
H6    H     H_    0.533248 0.189911 0.645783 0.176887
H7    H     H_    0.545990 0.838905 0.713884 0.169884
H8    H     H_    0.456738 0.158736 0.284573 0.158836
N1    N     N_R   0.516670 0.519360 0.790130 -0.186695
N2    N     N_R   0.483330 0.480640 0.209870 -0.207547
O1    O     O_R   0.504720 0.354460 0.582000 -0.581340
O2    O     O_R   0.495280 0.645540 0.418000 -0.566759
O3    O     O_R   0.493480 0.341410 0.386200 -0.609541
O4    O     O_R   0.506520 0.658590 0.613800 -0.569690
O5    O     O_R   0.375880 0.506510 0.597910 -0.557535
O6    O     O_R   0.624120 0.493490 0.402090 -0.561000
O7    O     O_R   0.364640 0.493450 0.402110 -0.603174
O8    O     O_R   0.635360 0.506550 0.597890 -0.564431
N3    N     N_3   0.764147 0.688323 0.531257 -0.590165
H9    H     H_    0.780910 0.732291 0.612881 0.251978
H10   H     H_    0.775227 0.731012 0.465537 0.247248
N4    N     N_3   0.230980 0.307721 0.469060 -0.543244
H11   H     H_    0.266856 0.303790 0.395352 0.214250
H12   H     H_    0.275861 0.307397 0.540156 0.223962
N5    N     N_2   0.757508 0.307580 0.465632 -0.442188
H13   H     H_    0.704802 0.307408 0.517796 0.246380
C39   C     C_3   0.732999 0.262010 0.346788 -0.698020
H14   H     H_    0.686824 0.312605 0.306865 0.242964
H15   H     H_    0.698865 0.184328 0.343258 0.229817
H16   H     H_    0.793261 0.251322 0.296544 0.231685
N6    N     N_2   0.242412 0.691453 0.533062 -0.443290
H17   H     H_    0.300186 0.694016 0.585363 0.253047
C40   C     C_3   0.255922 0.732027 0.428186 -0.699035
H18   H     H_    0.299454 0.680756 0.372567 0.241516
H19   H     H_    0.288454 0.811415 0.450175 0.234147
H20   H     H_    0.191098 0.737847 0.379801 0.233686
N7    N     N_3   0.077262 0.207689 0.455266 -0.547096
H21   H     H_    0.057632 0.169063 0.521194 0.213127
H22   H     H_    0.051952 0.163992 0.376574 0.212911
N8    N     N_3   0.924267 0.792939 0.552155 -0.631392
H23   H     H_    0.950014 0.834120 0.631930 0.219779
H24   H     H_    0.944249 0.833590 0.488014 0.217725
N9    N     N_2   0.446175 0.953304 0.238685 -0.445352
H25   H     H_    0.389195 0.976239 0.198448 0.255827
C41   C     C_3   0.519297 0.943598 0.163649 -0.741863
H26   H     H_    0.500029 0.885440 0.084924 0.234762
H27   H     H_    0.579399 0.917017 0.207861 0.240393
H28   H     H_    0.535814 0.019970 0.137887 0.227719
N10   N     N_2   0.560635 0.049556 0.761698 -0.437297
H29   H     H_    0.618081 0.095035 0.760889 0.246189
C42   C     C_3   0.550683 0.009437 0.867692 -0.716643
H30   H     H_    0.559142 0.075052 0.941681 0.230507
H31   H     H_    0.602516 0.952382 0.878922 0.215424
H32   H     H_    0.482982 0.972385 0.867847 0.241641
N11   N     N_2   0.384919 0.405848 0.778390 -0.388257
H33   H     H_    0.383337 0.326949 0.781013 0.229265
C43   C     C_3   0.298962 0.452302 0.795136 -0.661389
H34   H     H_    0.275591 0.447056 0.881360 0.203215
H35   H     H_    0.248458 0.410496 0.729603 0.226588
H36   H     H_    0.302780 0.536031 0.786211 0.241852
N12   N     N_2   0.616525 0.593107 0.222780 -0.377316
H37   H     H_    0.678586 0.567265 0.201693 0.230751
C44   C     C_3   0.611817 0.705774 0.241753 -0.660709
H38   H     H_    0.663360 0.741035 0.194650 0.183260
H39   H     H_    0.625849 0.737024 0.334738 0.247935
H40   H     H_    0.545135 0.729927 0.213094 0.234095
N13   N     N_3   0.641386 0.643654 0.798357 -0.520400
H41   H     H_    0.706985 0.623001 0.814691 0.198542
H42   H     H_    0.636284 0.721830 0.836229 0.178718
N14   N     N_3   0.349644 0.361404 0.189961 -0.611317
H43   H     H_    0.375472 0.319422 0.250624 0.246994
H44   H     H_    0.302132 0.413226 0.222557 0.241030

loop_
_geom_bond_atom_site_label_1
_geom_bond_atom_site_label_2
_ccdc_geom_bond_type
Cu1   O1    S    
C16   C21   A    
C27   C29   A    
C19   N12   S    
C40   H18   S    
C7    N9    S    
N11   H33   S    
C24   C27   S    
C17   N14   S    
C6    C9    A    
C30   N6    S    
C15   C22   A    
C41   H26   S    
N12   H37   S    
C19   C21   A    
C4    N8    S    
Cu1   O4    S    
C15   C17   A    
C1    O3    A    
C18   N13   S    
N4    H12   S    
C44   H38   S    
N14   H43   S    
C7    C14   A    
Cu1   O5    S    
N4    H11   S    
Cu2   O6    S    
N13   H41   S    
C31   C33   A    
C32   C38   A    
N10   C42   S    
C42   H30   S    
N7    H21   S    
N7    H22   S    
C4    C35   A    
N3    H9    S    
N12   C44   S    
C21   C22   A    
C40   H19   S    
C43   H35   S    
C43   H34   S    
C41   H27   S    
N3    H10   S    
C1    C6    S    
C15   H1    S    
C5    C12   A    
N8    H24   S    
C2    O4    A    
C6    C11   A    
N6    C40   S    
C12   H5    S    
N5    C39   S    
Cu2   O2    S    
Cu1   O8    S    
C39   H14   S    
C39   H15   S    
C32   C34   A    
C37   H3    S    
C38   H4    S    
C20   N1    A    
C42   H31   S    
N9    H25   S    
C23   O7    A    
C33   C34   A    
C44   H39   S    
C16   C18   A    
C23   C28   S    
C1    O1    A    
C2    O2    A    
C25   C35   A    
C29   N5    S    
C26   C36   A    
N9    C41   S    
C20   N11   S    
C12   C14   A    
Cu2   O3    S    
C40   H20   S    
C2    C5    S    
C24   O6    A    
C20   C22   A    
C3    N7    S    
C16   H2    S    
Cu1   Cu2   S    
C43   H36   S    
C41   H28   S    
C7    C9    A    
Cu2   O7    S    
Cu1   N1    S    
C8    C10   A    
C4    C38   A    
N8    H23   S    
C17   N2    A    
N11   C43   S    
C23   O5    A    
C25   C27   A    
C26   C28   A    
C39   H16   S    
C28   C30   A    
C26   N4    S    
C5    C10   A    
C29   C31   A    
C42   H32   S    
C30   C32   A    
C11   C13   A    
C19   N2    A    
N13   H42   S    
C3    C36   A    
Cu2   N2    S    
C33   C35   A    
C44   H40   S    
C34   C36   A    
N14   H44   S    
C8    C13   A    
C31   C37   A    
N6    H17   S    
C3    C37   A    
C9    H8    S    
C24   O8    A    
N5    H13   S    
C10   H7    S    
C11   H6    S    
C8    N10   S    
C25   N3    S    
N10   H29   S    
C13   C14   A    
C18   N1    A    
