data_mof_unit_31865.cif
_audit_creation_date              2012-12-11T16:37:23-0500
_audit_creation_method            fapswitch 2.2
_symmetry_space_group_name_H-M    P1
_symmetry_Int_Tables_number       1
_space_group_crystal_system       triclinic
_cell_length_a                    19.49924
_cell_length_b                    7.002371
_cell_length_c                    17.68143
_cell_angle_alpha                 90.29257
_cell_angle_beta                  108.931052
_cell_angle_gamma                 90.201285
_cell_volume                      2283.58774806

loop_
_atom_site_label
_atom_site_type_symbol
_atom_type_description
_atom_site_fract_x
_atom_site_fract_y
_atom_site_fract_z
_atom_type_partial_charge
O1    O     O_R   0.561710 0.369960 0.440200 -0.517310
O2    O     O_R   0.061710 0.630040 0.940200 -0.533228
O3    O     O_R   0.412630 0.033330 0.406330 -0.530099
O4    O     O_R   0.912630 0.966670 0.906330 -0.530312
O5    O     O_R   0.438290 0.869790 0.559800 -0.521639
O6    O     O_R   0.938290 0.130210 0.059800 -0.518770
C1    C     C_R   0.384126 0.202012 0.384290 0.721331
C2    C     C_R   0.885023 0.795281 0.883098 0.773549
O7    O     O_R   0.559570 0.039810 0.430640 -0.523980
O8    O     O_R   0.059570 0.960190 0.930640 -0.533118
O9    O     O_R   0.586280 0.876320 0.584290 -0.526949
O10   O     O_R   0.086280 0.123680 0.084290 -0.515127
C3    C     C_R   0.581542 0.208747 0.416162 0.848555
C4    C     C_R   0.080744 0.791037 0.915798 0.873212
O11   O     O_R   0.413720 0.363440 0.415710 -0.537049
O12   O     O_R   0.913720 0.636560 0.915710 -0.537900
O13   O     O_3   0.508590 0.205630 0.550380 -0.342047
O14   O     O_3   0.008590 0.794370 0.050380 -0.348148
V1    V     V_3+5 0.498410 0.928130 0.490650 1.732591
V2    V     V_3+5 0.998410 0.071870 0.990650 1.703642
O15   O     O_R   0.587370 0.546990 0.593670 -0.517563
O16   O     O_R   0.087370 0.453010 0.093670 -0.521246
C5    C     C_R   0.614442 0.717146 0.617565 0.822793
C6    C     C_R   0.113549 0.283576 0.118470 0.832664
O17   O     O_R   0.440430 0.540520 0.569360 -0.517240
O18   O     O_R   0.940430 0.459480 0.069360 -0.524253
C7    C     C_R   0.419603 0.709817 0.585650 0.828962
C8    C     C_R   0.918938 0.290762 0.084161 0.892188
V3    V     V_3+5 0.501590 0.428960 0.509350 1.755568
V4    V     V_3+5 0.001590 0.571040 0.009350 1.722796
O19   O     O_3   0.491410 0.701330 0.449620 -0.356157
O20   O     O_3   0.991410 0.298670 0.949620 -0.391297
C9    C     C_R   0.280347 0.889920 0.682461 0.390953
C10   C     C_R   0.760164 0.151616 0.155572 0.354291
C11   C     C_R   0.324484 0.879695 0.632559 0.274517
C12   C     C_R   0.806636 0.163064 0.108251 0.260271
C13   C     C_R   0.372521 0.722679 0.638426 -0.297544
C14   C     C_R   0.869780 0.279461 0.133327 -0.307893
C15   C     C_R   0.375637 0.579813 0.696387 0.305715
C16   C     C_R   0.886131 0.382316 0.206085 0.287564
C17   C     C_R   0.329518 0.588405 0.743376 0.341734
C18   C     C_R   0.839700 0.371286 0.252525 0.341561
C19   C     C_R   0.281559 0.741621 0.735835 -0.017764
C20   C     C_R   0.776470 0.258066 0.226948 -0.101789
C21   C     C_R   0.248112 0.863796 0.852901 0.321010
C22   C     C_R   0.673413 0.391943 0.269203 0.291570
C23   C     C_R   0.198945 0.873914 0.897229 0.244098
C24   C     C_R   0.625459 0.375411 0.314412 0.328809
C25   C     C_R   0.131267 0.780404 0.868559 -0.212041
C26   C     C_R   0.631116 0.219718 0.366893 -0.251809
C27   C     C_R   0.113985 0.668887 0.798048 0.210138
C28   C     C_R   0.684875 0.079266 0.373338 0.236480
C29   C     C_R   0.164777 0.649513 0.756433 0.350872
C30   C     C_R   0.731040 0.091714 0.325868 0.405097
C31   C     C_R   0.231161 0.748854 0.783725 0.057037
C32   C     C_R   0.726285 0.248881 0.275211 -0.003060
C33   C     C_R   0.804644 0.621741 0.759861 -0.078687
C34   C     C_R   0.298481 0.379733 0.270569 -0.093075
C35   C     C_R   0.816539 0.774314 0.814219 -0.209735
C36   C     C_R   0.312866 0.216577 0.319130 -0.211134
C37   C     C_R   0.773996 0.930115 0.779219 0.433935
C38   C     C_R   0.253803 0.085619 0.308374 0.421089
C39   C     C_R   0.699842 0.886899 0.739003 0.450962
C40   C     C_R   0.187365 0.113311 0.245488 0.419365
C41   C     C_R   0.684733 0.734894 0.683481 -0.181810
C42   C     C_R   0.178168 0.268151 0.191348 -0.203057
C43   C     C_R   0.741923 0.607718 0.692808 -0.054693
C44   C     C_R   0.233781 0.403665 0.208611 -0.074092
C45   C     C_3   0.742757 0.397465 0.696575 0.634564
C46   C     C_3   0.269090 0.505112 0.156703 0.634071
C47   C     C_3   0.813021 0.415032 0.769369 0.582413
C48   C     C_3   0.341298 0.477743 0.224936 0.593346
O21   O     O_3   0.233471 0.039907 0.679421 -0.581006
H1    H     H_    0.248240 0.152847 0.655105 0.379966
O22   O     O_3   0.697826 0.040645 0.134130 -0.588259
H2    H     H_    0.695836 0.956972 0.088366 0.374684
Cl1   Cl    Cl    0.637009 0.921006 0.790278 -0.407390
Cl2   Cl    Cl    0.115523 0.951615 0.238063 -0.442476
Cl3   Cl    Cl    0.750554 0.303772 0.605234 -0.447482
Cl4   Cl    Cl    0.261809 0.379198 0.065929 -0.514204
Cl5   Cl    Cl    0.664973 0.311026 0.718463 -0.490740
Cl6   Cl    Cl    0.236773 0.744486 0.137624 -0.520627
O23   O     O_3   0.875753 0.357785 0.753314 -0.576943
H3    H     H_    0.916464 0.373466 0.803876 0.341200
O24   O     O_3   0.388853 0.352955 0.204555 -0.579983
H4    H     H_    0.430480 0.333064 0.253982 0.315246
Cl7   Cl    Cl    0.807184 0.333569 0.863710 -0.540724
Cl8   Cl    Cl    0.385242 0.692102 0.272791 -0.536733
Cl9   Cl    Cl    0.314526 0.059684 0.559726 -0.604687
Cl10  Cl    Cl    0.783686 0.040418 0.015315 -0.516539
Cl11  Cl    Cl    0.439659 0.392302 0.715225 -0.403977
Cl12  Cl    Cl    0.966798 0.519315 0.241876 -0.433068
Cl13  Cl    Cl    0.332776 0.407786 0.813874 -0.460884
Cl14  Cl    Cl    0.861514 0.497053 0.344264 -0.412711
O25   O     O_3   0.312642 0.964814 0.874903 -0.568836
H5    H     H_    0.308315 0.077716 0.906901 0.370498
O26   O     O_3   0.666153 0.548375 0.219562 -0.607141
H6    H     H_    0.701563 0.543472 0.190368 0.326940
O27   O     O_3   0.216139 0.968881 0.969664 -0.582123
H7    H     H_    0.269224 0.962292 0.996484 0.369878
O28   O     O_3   0.571399 0.508387 0.307764 -0.603157
H8    H     H_    0.573188 0.610332 0.269935 0.374081
Cl15  Cl    Cl    0.026748 0.564787 0.759571 -0.576069
Cl16  Cl    Cl    0.699387 0.896872 0.446082 -0.520669
O29   O     O_3   0.151169 0.539754 0.687771 -0.587304
H9    H     H_    0.107710 0.459235 0.680007 0.384297
O30   O     O_3   0.782845 0.955200 0.328394 -0.565524
H10   H     H_    0.772065 0.836912 0.352661 0.385880
O31   O     O_3   0.803989 0.037204 0.733088 -0.600935
H11   H     H_    0.857125 0.015713 0.748214 0.342377
O32   O     O_3   0.257738 0.928110 0.356285 -0.567837
H12   H     H_    0.298282 0.943272 0.406473 0.335285

loop_
_geom_bond_atom_site_label_1
_geom_bond_atom_site_label_2
_ccdc_geom_bond_type
C42   C44   A    
C39   C41   A    
O28   H8    S    
O6    C8    A    
O13   V3    S    
O21   H1    S    
O25   H5    S    
O4    C2    A    
V1    O19   S    
C48   O24   S    
C23   C25   A    
O24   H4    S    
O9    V1    S    
C30   O30   S    
C11   C13   A    
O5    V1    S    
O3    C1    A    
C2    C35   S    
C39   Cl1   S    
C33   C35   A    
C4    C25   S    
C27   Cl15  S    
O26   H6    S    
C23   O27   S    
C36   C38   A    
C21   C23   A    
C45   C47   S    
O7    C3    A    
C38   C40   A    
C9    C11   A    
O5    C7    A    
O7    V1    S    
C17   Cl13  S    
C38   O32   S    
O32   H12   S    
O8    V2    S    
C41   C43   A    
C26   C28   A    
O30   H10   S    
O3    V1    S    
O14   V4    S    
C10   C12   A    
C6    C42   S    
C10   O22   S    
C24   C26   A    
C37   O31   S    
C2    O12   A    
C14   C16   A    
C17   C19   A    
C12   Cl10  S    
C18   C20   A    
C33   C43   A    
O2    C4    A    
C15   Cl11  S    
C48   Cl8   S    
C28   C30   A    
O11   V3    S    
C47   O23   S    
C29   C31   A    
O17   V3    S    
C30   C32   A    
C35   C37   A    
C46   Cl4   S    
C9    C19   A    
C10   C20   A    
C15   C17   A    
O8    C4    A    
C1    O11   A    
C25   C27   A    
O15   V3    S    
C16   Cl12  S    
C27   C29   A    
C40   C42   A    
O22   H2    S    
C20   C32   S    
O23   H3    S    
C8    C14   S    
O10   V2    S    
O1    V3    S    
C33   C47   S    
C47   Cl7   S    
C11   Cl9   S    
C34   C44   A    
C22   O26   S    
O18   V4    S    
O15   C5    A    
O16   C6    A    
C45   Cl3   S    
O1    C3    A    
O12   V4    S    
C21   O25   S    
C1    C36   S    
V2    O20   S    
C9    O21   S    
C28   Cl16  S    
O16   V4    S    
C18   Cl14  S    
C40   Cl2   S    
C37   C39   A    
C16   C18   A    
C19   C31   S    
O17   C7    A    
O6    V2    S    
O29   H9    S    
O10   C6    A    
O18   C8    A    
O27   H7    S    
O2    V4    S    
C5    C41   S    
C12   C14   A    
V3    O19   S    
O31   H11   S    
V4    O20   S    
C34   C48   S    
C7    C13   S    
C24   O28   S    
O9    C5    A    
O13   V1    S    
O14   V2    S    
C46   Cl6   S    
C45   Cl5   S    
C3    C26   S    
O4    V2    S    
C22   C24   A    
C29   O29   S    
C21   C31   A    
C13   C15   A    
C22   C32   A    
C44   C46   S    
C46   C48   S    
C43   C45   S    
C34   C36   A    
