data_mof_unit_68059.cif
_audit_creation_date              2013-03-05T15:43:53-0500
_audit_creation_method            fapswitch 2.2
_symmetry_space_group_name_H-M    P1
_symmetry_Int_Tables_number       1
_space_group_crystal_system       triclinic
_cell_length_a                    7.318565
_cell_length_b                    14.615294
_cell_length_c                    16.314814
_cell_angle_alpha                 89.905918
_cell_angle_beta                  96.823347
_cell_angle_gamma                 90.069773
_cell_volume                      1732.71775584

loop_
_atom_site_label
_atom_site_type_symbol
_atom_site_description
_atom_site_fract_x
_atom_site_fract_y
_atom_site_fract_z
_atom_type_partial_charge
O1    O     O_R   0.525340 0.338340 0.164530 -0.528020
O2    O     O_R   0.474660 0.661660 0.835470 -0.559613
O3    O     O_R   0.974660 0.838340 0.835470 -0.528136
O4    O     O_R   0.025340 0.161660 0.164530 -0.548151
O5    O     O_R   0.253520 0.352000 0.336710 -0.552119
O6    O     O_R   0.746480 0.648000 0.663290 -0.567069
O7    O     O_R   0.246480 0.852000 0.663290 -0.550248
O8    O     O_R   0.753520 0.148000 0.336710 -0.563151
O9    O     O_R   0.083330 0.168380 0.337300 -0.516693
O10   O     O_R   0.916670 0.831620 0.662700 -0.548523
O11   O     O_R   0.416670 0.668380 0.662700 -0.514989
O12   O     O_R   0.583330 0.331620 0.337300 -0.552174
C1    C     C_R   0.432352 0.369663 0.363010 0.969059
C2    C     C_R   0.568302 0.629731 0.637670 0.973198
C3    C     C_R   0.067692 0.870611 0.637777 0.965252
C4    C     C_R   0.931619 0.129973 0.362452 0.969638
O13   O     O_R   0.195840 0.349670 0.165140 -0.591448
O14   O     O_R   0.804160 0.650330 0.834860 -0.566093
O15   O     O_R   0.304160 0.849670 0.834860 -0.597046
O16   O     O_R   0.695840 0.150330 0.165140 -0.576115
C5    C     C_R   0.360153 0.375270 0.142002 0.765290
C6    C     C_R   0.644009 0.633681 0.865914 0.784240
C7    C     C_R   0.140510 0.874745 0.858521 0.767467
C8    C     C_R   0.856123 0.130998 0.135311 0.762226
O17   O     O_3   0.387830 0.193120 0.250910 -0.312698
O18   O     O_3   0.612170 0.806880 0.749090 -0.310997
O19   O     O_3   0.112170 0.693120 0.749090 -0.316248
O20   O     O_3   0.887830 0.306880 0.250910 -0.310638
V1    V     V_3+5 0.113010 0.264540 0.250910 1.157274
V2    V     V_3+5 0.886990 0.735460 0.749090 1.151319
V3    V     V_3+5 0.386990 0.764540 0.749090 1.155087
V4    V     V_3+5 0.613010 0.235460 0.250910 1.147872
H1    H     H_    0.869571 0.815822 0.262476 0.099360
H2    H     H_    0.001800 0.185326 0.739706 0.103978
H3    H     H_    0.633019 0.313117 0.740318 0.096765
H4    H     H_    0.459163 0.682380 0.256398 0.102494
C9    C     C_R   0.012518 0.193758 0.534065 0.432724
C10   C     C_R   0.033778 0.809907 0.464770 0.414864
C11   C     C_R   0.483056 0.692833 0.465114 0.435306
C12   C     C_R   0.470790 0.308436 0.536717 0.415357
C13   C     C_R   0.029871 0.221490 0.617005 -0.177848
C14   C     C_R   0.995330 0.781275 0.382326 -0.186534
C15   C     C_R   0.452251 0.720017 0.381686 -0.177236
C16   C     C_R   0.509502 0.279651 0.619357 -0.186327
C17   C     C_R   0.007100 0.159865 0.678581 -0.175606
C18   C     C_R   0.916463 0.840600 0.322780 -0.172108
C19   C     C_R   0.465925 0.658128 0.319258 -0.171408
C20   C     C_R   0.586586 0.338986 0.679338 -0.165067
C21   C     C_R   0.987654 0.066752 0.662170 0.364171
C22   C     C_R   0.887655 0.931622 0.340457 0.381539
C23   C     C_R   0.495206 0.565900 0.336884 0.362248
C24   C     C_R   0.612922 0.430663 0.661253 0.383021
C25   C     C_R   0.007504 0.032854 0.582345 -0.097553
C26   C     C_R   0.955234 0.967920 0.418881 -0.104462
C27   C     C_R   0.486667 0.531895 0.417917 -0.101903
C28   C     C_R   0.546198 0.466936 0.582211 -0.106550
C29   C     C_R   0.998288 0.097442 0.515636 -0.079875
C30   C     C_R   0.011926 0.904884 0.484426 -0.080729
C31   C     C_R   0.498902 0.596569 0.484376 -0.079850
C32   C     C_R   0.490872 0.403610 0.516790 -0.078613
C33   C     C_R   0.031169 0.937258 0.567453 -0.112179
C34   C     C_R   0.964074 0.064223 0.433142 -0.120458
C35   C     C_R   0.468892 0.436057 0.433482 -0.113389
C36   C     C_R   0.536073 0.563508 0.567252 -0.122495
H5    H     H_    0.054339 0.291871 0.634860 0.065873
H6    H     H_    0.018779 0.711586 0.364057 0.075322
H7    H     H_    0.424040 0.790258 0.363970 0.066374
H8    H     H_    0.487039 0.209767 0.637603 0.072592
C37   C     C_2   0.139672 0.959846 0.910764 0.244667
C38   C     C_2   0.846948 0.068831 0.059429 0.162307
C39   C     C_2   0.362024 0.460905 0.090143 0.239888
C40   C     C_2   0.655475 0.576519 0.944059 0.165155
C41   C     C_2   0.013388 0.969705 0.966383 0.330305
C42   C     C_2   0.998633 0.055542 0.018819 0.341127
C43   C     C_2   0.501251 0.476625 0.041849 0.333854
C44   C     C_2   0.503842 0.558946 0.984420 0.317819
O21   O     O_3   0.023674 0.257099 0.470594 -0.611625
C45   C     C_3   0.967311 0.346554 0.488216 0.276989
H9    H     H_    0.081387 0.384405 0.524312 0.002302
H10   H     H_    0.842330 0.346568 0.520451 -0.037866
H11   H     H_    0.933195 0.383610 0.429136 0.069935
O22   O     O_3   0.108193 0.748607 0.525106 -0.617939
C46   C     C_3   0.020968 0.662188 0.518690 0.264455
H12   H     H_    0.082170 0.618202 0.473715 -0.016028
H13   H     H_    0.869520 0.667818 0.502631 -0.016401
H14   H     H_    0.046357 0.627571 0.579435 0.085906
O23   O     O_3   0.482976 0.756810 0.528677 -0.613119
C47   C     C_3   0.539722 0.845551 0.508482 0.271271
H15   H     H_    0.422450 0.884321 0.475855 0.006612
H16   H     H_    0.657530 0.844075 0.471630 -0.037670
H17   H     H_    0.585262 0.882708 0.566535 0.072595
O24   O     O_3   0.397075 0.247177 0.476216 -0.619034
C48   C     C_3   0.479760 0.159808 0.484040 0.265981
H18   H     H_    0.413564 0.116908 0.528400 -0.010461
H19   H     H_    0.630828 0.163794 0.501773 -0.021313
H20   H     H_    0.456213 0.125050 0.423367 0.083420
O25   O     O_3   0.950240 0.009194 0.725067 -0.683048
C49   C     C_3   0.766209 0.021399 0.739629 0.200419
H21   H     H_    0.668977 0.008633 0.682928 0.002373
H22   H     H_    0.743183 0.090385 0.765132 -0.007793
H23   H     H_    0.737395 0.970651 0.786603 0.121367
O26   O     O_3   0.777742 0.981941 0.282425 -0.665910
C50   C     C_3   0.592258 0.965169 0.294253 0.216099
H24   H     H_    0.502865 0.015308 0.257797 0.093432
H25   H     H_    0.567254 0.974145 0.359820 -0.019329
H26   H     H_    0.549762 0.895636 0.272248 -0.002941
O27   O     O_3   0.538755 0.510150 0.274166 -0.684573
C51   C     C_3   0.728951 0.517750 0.269536 0.197451
H27   H     H_    0.810649 0.494577 0.327686 0.009671
H28   H     H_    0.768620 0.588741 0.254613 -0.011019
H29   H     H_    0.762488 0.472669 0.219272 0.122448
O28   O     O_3   0.718286 0.481987 0.719958 -0.666062
C52   C     C_3   0.905004 0.469023 0.708501 0.219048
H30   H     H_    0.991690 0.515560 0.750250 0.092721
H31   H     H_    0.931563 0.485431 0.644262 -0.010921
H32   H     H_    0.948960 0.398031 0.724293 -0.003908
O29   O     O_3   0.145674 0.116275 0.029000 -0.669065
C53   C     C_3   0.092045 0.204296 0.997347 0.332819
H33   H     H_    0.176496 0.255593 0.033830 0.065627
H34   H     H_    0.949253 0.222950 0.004418 -0.022384
C54   C     C_3   0.122413 0.211564 0.906951 -0.207615
H35   H     H_    0.261249 0.188135 0.901976 0.194559
H36   H     H_    0.024373 0.165367 0.870566 0.130428
C55   C     C_3   0.112423 0.308220 0.872060 -0.572422
H37   H     H_    0.968508 0.331683 0.861310 0.134176
H38   H     H_    0.168838 0.308735 0.811846 0.147682
H39   H     H_    0.197829 0.355557 0.913500 0.118123
O30   O     O_3   0.887764 0.899120 0.971802 -0.641864
C56   C     C_3   0.901809 0.861504 0.052332 0.253851
H40   H     H_    0.797848 0.891999 0.087386 0.093813
H41   H     H_    0.034804 0.873802 0.090274 -0.016923
C57   C     C_3   0.862887 0.759739 0.044553 -0.119902
H42   H     H_    0.731803 0.750419 0.006026 0.103236
H43   H     H_    0.967007 0.725611 0.011983 0.134875
C58   C     C_3   0.852871 0.714470 0.127584 -0.520439
H44   H     H_    0.980609 0.728762 0.168944 0.122076
H45   H     H_    0.832253 0.639994 0.119010 0.183118
H46   H     H_    0.735619 0.740190 0.157206 0.122070
O31   O     O_3   0.337781 0.603195 0.962640 -0.666678
C59   C     C_3   0.346463 0.696819 0.985433 0.342364
H47   H     H_    0.220310 0.729198 0.954847 0.056238
H48   H     H_    0.457592 0.734732 0.960986 0.033248
C60   C     C_3   0.354733 0.711852 0.078354 -0.218883
H49   H     H_    0.222058 0.692282 0.097402 0.168883
H50   H     H_    0.464106 0.669702 0.112555 0.128990
C61   C     C_3   0.383328 0.811912 0.100216 -0.551521
H51   H     H_    0.526653 0.832069 0.097378 0.144587
H52   H     H_    0.345945 0.825400 0.163041 0.138700
H53   H     H_    0.298294 0.853913 0.054454 0.106412
O32   O     O_3   0.648154 0.416059 0.047713 -0.643756
C62   C     C_3   0.654722 0.368837 0.972673 0.278452
H54   H     H_    0.800743 0.362417 0.964015 0.076980
H55   H     H_    0.580263 0.402330 0.916903 0.000909
C63   C     C_3   0.585143 0.272592 0.978940 -0.164546
H56   H     H_    0.661575 0.238667 0.032459 0.133910
H57   H     H_    0.441172 0.275152 0.990397 0.081558
C64   C     C_3   0.606794 0.220040 0.900145 -0.531941
H58   H     H_    0.506251 0.244934 0.848836 0.129748
H59   H     H_    0.586855 0.146603 0.911102 0.203760
H60   H     H_    0.744855 0.228495 0.881034 0.121479
O33   O     O_3   0.684589 0.031965 0.018478 -0.667380
C65   C     C_3   0.536758 0.026810 0.065211 0.220170
H61   H     H_    0.469878 0.094345 0.067458 0.145149
H62   H     H_    0.577525 0.996334 0.126740 0.026613
H63   H     H_    0.433663 0.981280 0.032816 0.108737
O34   O     O_3   0.263978 0.030935 0.903293 -0.669685
C66   C     C_3   0.350033 0.030188 0.829902 0.194900
H64   H     H_    0.373612 0.100718 0.809371 0.003386
H65   H     H_    0.268243 0.999502 0.775751 0.074717
H66   H     H_    0.484458 0.995719 0.842938 0.089637
O35   O     O_3   0.825634 0.550461 0.985195 -0.655564
C67   C     C_3   0.945559 0.515197 0.931784 0.251921
H67   H     H_    0.034059 0.569641 0.911654 0.146908
H68   H     H_    0.872146 0.479708 0.877469 -0.007715
H69   H     H_    0.037086 0.465294 0.966697 0.094524
O36   O     O_3   0.224551 0.526864 0.090909 -0.652877
C68   C     C_3   0.139081 0.528504 0.164422 0.231299
H70   H     H_    0.120040 0.599036 0.183869 -0.000052
H71   H     H_    0.219762 0.499130 0.219638 0.059353
H72   H     H_    0.003320 0.494874 0.152407 0.099021

loop_
_geom_bond_atom_site_label_1
_geom_bond_atom_site_label_2
_geom_bond_distance
_ccdc_geom_bond_type
C58   H46   1.100522 S    
O35   C67   1.406983 S    
C38   O33   1.399847 S    
O1    C5    1.335395 A    
C48   H18   1.110276 S    
C12   C32   1.439278 A    
C27   C31   1.434289 A    
C60   C61   1.514221 S    
O13   V1    2.016834 S    
C41   C42   1.530743 S    
C7    C37   1.509371 S    
O3    C7    1.337325 A    
C59   C60   1.526250 S    
C11   O23   1.397517 S    
O23   C47   1.411729 S    
O15   V3    2.020575 S    
O30   C56   1.415857 S    
O25   C49   1.406772 S    
C8    C38   1.531824 S    
C58   H44   1.105892 S    
C66   H65   1.102236 S    
O21   C45   1.411699 S    
C51   H27   1.112157 S    
O12   C1    1.348472 A    
C31   C36   1.430543 A    
C64   H58   1.108071 S    
C5    C39   1.510538 S    
C32   C35   1.429756 A    
O20   V1    1.761049 S    
O9    C4    1.349906 A    
C59   H48   1.096744 S    
C10   C14   1.405372 A    
O10   C3    1.347665 A    
C26   C30   1.434129 A    
O4    C8    1.349381 A    
O11   C2    1.351779 A    
C45   H10   1.107938 S    
C24   O28   1.378423 S    
C43   O32   1.387878 S    
C60   H49   1.091761 S    
C61   H53   1.100250 S    
C39   O36   1.395389 S    
H4    C19   1.080114 S    
C58   H45   1.105544 S    
C14   C18   1.376197 A    
C62   C63   1.502850 S    
C37   O34   1.394855 S    
C54   C55   1.520751 S    
C10   C30   1.438569 A    
C25   C33   1.432750 A    
O16   C8    1.352621 A    
C57   H42   1.091175 S    
C68   H71   1.103368 S    
C27   C35   1.431640 A    
C38   C42   1.372876 D    
C62   H54   1.098619 S    
C28   C36   1.432482 A    
C37   C41   1.377811 D    
O14   V2    2.016832 S    
C12   C16   1.408088 A    
C63   H57   1.092452 S    
O4    V1    2.109113 S    
C67   H69   1.101926 S    
O9    V1    2.018503 S    
C52   H32   1.107546 S    
O17   V4    1.759638 S    
O7    C3    1.352930 A    
O11   V3    2.022092 S    
O18   V3    1.759638 S    
O8    C4    1.347261 A    
C10   O22   1.392535 S    
O19   V2    1.761049 S    
H1    C18   1.066549 S    
C4    C34   1.497251 S    
H3    C20   1.080259 S    
C6    C40   1.517124 S    
O28   C52   1.414082 S    
C67   H68   1.109349 S    
O33   C65   1.397553 S    
C66   H66   1.103642 S    
C61   H52   1.109838 S    
C11   C15   1.409542 A    
C9    C29   1.440973 A    
O7    V3    2.075128 S    
C61   H51   1.095417 S    
O8    V4    2.075127 S    
C40   O35   1.395706 S    
C29   C34   1.425339 A    
C59   H47   1.102799 S    
C63   C64   1.523011 S    
C66   H64   1.103041 S    
C25   C29   1.435087 A    
C45   H9    1.110389 S    
C13   H5    1.078508 S    
C26   C34   1.427114 A    
C9    O21   1.397402 S    
O22   C46   1.412917 S    
O1    V4    2.106926 S    
O13   C5    1.354580 A    
C28   C32   1.435048 A    
O2    V3    2.106924 S    
C53   C54   1.520858 S    
C64   H59   1.100184 S    
O3    V2    2.109111 S    
O15   C7    1.352465 A    
C43   C44   1.525207 S    
C15   H7    1.079548 S    
O2    C6    1.343245 A    
O6    C2    1.347753 A    
C65   H63   1.093894 S    
O10   V2    2.018504 S    
C46   H12   1.110249 S    
C1    C35   1.504992 S    
C47   H17   1.108728 S    
C17   C21   1.391258 A    
O27   C51   1.407192 S    
C68   H72   1.104554 S    
C11   C31   1.442900 A    
C53   H33   1.100595 S    
C3    C33   1.503551 S    
C40   C44   1.379660 D    
C50   H25   1.114454 S    
H2    C17   1.069998 S    
C22   C26   1.419268 A    
C12   O24   1.393608 S    
C63   H56   1.097419 S    
C55   H39   1.107463 S    
C2    C36   1.500331 S    
C57   H43   1.099911 S    
O36   C68   1.417289 S    
C46   H13   1.111343 S    
C47   H16   1.108406 S    
C68   H70   1.093009 S    
C48   H20   1.108376 S    
C49   H22   1.112000 S    
O34   C66   1.417639 S    
C16   H8    1.081248 S    
C49   H23   1.103660 S    
O5    V1    2.076416 S    
C67   H67   1.099528 S    
C55   H38   1.109927 S    
C52   H30   1.107616 S    
O16   V4    2.020576 S    
C44   O31   1.385662 S    
C60   H50   1.107022 S    
C42   O29   1.388963 S    
O6    V2    2.076415 S    
O14   C6    1.352652 A    
O5    C1    1.352698 A    
C19   C23   1.389361 A    
O31   C59   1.417928 S    
C54   H35   1.084803 S    
C22   O26   1.379314 S    
C64   H60   1.099017 S    
C65   H61   1.104865 S    
C41   O30   1.390689 S    
C18   C22   1.383386 A    
C51   H29   1.103099 S    
C56   C57   1.516705 S    
C56   H40   1.099836 S    
C65   H62   1.105784 S    
O29   C53   1.423574 S    
C39   C43   1.378917 D    
C45   H11   1.107317 S    
C48   H19   1.110558 S    
C30   C33   1.426604 A    
C57   C58   1.516157 S    
C21   C25   1.417702 A    
O24   C48   1.412801 S    
C51   H28   1.111454 S    
C50   H26   1.110079 S    
C23   C27   1.419888 A    
C62   H55   1.116157 S    
C9    C13   1.404372 A    
O26   C50   1.414688 S    
C53   H34   1.099624 S    
C54   H36   1.105445 S    
C21   O25   1.378030 S    
C16   C20   1.377795 A    
C20   C24   1.389634 A    
C46   H14   1.107925 S    
C47   H15   1.110255 S    
C23   O27   1.375984 S    
C49   H21   1.113897 S    
C50   H24   1.107267 S    
C14   H6    1.081327 S    
C13   C17   1.372824 A    
O32   C62   1.412195 S    
C56   H41   1.104363 S    
C15   C19   1.375867 A    
O12   V4    2.022091 S    
C24   C28   1.425210 A    
C55   H37   1.102034 S    
C52   H31   1.114071 S    
