data_mof_unit_20266.cif
_audit_creation_date              2012-12-10T21:31:21-0500
_audit_creation_method            fapswitch 2.2
_symmetry_space_group_name_H-M    P1
_symmetry_Int_Tables_number       1
_space_group_crystal_system       triclinic
_cell_length_a                    14.959027
_cell_length_b                    16.21675
_cell_length_c                    16.967122
_cell_angle_alpha                 88.803447
_cell_angle_beta                  93.651866
_cell_angle_gamma                 92.028499
_cell_volume                      4104.35207679

loop_
_atom_site_label
_atom_site_type_symbol
_atom_type_description
_atom_site_fract_x
_atom_site_fract_y
_atom_site_fract_z
_atom_type_partial_charge
C1    C     C_R   0.495906 0.489971 0.652903 0.886390
C2    C     C_R   0.519845 0.428457 0.144999 -0.101087
C3    C     C_R   0.509893 0.462280 0.903212 0.231326
C4    C     C_R   0.472085 0.488989 0.099849 0.227463
C5    C     C_R   0.478867 0.396237 0.856987 0.041904
C6    C     C_R   0.444230 0.560171 0.135243 0.048133
C7    C     C_R   0.467323 0.407144 0.774869 0.024756
C8    C     C_R   0.462639 0.571965 0.216412 0.008177
C9    C     C_R   0.439926 0.758884 0.475941 0.166968
C10   C     C_R   0.546609 0.236364 0.537656 0.140252
C11   C     C_R   0.438617 0.846208 0.478179 -0.196059
C12   C     C_R   0.505146 0.509825 0.347679 0.899748
C13   C     C_R   0.548064 0.149879 0.530566 -0.166081
C14   C     C_R   0.514730 0.890766 0.510252 0.227532
C15   C     C_R   0.485869 0.108902 0.476754 0.216921
C16   C     C_R   0.673215 0.499947 0.503304 0.878471
C17   C     C_R   0.326869 0.500364 0.497249 0.886983
C18   C     C_R   0.589289 0.846661 0.539491 -0.031259
C19   C     C_R   0.425760 0.157830 0.430619 -0.059122
C20   C     C_R   0.586158 0.758810 0.539831 0.177544
C21   C     C_R   0.427946 0.245159 0.438701 0.147885
C22   C     C_R   0.176722 0.496267 0.430833 -0.104985
C23   C     C_R   0.966049 0.500292 0.650451 0.086305
C24   C     C_R   0.820559 0.478941 0.572755 -0.093382
C25   C     C_R   0.231432 0.501352 0.500571 -0.121732
C26   C     C_R   0.769375 0.503205 0.504428 -0.129608
C27   C     C_R   0.195717 0.510983 0.574160 0.021603
C28   C     C_R   0.809862 0.541658 0.440252 0.046710
C29   C     C_R   0.101894 0.511400 0.578231 0.046142
C30   C     C_R   0.902711 0.537597 0.436499 0.072460
C31   C     C_R   0.048308 0.517604 0.506148 -0.036313
C32   C     C_R   0.954809 0.518440 0.506885 -0.053191
C33   C     C_R   0.087794 0.519570 0.432573 0.025828
C34   C     C_R   0.036802 0.542724 0.362848 0.033568
C35   C     C_R   0.913278 0.498808 0.577805 -0.002022
C36   C     C_R   0.059189 0.507542 0.650756 0.100024
C37   C     C_R   0.944829 0.553171 0.365247 0.101861
C38   C     C_R   0.202781 0.445609 0.364515 0.132605
C39   C     C_R   0.269960 0.472305 0.314955 -0.146944
C40   C     C_R   0.286053 0.426381 0.248606 -0.131720
C41   C     C_R   0.236507 0.353573 0.231919 -0.142890
C42   C     C_R   0.170689 0.325902 0.281750 -0.177959
C43   C     C_R   0.153781 0.371617 0.347707 -0.157106
C44   C     C_R   0.779993 0.425778 0.634103 0.117419
C45   C     C_R   0.491092 0.484314 0.739484 -0.140536
C46   C     C_R   0.724091 0.458571 0.688140 -0.199382
C47   C     C_R   0.698546 0.410684 0.753003 -0.143466
C48   C     C_R   0.724885 0.329084 0.762375 -0.139050
C49   C     C_R   0.778182 0.295302 0.707439 -0.139259
C50   C     C_R   0.805968 0.343480 0.643623 -0.131625
C51   C     C_R   0.619352 0.106624 0.578008 0.214811
C52   C     C_R   0.604970 0.079182 0.655389 -0.139779
C53   C     C_R   0.675186 0.046201 0.702962 -0.165391
C54   C     C_R   0.760180 0.041284 0.673889 -0.133582
C55   C     C_R   0.774894 0.068730 0.596961 -0.149411
C56   C     C_R   0.508570 0.511314 0.261701 -0.134119
C57   C     C_R   0.704719 0.101363 0.549052 -0.100728
C58   C     C_R   0.355882 0.888868 0.451604 0.163966
C59   C     C_R   0.300724 0.919213 0.507490 -0.130217
C60   C     C_R   0.222148 0.959019 0.482676 -0.142457
C61   C     C_R   0.198210 0.968571 0.402092 -0.121359
C62   C     C_R   0.253133 0.938817 0.346171 -0.128424
C63   C     C_R   0.331982 0.899317 0.370735 -0.135566
C64   C     C_R   0.605313 0.385606 0.269091 0.160229
C65   C     C_R   0.696002 0.409094 0.282807 -0.205855
C66   C     C_R   0.754534 0.357064 0.325747 -0.122368
C67   C     C_R   0.516118 0.553096 0.788217 -0.136977
C68   C     C_R   0.723310 0.280261 0.353462 -0.105730
C69   C     C_R   0.633989 0.254785 0.336881 -0.138107
C70   C     C_R   0.575290 0.306934 0.294253 -0.056447
C71   C     C_R   0.527571 0.638941 0.756859 0.186059
C72   C     C_R   0.611197 0.681191 0.766042 -0.179114
C73   C     C_R   0.618072 0.766190 0.750909 -0.165043
C74   C     C_R   0.542080 0.809277 0.724992 -0.119797
C75   C     C_R   0.459226 0.767378 0.713579 -0.160098
C76   C     C_R   0.451667 0.682772 0.730401 -0.108439
C77   C     C_R   0.539738 0.347987 0.110899 0.172681
C78   C     C_R   0.543216 0.442512 0.224844 -0.119409
C79   C     C_R   0.470210 0.289033 0.095557 -0.137736
C80   C     C_R   0.488509 0.212969 0.063943 -0.134048
C81   C     C_R   0.576079 0.195631 0.047047 -0.119917
C82   C     C_R   0.645564 0.254239 0.061963 -0.146878
C83   C     C_R   0.627639 0.330222 0.093916 -0.116020
C84   C     C_R   0.560213 0.608864 0.923549 0.169191
C85   C     C_R   0.507563 0.677659 0.932763 -0.081905
C86   C     C_R   0.539530 0.742119 0.981450 -0.165266
C87   C     C_R   0.623173 0.737520 0.022636 -0.118879
C88   C     C_R   0.675348 0.668737 0.014708 -0.135327
C89   C     C_R   0.527796 0.540626 0.870351 -0.100702
C90   C     C_R   0.644227 0.604693 0.965186 -0.159992
H1    H     H_    0.307376 0.529528 0.326359 0.124555
H2    H     H_    0.849364 0.317408 0.602622 0.127325
H3    H     H_    0.539840 0.084395 0.678948 0.110707
H4    H     H_    0.663896 0.025004 0.762528 0.121531
H5    H     H_    0.814561 0.016054 0.710889 0.119158
H6    H     H_    0.840765 0.065070 0.574602 0.119123
H7    H     H_    0.717125 0.123857 0.490066 0.105105
H8    H     H_    0.318570 0.911836 0.570059 0.112833
H9    H     H_    0.179748 0.982357 0.525900 0.121001
H10   H     H_    0.137370 0.999402 0.382979 0.115089
H11   H     H_    0.234815 0.946710 0.283801 0.118757
H12   H     H_    0.336114 0.447093 0.209283 0.138359
H13   H     H_    0.374407 0.877035 0.326941 0.113625
H14   H     H_    0.683334 0.877660 0.626537 0.184016
H15   H     H_    0.721439 0.877329 0.533898 0.184510
H16   H     H_    0.298061 0.132601 0.388657 0.185506
H17   H     H_    0.374202 0.140794 0.318587 0.168993
H18   H     H_    0.714219 0.749270 0.593715 0.146220
H19   H     H_    0.640611 0.673337 0.614184 0.220182
H20   H     H_    0.300893 0.276612 0.410099 0.179738
H21   H     H_    0.369295 0.283502 0.334312 0.165152
H22   H     H_    0.297922 0.567644 0.638891 0.193778
H23   H     H_    0.249420 0.318467 0.180543 0.120032
H24   H     H_    0.293012 0.462945 0.648915 0.191458
H25   H     H_    0.736289 0.640477 0.406556 0.217888
H26   H     H_    0.701415 0.552161 0.361126 0.178592
H27   H     H_    0.147053 0.456721 0.733580 0.202162
H28   H     H_    0.145391 0.563502 0.732926 0.207152
H29   H     H_    0.902402 0.528265 0.251944 0.181677
H30   H     H_    0.918136 0.630225 0.271582 0.203917
H31   H     H_    0.904537 0.446283 0.743766 0.212526
H32   H     H_    0.876752 0.547463 0.722475 0.186102
H33   H     H_    0.090268 0.509504 0.260903 0.208719
H34   H     H_    0.132440 0.269312 0.269079 0.128195
H35   H     H_    0.136931 0.598245 0.301973 0.190876
H36   H     H_    0.721471 0.467188 0.259256 0.143360
H37   H     H_    0.824181 0.376087 0.337088 0.133888
H38   H     H_    0.768630 0.240013 0.386714 0.112432
H39   H     H_    0.610306 0.194599 0.356930 0.124239
H40   H     H_    0.506692 0.286283 0.280763 0.106147
H41   H     H_    0.670213 0.648772 0.787592 0.124349
H42   H     H_    0.682272 0.798681 0.759571 0.125840
H43   H     H_    0.547443 0.875095 0.713387 0.136148
H44   H     H_    0.400467 0.800837 0.693448 0.121455
H45   H     H_    0.101494 0.350047 0.385204 0.126575
H46   H     H_    0.386283 0.652023 0.725749 0.111868
H47   H     H_    0.402161 0.301952 0.108407 0.108743
H48   H     H_    0.434766 0.167583 0.052276 0.118690
H49   H     H_    0.590066 0.136834 0.022301 0.115707
H50   H     H_    0.713297 0.240794 0.048733 0.122720
H51   H     H_    0.681839 0.375355 0.105033 0.121366
H52   H     H_    0.442022 0.681354 0.902186 0.125934
H53   H     H_    0.498999 0.795242 0.987917 0.121282
H54   H     H_    0.647480 0.787182 0.060802 0.121787
H55   H     H_    0.740081 0.665192 0.046702 0.127706
H56   H     H_    0.704731 0.522258 0.682496 0.119683
H57   H     H_    0.685594 0.552022 0.958940 0.121546
H58   H     H_    0.499312 0.273847 0.872946 0.174948
H59   H     H_    0.391753 0.301588 0.881368 0.175586
H60   H     H_    0.426461 0.677026 0.093641 0.187520
H61   H     H_    0.330442 0.621976 0.108874 0.171961
H62   H     H_    0.365132 0.325781 0.744906 0.171000
H63   H     H_    0.469105 0.289149 0.736897 0.172165
H64   H     H_    0.361868 0.645298 0.243519 0.161059
H65   H     H_    0.460805 0.696125 0.228528 0.182410
H66   H     H_    0.607925 0.336428 0.593464 0.272066
H67   H     H_    0.660102 0.437287 0.797145 0.142064
H68   H     H_    0.584110 0.256481 0.651715 0.172214
H69   H     H_    0.307645 0.726726 0.463558 0.175418
H70   H     H_    0.360839 0.731713 0.377892 0.165590
H71   H     H_    0.704410 0.292234 0.812442 0.127801
H72   H     H_    0.798673 0.232115 0.714702 0.145271
N1    N     N_2   0.519104 0.451735 0.985107 -0.158141
N2    N     N_3   0.365081 0.294764 0.394230 -0.374534
N3    N     N_3   0.255002 0.515903 0.644004 -0.498627
N4    N     N_3   0.757832 0.587192 0.380970 -0.431504
N5    N     N_3   0.107361 0.508446 0.726716 -0.436893
N6    N     N_3   0.893647 0.573627 0.293424 -0.439802
N7    N     N_3   0.927497 0.504647 0.725574 -0.440621
N8    N     N_3   0.077624 0.563375 0.290245 -0.482778
N9    N     N_3   0.459000 0.318365 0.894759 -0.435053
N10   N     N_3   0.394356 0.619055 0.087774 -0.449927
N11   N     N_3   0.429572 0.340674 0.727450 -0.431040
N12   N     N_2   0.457618 0.485132 0.017037 -0.144147
N13   N     N_3   0.431395 0.643271 0.253656 -0.441525
N14   N     N_3   0.607240 0.273180 0.596622 -0.430230
N15   N     N_3   0.366702 0.713381 0.437302 -0.381183
N16   N     N_R   0.511030 0.716920 0.509720 -0.101847
N17   N     N_R   0.488970 0.283080 0.490280 -0.106693
N18   N     N_2   0.517518 0.978531 0.520364 -0.149595
N19   N     N_2   0.482011 0.020825 0.465141 -0.129186
N20   N     N_3   0.668200 0.892713 0.567180 -0.431410
N21   N     N_3   0.362812 0.118043 0.375281 -0.429931
N22   N     N_3   0.661708 0.712447 0.569011 -0.419764
O1    O     O_R   0.496050 0.422540 0.612660 -0.612736
O2    O     O_R   0.503950 0.577460 0.387340 -0.584843
O3    O     O_R   0.503140 0.561840 0.618900 -0.631517
O4    O     O_R   0.496860 0.438160 0.381100 -0.600130
O5    O     O_R   0.628610 0.430340 0.496900 -0.624177
O6    O     O_R   0.371390 0.569660 0.503100 -0.606771
O7    O     O_R   0.635690 0.569650 0.503140 -0.622067
O8    O     O_R   0.364310 0.430350 0.496860 -0.594470
Zn1   Zn    Zn3+2 0.495270 0.406980 0.495830 0.968126
Zn2   Zn    Zn3+2 0.504730 0.593020 0.504170 0.957871

loop_
_geom_bond_atom_site_label_1
_geom_bond_atom_site_label_2
_ccdc_geom_bond_type
C66   C68   A    
C87   C88   A    
C27   C29   A    
C34   C37   A    
C41   C42   A    
C14   C18   A    
H31   N7    S    
C70   H40   S    
C60   H9    S    
C8    C56   A    
C81   C82   A    
C76   H46   S    
C75   H44   S    
C42   H34   S    
C6    N10   S    
C53   C54   A    
N18   N19   D    
C15   C19   A    
N16   Zn2   S    
C29   C36   A    
C62   C63   A    
H64   N13   S    
C72   H41   S    
C10   N17   A    
C7    C45   A    
C19   C21   A    
C24   C26   A    
N17   Zn1   S    
C38   C39   A    
C11   C14   A    
C80   H48   S    
C18   N20   S    
H65   N13   S    
C22   C38   S    
C74   H43   S    
H63   N11   S    
H28   N5    S    
C67   C89   A    
H58   N9    S    
C56   C78   A    
C66   H37   S    
C73   C74   A    
H68   N14   S    
C82   H50   S    
C13   C51   S    
H60   N10   S    
C47   C48   A    
C68   C69   A    
C22   C25   A    
C45   C67   A    
C88   H55   S    
C31   C33   A    
C51   C57   A    
C64   C70   A    
H15   N20   S    
C11   C58   S    
C68   H38   S    
C18   C20   A    
C34   N8    S    
C28   N4    S    
C20   N22   S    
C62   H11   S    
C77   C79   A    
C73   H42   S    
C57   H7    S    
C59   C60   A    
C21   N2    S    
C4    N12   S    
C16   C26   S    
H26   N4    S    
C61   C62   A    
C84   C90   A    
H69   N15   S    
C39   H1    S    
C44   C46   A    
C86   H53   S    
C37   N6    S    
C1    O3    A    
C17   O8    A    
C10   N14   S    
H16   N21   S    
C8    N13   S    
C24   C35   A    
C74   C75   A    
H18   N22   S    
C50   H2    S    
C51   C52   A    
C32   C35   A    
C1    O1    A    
C84   C85   A    
C72   C73   A    
C63   H13   S    
C15   N19   S    
C19   N21   S    
C39   C40   A    
C83   H51   S    
H20   N2    S    
C86   C87   A    
C55   H6    S    
C65   H36   S    
C20   N16   A    
C48   H71   S    
C58   C59   A    
C85   C86   A    
C82   C83   A    
C36   N5    S    
H61   N10   S    
C30   C37   A    
H17   N21   S    
C60   C61   A    
C2    C4    A    
C75   C76   A    
C90   H57   S    
C2    C78   A    
C16   O7    A    
C31   C32   A    
C23   N7    S    
H32   N7    S    
C12   O2    A    
C33   C34   A    
C49   H72   S    
C52   H3    S    
C46   C47   A    
H25   N4    S    
C43   H45   S    
H35   N8    S    
C9    C11   A    
C54   H5    S    
C12   C56   S    
C27   N3    S    
H62   N11   S    
H19   N22   S    
C4    C6    A    
C40   C41   A    
C79   H47   S    
C88   C90   A    
O4    Zn1   S    
C23   C36   A    
C23   C35   A    
C55   C57   A    
O3    Zn2   S    
C24   C44   S    
C61   H10   S    
C84   C89   S    
C9    N15   S    
C52   C53   A    
H30   N6    S    
H24   N3    S    
C5    C7    A    
C47   H67   S    
C44   C50   A    
C58   C63   A    
C81   H49   S    
C22   C33   A    
C54   C55   A    
H66   N14   S    
C5    N9    S    
C53   H4    S    
H59   N9    S    
C64   C78   S    
O2    Zn2   S    
H21   N2    S    
C41   H23   S    
C80   C81   A    
C3    C5    A    
C10   C13   A    
C85   H52   S    
C6    C8    A    
C3    N1    S    
C17   O6    A    
C25   C27   A    
C46   H56   S    
C87   H54   S    
C26   C28   A    
C3    C89   A    
C17   C25   S    
O8    Zn1   S    
C13   C15   A    
O7    Zn2   S    
C38   C43   A    
C29   C31   A    
C2    C77   S    
C64   C65   A    
C30   C32   A    
C1    C45   S    
C71   C76   A    
H27   N5    S    
C48   C49   A    
H22   N3    S    
C7    N11   S    
C28   C30   A    
H14   N20   S    
C67   C71   S    
C65   C66   A    
C69   C70   A    
H70   N15   S    
H33   N8    S    
C16   O5    A    
O6    Zn2   S    
C40   H12   S    
C79   C80   A    
O5    Zn1   S    
C21   N17   A    
C71   C72   A    
C69   H39   S    
C49   C50   A    
C42   C43   A    
C59   H8    S    
C77   C83   A    
O1    Zn1   S    
N1    N12   D    
H29   N6    S    
C14   N18   S    
C9    N16   A    
C12   O4    A    
