data_mof_unit_62808.cif
_audit_creation_date              2012-12-10T18:21:44-0500
_audit_creation_method            fapswitch 2.2
_symmetry_space_group_name_H-M    P1
_symmetry_Int_Tables_number       1
_space_group_crystal_system       triclinic
_cell_length_a                    35.678664
_cell_length_b                    35.678664
_cell_length_c                    29.383518
_cell_angle_alpha                 90.000012
_cell_angle_beta                  90.000028
_cell_angle_gamma                 90.0
_cell_volume                      37404.2506627

loop_
_atom_site_label
_atom_site_type_symbol
_atom_type_description
_atom_site_fract_x
_atom_site_fract_y
_atom_site_fract_z
_atom_type_partial_charge
C1    C     C_R   1.000000 0.427815 0.500000 0.926122
C2    C     C_R   0.427815 1.000000 0.500000 0.926122
C3    C     C_R   1.000000 0.572185 0.500000 0.926122
C4    C     C_R   0.572185 0.000000 0.500000 0.926122
C5    C     C_R   0.500000 0.927815 0.000000 0.926122
C6    C     C_R   0.927815 0.500000 0.000000 0.926122
C7    C     C_R   0.500000 0.072185 0.000000 0.926122
C8    C     C_R   0.072185 0.500000 0.000000 0.926122
C9    C     C_1   1.000000 0.233411 0.500000 0.016228
C10   C     C_1   0.233411 1.000000 0.500000 0.016228
C11   C     C_1   0.000000 0.766589 0.500000 0.016228
C12   C     C_1   0.766589 1.000000 0.500000 0.016228
C13   C     C_1   0.500000 0.733411 0.000000 0.016228
C14   C     C_1   0.733411 0.500000 0.000000 0.016228
C15   C     C_1   0.500000 0.266589 1.000000 0.016228
C16   C     C_1   0.266588 0.500000 1.000000 0.016228
C17   C     C_1   0.000000 0.267140 0.500000 0.013858
C18   C     C_1   0.267140 1.000000 0.500000 0.013858
C19   C     C_1   0.000000 0.732860 0.500000 0.013858
C20   C     C_1   0.732860 1.000000 0.500000 0.013858
C21   C     C_1   0.500000 0.767140 0.000000 0.013858
C22   C     C_1   0.767140 0.500000 0.000000 0.013858
C23   C     C_1   0.500000 0.232860 1.000000 0.013858
C24   C     C_1   0.232860 0.500000 1.000000 0.013858
C25   C     C_R   0.019663 0.327227 0.534342 0.094195
C26   C     C_R   0.327227 0.980337 0.534342 0.094195
C27   C     C_R   0.980337 0.672773 0.534342 0.094195
C28   C     C_R   0.672773 0.019663 0.534342 0.094195
C29   C     C_R   0.019663 0.672773 0.465658 0.094195
C30   C     C_R   0.327227 0.019663 0.465658 0.094195
C31   C     C_R   0.980337 0.327227 0.465658 0.094195
C32   C     C_R   0.672773 0.980337 0.465658 0.094195
C33   C     C_R   0.519663 0.827227 0.034342 0.094195
C34   C     C_R   0.827227 0.480337 0.034342 0.094195
C35   C     C_R   0.480337 0.172773 0.034342 0.094195
C36   C     C_R   0.172773 0.519663 0.034342 0.094195
C37   C     C_R   0.519663 0.172773 0.965658 0.094195
C38   C     C_R   0.827227 0.519663 0.965658 0.094195
C39   C     C_R   0.480337 0.827227 0.965658 0.094195
C40   C     C_R   0.172773 0.480337 0.965658 0.094195
C41   C     C_R   0.019353 0.366810 0.534381 0.318156
C42   C     C_R   0.366810 0.980647 0.534381 0.318156
C43   C     C_R   0.980647 0.633189 0.534381 0.318155
C44   C     C_R   0.633189 0.019353 0.534381 0.318156
C45   C     C_R   0.019353 0.633189 0.465619 0.318155
C46   C     C_R   0.366810 0.019353 0.465619 0.318157
C47   C     C_R   0.980647 0.366810 0.465619 0.318156
C48   C     C_R   0.633189 0.980647 0.465619 0.318156
C49   C     C_R   0.519353 0.866811 0.034381 0.318155
C50   C     C_R   0.866811 0.480647 0.034381 0.318156
C51   C     C_R   0.480647 0.133189 0.034381 0.318156
C52   C     C_R   0.133189 0.519353 0.034381 0.318156
C53   C     C_R   0.519353 0.133189 0.965619 0.318156
C54   C     C_R   0.866810 0.519353 0.965619 0.318156
C55   C     C_R   0.480647 0.866811 0.965619 0.318156
C56   C     C_R   0.133189 0.480647 0.965619 0.318157
C57   C     C_R   0.000000 0.386481 0.500000 -0.260981
C58   C     C_R   0.386481 1.000000 0.500000 -0.260981
C59   C     C_R   1.000000 0.613519 0.500000 -0.260981
C60   C     C_R   0.613519 0.000000 0.500000 -0.260982
C61   C     C_R   0.500000 0.886481 0.000000 -0.260981
C62   C     C_R   0.886481 0.500000 0.000000 -0.260981
C63   C     C_R   0.500000 0.113519 0.000000 -0.260982
C64   C     C_R   0.113519 0.500000 0.000000 -0.260982
C65   C     C_R   1.000000 0.307688 0.500000 -0.006996
C66   C     C_R   0.307688 1.000000 0.500000 -0.006995
C67   C     C_R   0.000000 0.692312 0.500000 -0.006996
C68   C     C_R   0.692312 0.000000 0.500000 -0.006996
C69   C     C_R   0.500000 0.807688 0.000000 -0.006995
C70   C     C_R   0.807688 0.500000 0.000000 -0.006995
C71   C     C_R   0.500000 0.192312 1.000000 -0.006995
C72   C     C_R   0.192312 0.500000 1.000000 -0.006995
C73   C     C_R   0.072766 1.000000 0.500000 0.983065
C74   C     C_R   1.000000 0.927234 0.500000 0.983066
C75   C     C_R   0.927234 1.000000 0.500000 0.983066
C76   C     C_R   1.000000 0.072766 0.500000 0.983065
C77   C     C_R   0.572766 0.500000 0.000000 0.983065
C78   C     C_R   0.500000 0.427234 0.000000 0.983066
C79   C     C_R   0.427234 0.500000 0.000000 0.983066
C80   C     C_R   0.500000 0.572766 0.000000 0.983065
C81   C     C_R   0.000000 0.500000 0.415265 0.832448
C82   C     C_R   0.500000 0.000000 0.415265 0.832448
C83   C     C_R   1.000000 0.500000 0.584735 0.832447
C84   C     C_R   0.500000 1.000000 0.584735 0.832447
C85   C     C_R   0.500000 0.000000 0.915265 0.832448
C86   C     C_R   1.000000 0.500000 0.915265 0.832448
C87   C     C_R   0.500000 0.000000 0.084735 0.832447
C88   C     C_R   0.000000 0.500000 0.084735 0.832447
C89   C     C_1   1.000000 0.500000 0.364031 -0.100432
C90   C     C_1   0.500000 0.000000 0.364031 -0.100432
C91   C     C_1   0.000000 0.500000 0.635969 -0.100432
C92   C     C_1   0.500000 0.000000 0.635969 -0.100432
C93   C     C_1   0.500000 1.000000 0.864031 -0.100432
C94   C     C_1   1.000000 0.500000 0.864031 -0.100432
C95   C     C_1   0.500000 0.000000 0.135969 -0.100432
C96   C     C_1   1.000000 0.500000 0.135969 -0.100432
C97   C     C_1   1.000000 0.500000 0.321580 0.046953
C98   C     C_1   0.500000 1.000000 0.321580 0.046953
C99   C     C_1   0.000000 0.500000 0.678420 0.046953
C100  C     C_1   0.500000 1.000000 0.678420 0.046953
C101  C     C_1   0.500000 1.000000 0.821580 0.046953
C102  C     C_1   0.000000 0.500000 0.821580 0.046954
C103  C     C_1   0.500000 0.000000 0.178420 0.046953
C104  C     C_1   1.000000 0.500000 0.178420 0.046953
C105  C     C_1   1.000000 0.500000 0.271227 0.042891
C106  C     C_1   0.500000 1.000000 0.271227 0.042891
C107  C     C_1   0.000000 0.500000 0.728773 0.042891
C108  C     C_1   0.500000 0.000000 0.728773 0.042891
C109  C     C_1   0.500000 0.000000 0.771227 0.042891
C110  C     C_1   1.000000 0.500000 0.771227 0.042891
C111  C     C_1   0.500000 0.000000 0.228773 0.042891
C112  C     C_1   1.000000 0.500000 0.228773 0.042891
C113  C     C_R   0.027556 0.173326 0.525101 0.092344
C114  C     C_R   0.173326 0.972444 0.525101 0.092344
C115  C     C_R   0.972444 0.826674 0.525101 0.092344
C116  C     C_R   0.826674 0.027556 0.525101 0.092344
C117  C     C_R   0.027556 0.826674 0.474898 0.092343
C118  C     C_R   0.173326 0.027556 0.474899 0.092344
C119  C     C_R   0.972444 0.173326 0.474899 0.092344
C120  C     C_R   0.826674 0.972444 0.474898 0.092344
C121  C     C_R   0.527556 0.673326 0.025101 0.092344
C122  C     C_R   0.673326 0.472444 0.025101 0.092344
C123  C     C_R   0.472444 0.326674 0.025101 0.092344
C124  C     C_R   0.326674 0.527556 0.025101 0.092344
C125  C     C_R   0.527556 0.326674 0.974899 0.092344
C126  C     C_R   0.673326 0.527556 0.974899 0.092344
C127  C     C_R   0.472444 0.673326 0.974898 0.092344
C128  C     C_R   0.326674 0.472444 0.974898 0.092344
C129  C     C_R   0.027578 0.133745 0.524766 0.337099
C130  C     C_R   0.133745 0.972422 0.524766 0.337099
C131  C     C_R   0.972422 0.866255 0.524766 0.337099
C132  C     C_R   0.866255 0.027578 0.524766 0.337099
C133  C     C_R   0.027578 0.866255 0.475234 0.337100
C134  C     C_R   0.133745 0.027578 0.475234 0.337099
C135  C     C_R   0.972422 0.133745 0.475234 0.337099
C136  C     C_R   0.866255 0.972422 0.475233 0.337099
C137  C     C_R   0.527578 0.633745 0.024766 0.337099
C138  C     C_R   0.633745 0.472422 0.024766 0.337099
C139  C     C_R   0.472422 0.366255 0.024766 0.337099
C140  C     C_R   0.366255 0.527578 0.024766 0.337099
C141  C     C_R   0.527578 0.366255 0.975234 0.337099
C142  C     C_R   0.633745 0.527578 0.975234 0.337099
C143  C     C_R   0.472422 0.633745 0.975234 0.337099
C144  C     C_R   0.366255 0.472422 0.975234 0.337099
C145  C     C_R   1.000000 0.114083 0.500000 -0.254361
C146  C     C_R   0.114083 1.000000 0.500000 -0.254361
C147  C     C_R   0.000000 0.885917 0.500000 -0.254362
C148  C     C_R   0.885917 1.000000 0.500000 -0.254361
C149  C     C_R   0.500000 0.614083 0.000000 -0.254361
C150  C     C_R   0.614083 0.500000 0.000000 -0.254361
C151  C     C_R   0.500000 0.385917 1.000000 -0.254361
C152  C     C_R   0.385917 0.500000 1.000000 -0.254361
C153  C     C_R   1.000000 0.192864 0.500000 -0.005770
C154  C     C_R   0.192864 1.000000 0.500000 -0.005770
C155  C     C_R   0.000000 0.807136 0.500000 -0.005770
C156  C     C_R   0.807136 1.000000 0.500000 -0.005770
C157  C     C_R   0.500000 0.692864 0.000000 -0.005771
C158  C     C_R   0.692864 0.500000 0.000000 -0.005770
C159  C     C_R   0.500000 0.307136 1.000000 -0.005771
C160  C     C_R   0.307136 0.500000 1.000000 -0.005771
Cu1   Cu    Cu3+1 0.962730 0.500000 0.500000 1.090177
Cu2   Cu    Cu3+1 0.500000 0.037270 0.500000 1.090176
Cu3   Cu    Cu3+1 0.037270 0.500000 0.500000 1.090176
Cu4   Cu    Cu3+1 0.500000 0.962730 0.500000 1.090177
Cu5   Cu    Cu3+1 0.462730 0.000000 0.000000 1.090177
Cu6   Cu    Cu3+1 0.000000 0.537270 0.000000 1.090176
Cu7   Cu    Cu3+1 0.537270 0.000000 0.000000 1.090176
Cu8   Cu    Cu3+1 0.000000 0.462730 0.000000 1.090177
Cu9   Cu    Cu3+1 1.000000 0.000000 0.457530 1.159071
Cu10  Cu    Cu3+1 1.000000 1.000000 0.542470 1.159070
Cu11  Cu    Cu3+1 0.500000 0.500000 0.957530 1.159071
Cu12  Cu    Cu3+1 0.500000 0.500000 0.042470 1.159070
O1    O     O_R   0.968530 0.445640 0.500010 -0.546792
O2    O     O_R   0.445640 0.031470 0.500010 -0.546792
O3    O     O_R   0.031470 0.554360 0.500010 -0.546792
O4    O     O_R   0.554360 0.968530 0.500010 -0.546792
O5    O     O_R   0.968530 0.554360 0.499990 -0.546792
O6    O     O_R   0.445640 0.968530 0.499990 -0.546792
O7    O     O_R   0.031470 0.445640 0.499990 -0.546792
O8    O     O_R   0.554360 0.031470 0.499990 -0.546792
O9    O     O_R   0.468530 0.945640 0.000010 -0.546792
O10   O     O_R   0.945640 0.531470 0.000010 -0.546793
O11   O     O_R   0.531470 0.054360 0.000010 -0.546792
O12   O     O_R   0.054360 0.468530 0.000010 -0.546792
O13   O     O_R   0.468530 0.054360 0.999990 -0.546791
O14   O     O_R   0.945640 0.468530 0.999990 -0.546792
O15   O     O_R   0.531470 0.945640 0.999990 -0.546792
O16   O     O_R   0.054360 0.531470 0.999990 -0.546792
O17   O     O_R   0.968530 0.500000 0.438040 -0.553388
O18   O     O_R   0.500000 0.031470 0.438040 -0.553389
O19   O     O_R   0.031470 0.500000 0.438040 -0.553389
O20   O     O_R   0.500000 0.968530 0.438040 -0.553388
O21   O     O_R   0.968530 0.500000 0.561960 -0.553388
O22   O     O_R   0.500000 0.968530 0.561960 -0.553388
O23   O     O_R   0.031470 0.500000 0.561960 -0.553389
O24   O     O_R   0.500000 0.031470 0.561960 -0.553389
O25   O     O_R   0.468530 0.000000 0.938040 -0.553388
O26   O     O_R   1.000000 0.531470 0.938040 -0.553389
O27   O     O_R   0.531470 0.000000 0.938040 -0.553389
O28   O     O_R   0.000000 0.468530 0.938040 -0.553388
O29   O     O_R   0.468530 0.000000 0.061960 -0.553388
O30   O     O_R   1.000000 0.468530 0.061960 -0.553388
O31   O     O_R   0.531470 0.000000 0.061960 -0.553389
O32   O     O_R   1.000000 0.531470 0.061960 -0.553389
O33   O     O_R   0.054260 0.999990 0.464160 -0.551697
O34   O     O_R   0.999990 0.945740 0.464160 -0.551697
O35   O     O_R   0.945740 0.000010 0.464160 -0.551696
O36   O     O_R   0.000010 0.054260 0.464160 -0.551697
O37   O     O_R   0.054260 0.000010 0.535840 -0.551697
O38   O     O_R   0.999990 0.054260 0.535840 -0.551697
O39   O     O_R   0.945740 0.999990 0.535840 -0.551697
O40   O     O_R   0.000010 0.945740 0.535840 -0.551697
O41   O     O_R   0.554260 0.499990 0.964160 -0.551697
O42   O     O_R   0.499990 0.445740 0.964160 -0.551696
O43   O     O_R   0.445740 0.500010 0.964160 -0.551696
O44   O     O_R   0.500010 0.554260 0.964160 -0.551697
O45   O     O_R   0.554260 0.500010 0.035840 -0.551697
O46   O     O_R   0.499990 0.554260 0.035840 -0.551697
O47   O     O_R   0.445740 0.499990 0.035840 -0.551697
O48   O     O_R   0.500010 0.445740 0.035840 -0.551697
C161  C     C_3   0.056554 0.195366 0.551700 -0.711873
H1    H     H_    0.076688 0.177750 0.570699 0.281094
H2    H     H_    0.072953 0.213248 0.528028 0.223838
H3    H     H_    0.042233 0.213579 0.576934 0.217840
C162  C     C_3   0.195366 0.943446 0.551700 -0.711873
H4    H     H_    0.177750 0.923313 0.570700 0.281095
H5    H     H_    0.213248 0.927046 0.528028 0.223838
H6    H     H_    0.213579 0.957767 0.576934 0.217840
C163  C     C_3   0.943446 0.804634 0.551700 -0.711873
H7    H     H_    0.923312 0.822250 0.570700 0.281094
H8    H     H_    0.927046 0.786752 0.528028 0.223838
H9    H     H_    0.957767 0.786421 0.576934 0.217841
C164  C     C_3   0.804634 0.056554 0.551700 -0.711873
H10   H     H_    0.822250 0.076687 0.570700 0.281095
H11   H     H_    0.786752 0.072954 0.528028 0.223839
H12   H     H_    0.786421 0.042233 0.576934 0.217840
C165  C     C_3   0.056554 0.804634 0.448300 -0.711873
H13   H     H_    0.076687 0.822249 0.429300 0.281094
H14   H     H_    0.072954 0.786752 0.471972 0.223838
H15   H     H_    0.042233 0.786421 0.423066 0.217840
C166  C     C_3   0.195366 0.056554 0.448300 -0.711873
H16   H     H_    0.177750 0.076687 0.429300 0.281095
H17   H     H_    0.213248 0.072954 0.471972 0.223839
H18   H     H_    0.213579 0.042233 0.423066 0.217840
C167  C     C_3   0.943446 0.195366 0.448300 -0.711873
H19   H     H_    0.923312 0.177750 0.429300 0.281095
H20   H     H_    0.927046 0.213248 0.471972 0.223839
H21   H     H_    0.957767 0.213579 0.423066 0.217840
C168  C     C_3   0.804634 0.943446 0.448300 -0.711872
H22   H     H_    0.822249 0.923313 0.429300 0.281094
H23   H     H_    0.786752 0.927046 0.471972 0.223838
H24   H     H_    0.786421 0.957767 0.423066 0.217840
C169  C     C_3   0.556554 0.695366 0.051700 -0.711874
H25   H     H_    0.576688 0.677750 0.070700 0.281095
H26   H     H_    0.572954 0.713248 0.028028 0.223839
H27   H     H_    0.542233 0.713579 0.076934 0.217841
C170  C     C_3   0.695366 0.443446 0.051700 -0.711873
H28   H     H_    0.677750 0.423312 0.070700 0.281095
H29   H     H_    0.713248 0.427046 0.028028 0.223838
H30   H     H_    0.713579 0.457767 0.076934 0.217840
C171  C     C_3   0.443446 0.304634 0.051700 -0.711873
H31   H     H_    0.423312 0.322250 0.070699 0.281095
H32   H     H_    0.427046 0.286752 0.028028 0.223839
H33   H     H_    0.457767 0.286421 0.076934 0.217840
C172  C     C_3   0.304634 0.556554 0.051700 -0.711873
H34   H     H_    0.322250 0.576687 0.070700 0.281095
H35   H     H_    0.286752 0.572954 0.028028 0.223839
H36   H     H_    0.286421 0.542233 0.076934 0.217840
C173  C     C_3   0.556554 0.304634 0.948300 -0.711872
H37   H     H_    0.576688 0.322250 0.929300 0.281094
H38   H     H_    0.572954 0.286752 0.971972 0.223838
H39   H     H_    0.542233 0.286421 0.923066 0.217840
C174  C     C_3   0.695366 0.556554 0.948300 -0.711873
H40   H     H_    0.677750 0.576687 0.929300 0.281095
H41   H     H_    0.713248 0.572954 0.971972 0.223839
H42   H     H_    0.713579 0.542233 0.923066 0.217840
C175  C     C_3   0.443446 0.695366 0.948300 -0.711874
H43   H     H_    0.423312 0.677750 0.929300 0.281095
H44   H     H_    0.427046 0.713248 0.971972 0.223839
H45   H     H_    0.457767 0.713579 0.923066 0.217840
C176  C     C_3   0.304634 0.443446 0.948300 -0.711872
H46   H     H_    0.322250 0.423312 0.929300 0.281095
H47   H     H_    0.286752 0.427046 0.971972 0.223838
H48   H     H_    0.286421 0.457767 0.923066 0.217840
Cl1   Cl    Cl    0.063046 0.108238 0.553578 -0.558869
Cl2   Cl    Cl    0.108238 0.936954 0.553578 -0.558869
Cl3   Cl    Cl    0.936954 0.891762 0.553578 -0.558869
Cl4   Cl    Cl    0.891762 0.063046 0.553578 -0.558869
Cl5   Cl    Cl    0.063046 0.891762 0.446422 -0.558869
Cl6   Cl    Cl    0.108238 0.063046 0.446422 -0.558869
Cl7   Cl    Cl    0.936954 0.108238 0.446422 -0.558869
Cl8   Cl    Cl    0.891762 0.936954 0.446421 -0.558868
Cl9   Cl    Cl    0.563046 0.608238 0.053578 -0.558869
Cl10  Cl    Cl    0.608238 0.436954 0.053578 -0.558869
Cl11  Cl    Cl    0.436954 0.391762 0.053578 -0.558869
Cl12  Cl    Cl    0.391762 0.563045 0.053578 -0.558869
Cl13  Cl    Cl    0.563046 0.391762 0.946422 -0.558869
Cl14  Cl    Cl    0.608238 0.563046 0.946422 -0.558869
Cl15  Cl    Cl    0.436954 0.608238 0.946422 -0.558869
Cl16  Cl    Cl    0.391762 0.436954 0.946421 -0.558868
C177  C     C_3   0.040542 0.305187 0.570462 -0.718047
H49   H     H_    0.055480 0.322806 0.595552 0.282325
H50   H     H_    0.020488 0.287302 0.589534 0.222782
H51   H     H_    0.061814 0.286977 0.553965 0.218880
C178  C     C_3   0.305187 0.959458 0.570462 -0.718046
H52   H     H_    0.322806 0.944520 0.595552 0.282325
H53   H     H_    0.287302 0.979512 0.589534 0.222782
H54   H     H_    0.286977 0.938186 0.553965 0.218880
C179  C     C_3   0.959458 0.694813 0.570462 -0.718047
H55   H     H_    0.944520 0.677194 0.595552 0.282324
H56   H     H_    0.979512 0.712698 0.589534 0.222782
H57   H     H_    0.938186 0.713023 0.553965 0.218880
C180  C     C_3   0.694813 0.040542 0.570462 -0.718047
H58   H     H_    0.677194 0.055480 0.595552 0.282325
H59   H     H_    0.712698 0.020488 0.589534 0.222782
H60   H     H_    0.713023 0.061814 0.553965 0.218881
C181  C     C_3   0.040542 0.694813 0.429538 -0.718048
H61   H     H_    0.055480 0.677194 0.404448 0.282325
H62   H     H_    0.020488 0.712698 0.410466 0.222782
H63   H     H_    0.061814 0.713023 0.446035 0.218881
C182  C     C_3   0.305187 0.040542 0.429538 -0.718047
H64   H     H_    0.322806 0.055480 0.404448 0.282325
H65   H     H_    0.287302 0.020488 0.410466 0.222782
H66   H     H_    0.286977 0.061814 0.446035 0.218880
C183  C     C_3   0.959458 0.305187 0.429538 -0.718047
H67   H     H_    0.944520 0.322806 0.404448 0.282325
H68   H     H_    0.979512 0.287302 0.410466 0.222782
H69   H     H_    0.938186 0.286977 0.446035 0.218880
C184  C     C_3   0.694813 0.959458 0.429538 -0.718046
H70   H     H_    0.677194 0.944520 0.404448 0.282325
H71   H     H_    0.712698 0.979512 0.410466 0.222782
H72   H     H_    0.713023 0.938186 0.446035 0.218880
C185  C     C_3   0.540542 0.805187 0.070462 -0.718047
H73   H     H_    0.555480 0.822806 0.095552 0.282324
H74   H     H_    0.520488 0.787302 0.089534 0.222782
H75   H     H_    0.561814 0.786977 0.053965 0.218880
C186  C     C_3   0.805187 0.459458 0.070462 -0.718046
H76   H     H_    0.822806 0.444520 0.095552 0.282325
H77   H     H_    0.787302 0.479512 0.089534 0.222782
H78   H     H_    0.786977 0.438186 0.053965 0.218880
C187  C     C_3   0.459458 0.194813 0.070462 -0.718047
H79   H     H_    0.444520 0.177194 0.095552 0.282324
H80   H     H_    0.479512 0.212698 0.089534 0.222782
H81   H     H_    0.438186 0.213023 0.053965 0.218880
C188  C     C_3   0.194813 0.540542 0.070462 -0.718046
H82   H     H_    0.177194 0.555480 0.095552 0.282324
H83   H     H_    0.212698 0.520488 0.089534 0.222782
H84   H     H_    0.213023 0.561814 0.053965 0.218880
C189  C     C_3   0.540542 0.194813 0.929538 -0.718047
H85   H     H_    0.555480 0.177194 0.904448 0.282324
H86   H     H_    0.520488 0.212698 0.910466 0.222782
H87   H     H_    0.561814 0.213023 0.946035 0.218880
C190  C     C_3   0.805187 0.540542 0.929538 -0.718047
H88   H     H_    0.822806 0.555480 0.904448 0.282325
H89   H     H_    0.787302 0.520488 0.910466 0.222782
H90   H     H_    0.786977 0.561814 0.946035 0.218880
C191  C     C_3   0.459458 0.805187 0.929538 -0.718048
H91   H     H_    0.444520 0.822806 0.904448 0.282325
H92   H     H_    0.479512 0.787302 0.910466 0.222782
H93   H     H_    0.438186 0.786977 0.946035 0.218881
C192  C     C_3   0.194812 0.459458 0.929538 -0.718046
H94   H     H_    0.177194 0.444520 0.904448 0.282325
H95   H     H_    0.212698 0.479512 0.910466 0.222782
H96   H     H_    0.213023 0.438186 0.946035 0.218880
Cl17  Cl    Cl    0.041709 0.392318 0.578506 -0.599257
Cl18  Cl    Cl    0.392318 0.958291 0.578506 -0.599257
Cl19  Cl    Cl    0.958291 0.607682 0.578506 -0.599257
Cl20  Cl    Cl    0.607682 0.041709 0.578506 -0.599257
Cl21  Cl    Cl    0.041709 0.607682 0.421494 -0.599257
Cl22  Cl    Cl    0.392318 0.041709 0.421494 -0.599257
Cl23  Cl    Cl    0.958291 0.392318 0.421494 -0.599257
Cl24  Cl    Cl    0.607682 0.958291 0.421494 -0.599257
Cl25  Cl    Cl    0.541709 0.892318 0.078506 -0.599257
Cl26  Cl    Cl    0.892318 0.458291 0.078506 -0.599257
Cl27  Cl    Cl    0.458291 0.107682 0.078506 -0.599257
Cl28  Cl    Cl    0.107682 0.541709 0.078506 -0.599257
Cl29  Cl    Cl    0.541709 0.107682 0.921494 -0.599257
Cl30  Cl    Cl    0.892318 0.541709 0.921494 -0.599257
Cl31  Cl    Cl    0.458291 0.892318 0.921494 -0.599256
Cl32  Cl    Cl    0.107682 0.458291 0.921494 -0.599257

loop_
_geom_bond_atom_site_label_1
_geom_bond_atom_site_label_2
_ccdc_geom_bond_type
C191  H91   S    
C130  C146  A    
C138  Cl10  S    
C117  C133  A    
C78   O42   A    
C38   C70   A    
C186  H76   S    
C37   C189  S    
C80   O44   A    
C37   C71   A    
C185  H73   S    
C176  H48   S    
Cu1   Cu3   S    
C14   C158  S    
Cu6   O16   S    
Cu9   O33   S    
C185  H75   S    
C174  H42   S    
C108  C109  T    
C75   O35   A    
C116  C164  S    
C127  C157  A    
C140  C152  A    
C129  C145  A    
C118  C166  S    
C33   C69   A    
C97   C105  S    
C179  H56   S    
C117  C165  S    
C119  C153  A    
C141  C151  A    
C53   Cl29  S    
C167  H19   S    
C114  C130  A    
C42   C58   A    
C190  H89   S    
Cu2   Cu4   S    
C134  C146  A    
C192  H96   S    
C30   C182  S    
C168  H23   S    
C143  Cl15  S    
C45   Cl21  S    
C74   C147  S    
C31   C183  S    
C25   C41   A    
C128  C160  A    
Cu7   O15   S    
C177  H49   S    
C28   C44   A    
C29   C45   A    
C133  Cl5   S    
C181  H63   S    
Cu6   O26   S    
C163  H7    S    
C144  Cl16  S    
C79   O47   A    
C75   O39   A    
C12   C20   T    
C2    C58   S    
C122  C158  A    
C13   C21   T    
C127  C143  A    
C28   C180  S    
C188  H84   S    
C47   Cl23  S    
C128  C144  A    
C113  C161  S    
C86   O26   A    
Cu11  O44   S    
C56   Cl32  S    
C105  C112  T    
C191  H93   S    
C96   C104  T    
C35   C51   A    
C107  C110  T    
Cu1   O5    S    
Cu2   O18   S    
C186  H78   S    
Cu12  O46   S    
C171  H32   S    
C177  H51   S    
C76   O38   A    
C31   C65   A    
C45   C59   A    
C20   C68   S    
C77   C150  S    
Cu9   O35   S    
C121  C169  S    
C75   C148  S    
C83   C91   S    
C6    O14   A    
C98   C106  S    
C7    O11   A    
C129  Cl1   S    
C114  C162  S    
C77   O45   A    
C123  C159  A    
C10   C18   T    
C165  H13   S    
C124  C160  A    
Cu8   O30   S    
C83   O23   A    
C116  C156  A    
C143  C149  A    
Cu10  O40   S    
C94   C102  T    
C182  H64   S    
C167  H21   S    
C89   C97   T    
C88   O30   A    
C33   C49   A    
C114  C154  A    
C76   O36   A    
C189  H85   S    
C16   C160  S    
Cu10  O38   S    
Cu6   O10   S    
C130  Cl2   S    
Cu3   O3    S    
C162  H6    S    
C1    O1    A    
C168  H22   S    
C6    O10   A    
C52   Cl28  S    
C73   O37   A    
C28   C68   A    
C163  H9    S    
C169  H25   S    
Cu4   O22   S    
C180  H59   S    
C123  C139  A    
C166  H16   S    
C121  C137  A    
C183  H68   S    
C81   O19   A    
Cu11  O42   S    
C85   C93   S    
C125  C141  A    
C178  H53   S    
C87   C95   S    
C117  C155  A    
C56   C64   A    
C131  C147  A    
C133  C147  A    
C164  H10   S    
Cu2   O8    S    
C118  C134  A    
C43   C59   A    
C37   C53   A    
C141  Cl13  S    
C9    C153  S    
Cu5   Cu7   S    
C175  H43   S    
C46   C58   A    
Cu6   Cu8   S    
C184  H71   S    
C12   C156  S    
C13   C157  S    
C95   C103  T    
C78   C151  S    
C162  H4    S    
C106  C111  T    
C187  H80   S    
C80   C149  S    
C100  C108  S    
Cu8   O14   S    
C5    C61   S    
C26   C66   A    
C104  C112  S    
C40   C56   A    
C21   C69   S    
C36   C188  S    
C83   O21   A    
C161  H1    S    
C1    C57   S    
C47   C57   A    
C122  C170  S    
C116  C132  A    
C182  H66   S    
C4    C60   S    
C39   C69   A    
Cu1   O21   S    
C88   O32   A    
C172  H35   S    
C7    C63   S    
C136  C148  A    
C8    C64   S    
C189  H87   S    
Cu3   O7    S    
Cu4   O6    S    
C24   C72   S    
C73   O33   A    
C168  H24   S    
C40   C72   A    
C166  H18   S    
C30   C46   A    
C171  H33   S    
C34   C186  S    
C176  H47   S    
C36   C52   A    
C170  H30   S    
C14   C22   T    
C175  H44   S    
C54   Cl30  S    
Cu11  O43   S    
C144  C152  A    
C10   C154  S    
C53   C63   A    
C84   O24   A    
C38   C190  S    
C55   C61   A    
C139  C151  A    
C174  H41   S    
C39   C191  S    
C164  H12   S    
C27   C67   A    
C46   Cl22  S    
C35   C71   A    
C165  H15   S    
C32   C184  S    
Cu7   O27   S    
Cu3   O19   S    
C84   C92   S    
C91   C99   T    
Cu4   O20   S    
C22   C70   S    
C36   C72   A    
C79   C152  S    
C88   C96   S    
C190  H88   S    
C77   O41   A    
C8    O16   A    
C192  H95   S    
C11   C19   T    
C44   Cl20  S    
C161  H3    S    
C179  H57   S    
C101  C109  S    
C124  C172  S    
C120  C156  A    
C103  C111  S    
C184  H70   S    
C87   O31   A    
C181  H62   S    
Cu5   O29   S    
C78   O48   A    
C29   C67   A    
C39   C55   A    
C135  C145  A    
C27   C179  S    
C19   C67   S    
Cu7   O31   S    
C188  H83   S    
C34   C70   A    
C81   C89   S    
C185  H74   S    
C191  H92   S    
C31   C47   A    
C173  H37   S    
C32   C48   A    
C4    O8    A    
C5    O9    A    
C186  H77   S    
C7    O13   A    
C177  H50   S    
C49   C61   A    
C23   C71   S    
C51   C63   A    
C120  C168  S    
C122  C138  A    
C52   C64   A    
Cu9   O34   S    
C173  H38   S    
C54   C62   A    
C179  H55   S    
C126  C142  A    
C119  C135  A    
C74   O40   A    
C40   C192  S    
C120  C136  A    
C15   C159  S    
Cu5   O25   S    
C169  H27   S    
Cu1   O1    S    
C38   C54   A    
Cu3   O23   S    
C127  C175  S    
C85   O25   A    
C76   C145  S    
C167  H20   S    
C136  Cl8   S    
C102  C110  S    
C18   C66   S    
C5    O15   A    
C93   C101  T    
C190  H90   S    
Cu8   O28   S    
C82   O20   A    
C124  C140  A    
C134  Cl6   S    
C51   Cl27  S    
C125  C159  A    
C99   C107  S    
C73   C146  S    
C82   C90   S    
C142  C150  A    
C41   C57   A    
C163  H8    S    
C139  Cl11  S    
C180  H58   S    
C171  H31   S    
C43   Cl19  S    
C44   C60   A    
Cu4   O4    S    
C26   C42   A    
C119  C167  S    
C183  H67   S    
C55   Cl31  S    
Cu11  O41   S    
C27   C43   A    
C178  H52   S    
C4    O4    A    
C173  H39   S    
Cu2   O24   S    
C87   O29   A    
Cu12  O45   S    
Cu11  Cu12  S    
Cu9   Cu10  S    
Cu9   O36   S    
C115  C131  A    
C187  H79   S    
C138  C150  A    
C113  C129  A    
C170  H28   S    
C80   O46   A    
C25   C177  S    
C86   C94   S    
C162  H5    S    
C50   Cl26  S    
C85   O27   A    
Cu7   O11   S    
Cu10  O39   S    
C182  H65   S    
C118  C154  A    
C172  H34   S    
C32   C68   A    
C8    O12   A    
C15   C23   T    
C42   Cl18  S    
C16   C24   T    
C121  C157  A    
C82   O18   A    
C35   C187  S    
C33   C185  S    
C128  C176  S    
C48   C60   A    
C126  C158  A    
C34   C50   A    
C132  C148  A    
C25   C65   A    
Cu1   O17   S    
C84   O22   A    
C169  H26   S    
C180  H60   S    
Cu8   O12   S    
C176  H46   S    
Cu5   O13   S    
C125  C173  S    
C166  H17   S    
C183  H69   S    
C142  Cl14  S    
C178  H54   S    
C81   O17   A    
C174  H40   S    
Cu6   O32   S    
C164  H11   S    
C30   C66   A    
Cu12  O47   S    
C9    C17   T    
C137  C149  A    
C126  C174  S    
C165  H14   S    
C50   C62   A    
C184  H72   S    
C175  H45   S    
C92   C100  T    
C74   O34   A    
C187  H81   S    
C3    O3    A    
C115  C155  A    
C49   Cl25  S    
C113  C153  A    
Cu12  O48   S    
C140  Cl12  S    
Cu2   O2    S    
C11   C155  S    
C2    O6    A    
C192  H94   S    
C17   C65   S    
C6    C62   S    
C48   Cl24  S    
Cu5   O9    S    
C137  Cl9   S    
C3    O5    A    
C161  H2    S    
C41   Cl17  S    
C2    O2    A    
C131  Cl3   S    
C1    O7    A    
C132  Cl4   S    
Cu10  O37   S    
C123  C171  S    
C79   O43   A    
C181  H61   S    
C172  H36   S    
C29   C181  S    
C115  C163  S    
C189  H86   S    
C26   C178  S    
C188  H82   S    
C170  H29   S    
C135  Cl7   S    
C90   C98   T    
C86   O28   A    
C3    C59   S    
