data_mof_unit_42024.cif
_audit_creation_date              2012-12-10T18:33:47-0500
_audit_creation_method            fapswitch 2.2
_symmetry_space_group_name_H-M    P1
_symmetry_Int_Tables_number       1
_space_group_crystal_system       triclinic
_cell_length_a                    10.503734
_cell_length_b                    15.031311
_cell_length_c                    15.486395
_cell_angle_alpha                 80.618087
_cell_angle_beta                  90.204865
_cell_angle_gamma                 104.436138
_cell_volume                      2334.43575826

loop_
_atom_site_label
_atom_site_type_symbol
_atom_type_description
_atom_site_fract_x
_atom_site_fract_y
_atom_site_fract_z
_atom_type_partial_charge
C1    C     C_R   0.478708 0.440987 0.661944 0.874763
C2    C     C_R   0.512048 0.488468 0.044897 0.068985
C3    C     C_R   0.513477 0.395579 0.078646 -0.227443
C4    C     C_R   0.484416 0.604329 0.921459 -0.224276
C5    C     C_R   0.516707 0.332463 0.023197 -0.212062
C6    C     C_R   0.481230 0.667425 0.976968 -0.209000
C7    C     C_R   0.716118 0.844996 0.622830 -0.266872
C8    C     C_R   0.284448 0.155155 0.376708 -0.271837
C9    C     C_R   0.678951 0.755663 0.603118 0.015063
C10   C     C_R   0.321352 0.244415 0.396622 0.013804
C11   C     C_R   0.505759 0.793000 0.517711 0.051792
C12   C     C_R   0.521210 0.559016 0.338051 0.875737
C13   C     C_R   0.494154 0.206980 0.482389 0.051911
C14   C     C_R   0.548469 0.887245 0.526385 0.026427
C15   C     C_R   0.451794 0.112805 0.473372 0.028120
C16   C     C_R   0.742260 0.500612 0.500221 0.859939
C17   C     C_R   0.257738 0.499384 0.499787 0.859902
C18   C     C_R   0.648397 0.910418 0.586314 0.085945
C19   C     C_R   0.352161 0.089726 0.413224 0.104054
C20   C     C_R   0.489594 0.957093 0.483152 -0.108160
C21   C     C_R   0.510731 0.042960 0.516518 -0.119214
C22   C     C_R   0.590346 0.054712 0.591047 0.440117
C23   C     C_R   0.429433 0.455077 0.813957 0.131552
C24   C     C_R   0.410166 0.945368 0.408518 0.423717
C25   C     C_R   0.670237 0.994696 0.616310 -0.236478
C26   C     C_R   0.330508 0.005519 0.383090 -0.258149
C27   C     C_3   0.928493 0.417760 0.483169 -0.108793
C28   C     C_3   0.071502 0.582229 0.516854 -0.109167
C29   C     C_3   0.017188 0.430622 0.562128 -0.154395
C30   C     C_3   0.982810 0.569367 0.437895 -0.155690
C31   C     C_3   0.122161 0.499185 0.499729 0.011604
C32   C     C_3   0.877835 0.500805 0.500293 0.011899
C33   C     C_3   0.036149 0.486576 0.420817 -0.190309
C34   C     C_R   0.569583 0.544912 0.185902 0.132900
C35   C     C_3   0.963846 0.513414 0.579206 -0.190299
C36   C     C_R   0.468211 0.403974 0.755363 -0.086957
C37   C     C_R   0.531239 0.596029 0.244635 -0.100713
C38   C     C_R   0.518574 0.297009 0.876734 -0.192161
C39   C     C_R   0.480108 0.702946 0.123490 -0.177329
C40   C     C_R   0.510385 0.324056 0.787140 -0.188772
C41   C     C_R   0.488841 0.675894 0.213027 -0.170809
C42   C     C_3   0.676250 0.494710 0.212079 -0.901652
C43   C     C_3   0.322830 0.505230 0.787436 -0.903281
C44   C     C_R   0.470741 0.442169 0.900908 0.076221
C45   C     C_R   0.527699 0.557780 0.099095 0.078492
C46   C     C_R   0.502331 0.356840 0.933827 0.125517
C47   C     C_R   0.495998 0.643096 0.066298 0.109180
C48   C     C_R   0.486063 0.511455 0.955138 0.067265
H1    H     H_    0.035728 0.374106 0.612464 0.157113
H2    H     H_    0.133405 0.649590 0.530532 0.158430
H3    H     H_    0.070070 0.475427 0.356536 0.143400
H4    H     H_    0.929926 0.524563 0.643487 0.143922
H5    H     H_    0.529490 0.264210 0.050405 0.163726
H6    H     H_    0.468326 0.735660 0.949822 0.164565
H7    H     H_    0.461207 0.716314 0.257527 0.262140
H8    H     H_    0.538235 0.283587 0.742729 0.251802
H9    H     H_    0.546477 0.232955 0.900753 0.154796
H10   H     H_    0.452103 0.767034 0.099682 0.178983
H11   H     H_    0.513398 0.370478 0.147889 0.176090
H12   H     H_    0.964275 0.625886 0.387559 0.154797
H13   H     H_    0.484374 0.629474 0.852239 0.176048
H14   H     H_    0.737734 0.007876 0.668663 0.199564
H15   H     H_    0.263027 0.992392 0.330745 0.171864
H16   H     H_    0.575337 0.107978 0.811303 0.374536
H17   H     H_    0.328708 0.911494 0.211512 0.361158
H18   H     H_    0.635965 0.427115 0.255597 0.253472
H19   H     H_    0.727273 0.482984 0.153907 0.247555
H20   H     H_    0.752823 0.538422 0.247738 0.233670
H21   H     H_    0.271388 0.516905 0.845455 0.247738
H22   H     H_    0.363285 0.572837 0.743977 0.253646
H23   H     H_    0.581795 0.233246 0.515729 0.180471
H24   H     H_    0.246560 0.461509 0.751586 0.234190
H25   H     H_    0.417829 0.766695 0.484686 0.181147
H26   H     H_    0.269087 0.295683 0.370089 0.138237
H27   H     H_    0.731280 0.704411 0.629588 0.137850
H28   H     H_    0.794755 0.862153 0.667489 0.155247
H29   H     H_    0.206031 0.138066 0.331885 0.153605
H30   H     H_    0.866587 0.350400 0.469491 0.158416
N1    N     N_R   0.574200 0.731700 0.552740 -0.117937
N2    N     N_R   0.425800 0.268300 0.447260 -0.117703
O1    O     O_R   0.462600 0.383110 0.605620 -0.574238
O2    O     O_2   0.439150 0.146480 0.664154 -0.320637
O3    O     O_3   0.581023 0.064423 0.770738 -0.550045
O4    O     O_2   0.560737 0.852564 0.336119 -0.289491
O5    O     O_2   0.320502 0.787428 0.343681 -0.398042
O6    O     O_3   0.420631 0.934279 0.228490 -0.540899
O7    O     O_R   0.537400 0.616890 0.394380 -0.574653
O8    O     O_R   0.510210 0.531900 0.639510 -0.621168
O9    O     O_R   0.489790 0.468100 0.360490 -0.620749
O10   O     O_R   0.662240 0.425610 0.483080 -0.624345
O11   O     O_R   0.337760 0.574390 0.516920 -0.623954
O12   O     O_R   0.709860 0.574400 0.516970 -0.624340
O13   O     O_R   0.290140 0.425600 0.483030 -0.624036
O14   O     O_2   0.680061 0.211822 0.656766 -0.377440
S1    S     S_3+6 0.570870 0.123893 0.670115 -0.038467
S2    S     S_3+6 0.429372 0.875622 0.329837 -0.033803
Zn1   Zn    Zn3+2 0.468210 0.400660 0.477370 0.971396
Zn2   Zn    Zn3+2 0.531790 0.599340 0.522630 0.971286

loop_
_geom_bond_atom_site_label_1
_geom_bond_atom_site_label_2
_ccdc_geom_bond_type
C30   C32   S    
C16   O10   A    
C43   H24   S    
N2    Zn1   S    
C27   C29   S    
C34   C37   A    
C22   S1    S    
C14   C18   A    
N1    Zn2   S    
C17   O11   A    
C27   H30   S    
O12   Zn2   S    
H17   O6    S    
C39   C41   A    
C29   H1    S    
C27   C33   S    
C15   C19   A    
C5    H5    S    
C24   C26   A    
C24   S2    S    
C9    N1    A    
O5    S2    D    
C1    O1    A    
C23   C43   S    
O4    S2    D    
C12   C37   S    
C19   C26   A    
C41   H7    S    
C28   H2    S    
C20   C24   A    
C28   C35   S    
C34   C42   S    
C40   H8    S    
C22   C25   A    
C30   H12   S    
C31   C33   S    
O10   Zn1   S    
C30   C33   S    
O7    Zn2   S    
C1    O8    A    
C13   N2    A    
C43   H21   S    
C21   C22   A    
C42   H20   S    
C18   C25   A    
C6    H6    S    
C44   C46   A    
C45   C47   A    
C2    C45   A    
C8    C19   A    
C6    C47   A    
C32   C35   S    
C14   C20   A    
C12   O9    A    
C36   C40   A    
C4    C6    A    
C11   H25   S    
C10   N2    A    
C13   H23   S    
C2    C48   A    
C39   H10   S    
C4    H13   S    
C23   C44   A    
O9    Zn1   S    
C26   H15   S    
H16   O3    S    
C38   H9    S    
C7    C18   A    
O3    S1    S    
C34   C45   A    
O6    S2    S    
C11   N1    A    
C16   O12   A    
C43   H22   S    
C13   C15   A    
C8    H29   S    
C17   C31   S    
C16   C32   S    
O13   Zn1   S    
C39   C47   A    
C4    C48   A    
C7    C9    A    
O2    S1    D    
C12   O7    A    
C27   C32   S    
C28   C31   S    
C3    C5    A    
C7    H28   S    
C33   H3    S    
C5    C46   A    
C29   C35   S    
C28   C30   S    
C2    C3    A    
C29   C31   S    
C38   C40   A    
C10   H26   S    
C42   H19   S    
O1    Zn1   S    
C11   C14   A    
C25   H14   S    
O11   Zn2   S    
C37   C41   A    
O14   S1    D    
C38   C46   A    
C15   C21   A    
C17   O13   A    
C20   C21   A    
C8    C10   A    
C23   C36   A    
C35   H4    S    
C42   H18   S    
C9    H27   S    
O8    Zn2   S    
C44   C48   A    
C1    C36   S    
C3    H11   S    
