data_mof_unit_8356.cif
_audit_creation_date              2012-12-10T18:21:24-0500
_audit_creation_method            fapswitch 2.2
_symmetry_space_group_name_H-M    P1
_symmetry_Int_Tables_number       1
_space_group_crystal_system       triclinic
_cell_length_a                    14.994522
_cell_length_b                    14.105794
_cell_length_c                    10.716137
_cell_angle_alpha                 89.451569
_cell_angle_beta                  87.842367
_cell_angle_gamma                 90.8064
_cell_volume                      2264.6192664

loop_
_atom_site_label
_atom_site_type_symbol
_atom_type_description
_atom_site_fract_x
_atom_site_fract_y
_atom_site_fract_z
_atom_type_partial_charge
C1    C     C_R   0.327103 0.499365 0.498201 0.853832
C2    C     C_R   0.039856 0.364882 0.641461 0.463250
C3    C     C_R   0.090801 0.430892 0.566531 -0.004512
C4    C     C_R   0.501374 0.500452 0.257186 0.911606
C5    C     C_R   0.047402 0.498396 0.492083 -0.039941
C6    C     C_R   0.096979 0.563244 0.414065 0.103491
C7    C     C_R   0.052938 0.628853 0.340074 -0.169338
C8    C     C_R   0.960742 0.630724 0.342483 -0.173289
C9    C     C_R   0.183547 0.433742 0.566994 -0.278902
C10   C     C_R   0.231979 0.497682 0.490113 -0.165077
C11   C     C_R   0.189680 0.560565 0.409435 0.397719
C12   C     C_3   0.588450 0.486777 0.914435 -0.669610
C13   C     C_R   0.541174 0.800219 0.402906 0.567018
C14   C     C_R   0.541356 0.202892 0.402518 0.563718
C15   C     C_R   0.456642 0.797467 0.594542 -0.089475
C16   C     C_R   0.456497 0.199943 0.594342 -0.132765
C17   C     C_R   0.454676 0.897877 0.595377 0.061115
C18   C     C_R   0.454306 0.099584 0.594909 0.061311
C19   C     C_R   0.673218 0.500549 0.499482 0.898891
C20   C     C_R   0.495337 0.949673 0.494855 -0.054610
C21   C     C_R   0.495129 0.050545 0.494451 -0.049602
C22   C     C_R   0.536492 0.900464 0.395299 -0.101961
C23   C     C_R   0.818017 0.566047 0.417071 0.397059
C24   C     C_R   0.537592 0.102383 0.395452 -0.097782
C25   C     C_R   0.412911 0.947540 0.694048 -0.145435
C26   C     C_R   0.412691 0.047273 0.693786 -0.154760
C27   C     C_R   0.577848 0.052744 0.294030 0.339100
C28   C     C_R   0.572847 0.952188 0.290997 0.353932
C29   C     C_R   0.491614 0.499543 0.741683 0.866463
C30   C     C_3   0.452373 0.592199 0.074523 -0.349205
C31   C     C_3   0.438644 0.416063 0.079345 -0.455484
C32   C     C_3   0.451679 0.596215 0.931051 0.785177
C33   C     C_3   0.431181 0.414133 0.935513 0.794999
C34   C     C_R   0.769187 0.501622 0.495420 -0.150533
C35   C     C_3   0.597208 0.491400 0.057923 -0.054737
C36   C     C_3   0.499462 0.500812 0.119868 -0.142796
C37   C     C_3   0.489888 0.499215 0.877977 -0.112362
C38   C     C_2   0.661531 0.573496 0.081747 0.420790
C39   C     C_2   0.640832 0.400626 0.103189 0.375152
C40   C     C_R   0.812065 0.437417 0.571622 -0.264952
C41   C     C_R   0.904412 0.436145 0.571298 0.024047
C42   C     C_R   0.954199 0.500748 0.494536 0.005940
C43   C     C_R   0.910725 0.566930 0.418812 0.097986
C44   C     C_R   0.947259 0.370079 0.645159 -0.177099
H1    H     H_    0.481554 0.658503 0.111115 0.257275
H2    H     H_    0.382602 0.591655 0.113894 0.188473
H3    H     H_    0.371019 0.422548 0.125094 0.207844
H4    H     H_    0.631430 0.541196 0.864421 0.196894
H5    H     H_    0.615297 0.419451 0.876172 0.192914
H6    H     H_    0.773169 0.388458 0.631345 0.170060
H7    H     H_    0.908583 0.320083 0.703421 0.176914
H8    H     H_    0.131049 0.271328 0.666187 0.333750
H9    H     H_    0.293997 0.589541 0.301492 0.333709
H10   H     H_    0.611480 0.695559 0.351808 0.388145
H11   H     H_    0.615320 0.307680 0.348921 0.385824
H12   H     H_    0.463559 0.347231 0.114101 0.200245
H13   H     H_    0.672182 0.064150 0.164950 0.349101
H14   H     H_    0.591774 0.943929 0.110838 0.344025
H15   H     H_    0.362060 0.626074 0.808107 0.345963
H16   H     H_    0.334858 0.413821 0.817608 0.337498
H17   H     H_    0.562033 0.674841 0.918448 0.359343
H18   H     H_    0.515953 0.307748 0.922622 0.315825
H19   H     H_    0.731986 0.565579 0.057167 0.122939
H20   H     H_    0.615403 0.332025 0.075713 0.135884
H21   H     H_    0.723635 0.592661 0.306289 0.352473
H22   H     H_    0.219542 0.388867 0.629661 0.175705
H23   H     H_    0.089436 0.679059 0.279686 0.215077
H24   H     H_    0.928973 0.682068 0.283580 0.217258
H25   H     H_    0.424022 0.757150 0.669962 0.182436
H26   H     H_    0.423692 0.238289 0.669569 0.200207
H27   H     H_    0.380895 0.909238 0.771982 0.162579
H28   H     H_    0.380604 0.083534 0.771624 0.163716
N1    N     N_R   0.500070 0.750030 0.500050 -0.184668
N2    N     N_R   0.500070 0.249970 0.500050 -0.177072
O1    O     O_R   0.367860 0.580280 0.500020 -0.608771
O2    O     O_3   0.236689 0.619420 0.325542 -0.758098
O3    O     O_3   0.591236 0.754389 0.313750 -0.624932
O4    O     O_3   0.587334 0.252725 0.309834 -0.694998
O5    O     O_3   0.622585 0.103016 0.199039 -0.699046
O6    O     O_3   0.600960 0.903716 0.185447 -0.660553
O7    O     O_3   0.362347 0.607847 0.897662 -0.721204
O8    O     O_3   0.340776 0.425468 0.908167 -0.704316
O9    O     O_3   0.501178 0.676588 0.886359 -0.752718
O10   O     O_3   0.457831 0.324940 0.888850 -0.770060
O11   O     O_2   0.637066 0.649457 0.121879 -0.529702
O12   O     O_R   0.367860 0.419720 0.500020 -0.623999
O13   O     O_2   0.704982 0.402591 0.170357 -0.578788
O14   O     O_3   0.777318 0.625840 0.334923 -0.743069
O15   O     O_R   0.500000 0.580270 0.314790 -0.618156
O16   O     O_R   0.500000 0.419730 0.314790 -0.618775
O17   O     O_R   0.632160 0.580270 0.499960 -0.633606
O18   O     O_R   0.632160 0.419730 0.499960 -0.636201
O19   O     O_R   0.500030 0.580270 0.685200 -0.597685
O20   O     O_R   0.500030 0.419730 0.685200 -0.593861
O21   O     O_3   0.077126 0.294337 0.711777 -0.739974
Zn1   Zn    Zn3+2 0.500020 0.607200 0.499990 0.983620
Zn2   Zn    Zn3+2 0.500020 0.392800 0.499990 0.966187

loop_
_geom_bond_atom_site_label_1
_geom_bond_atom_site_label_2
_ccdc_geom_bond_type
C30   C32   S    
C5    C42   A    
C4    C36   S    
C18   C21   A    
C26   H28   S    
C41   C42   A    
H13   O5    S    
C30   H1    S    
C35   C36   S    
C18   C26   A    
C8    C43   A    
C39   O13   D    
C12   H4    S    
C12   H5    S    
C7    C8    A    
C32   O7    S    
C16   N2    A    
C14   N2    A    
C2    O21   S    
C38   H19   S    
C27   O5    S    
C11   O2    S    
C5    C6    A    
C17   C20   A    
C23   C43   A    
H8    O21   S    
C14   C24   A    
C12   C37   S    
O12   Zn2   S    
C9    H22   S    
C19   O18   A    
O17   Zn1   S    
H16   O8    S    
C2    C44   A    
O18   Zn2   S    
C24   C27   A    
C25   H27   S    
C31   H12   S    
C9    C10   A    
O16   Zn2   S    
H14   O6    S    
H10   O3    S    
C31   H3    S    
O1    Zn1   S    
N2    Zn2   S    
C4    O16   A    
C15   H25   S    
C13   O3    S    
C39   H20   S    
C38   O11   D    
C1    O1    A    
C35   C38   S    
C16   H26   S    
H17   O9    S    
C6    C11   A    
H11   O4    S    
O20   Zn2   S    
C25   C26   A    
C33   C37   S    
C35   C39   S    
C3    C9    A    
C23   C34   A    
C31   C33   S    
C32   C37   S    
C12   C35   S    
C44   H7    S    
C40   C41   A    
C15   N1    A    
C20   C22   A    
C8    H24   S    
O19   Zn1   S    
C23   O14   S    
C41   C44   A    
C34   C40   A    
H9    O2    S    
C42   C43   A    
H21   O14   S    
C4    O15   A    
C33   O8    S    
C1    O12   A    
C15   C17   A    
C32   O9    S    
H18   O10   S    
C30   H2    S    
C1    C10   S    
H15   O7    S    
C13   N1    A    
C3    C5    A    
C19   C34   S    
C6    C7    A    
C30   C36   S    
C17   C25   A    
O15   Zn1   S    
C2    C3    A    
C29   O19   A    
C29   O20   A    
C40   H6    S    
C13   C22   A    
C14   O4    S    
C28   O6    S    
C33   O10   S    
C19   O17   A    
C10   C11   A    
C7    H23   S    
C20   C21   A    
C16   C18   A    
C21   C24   A    
C29   C37   S    
C27   C28   A    
C31   C36   S    
C22   C28   A    
N1    Zn1   S    
