data_mof_unit_22986.cif
_audit_creation_date              2012-12-10T17:56:18-0500
_audit_creation_method            fapswitch 2.2
_symmetry_space_group_name_H-M    P1
_symmetry_Int_Tables_number       1
_space_group_crystal_system       triclinic
_cell_length_a                    12.977768
_cell_length_b                    10.832328
_cell_length_c                    9.531997
_cell_angle_alpha                 88.430755
_cell_angle_beta                  96.670436
_cell_angle_gamma                 90.934886
_cell_volume                      1330.31635353

loop_
_atom_site_label
_atom_site_type_symbol
_atom_type_description
_atom_site_fract_x
_atom_site_fract_y
_atom_site_fract_z
_atom_type_partial_charge
C1    C     C_R   0.500910 0.262260 0.502447 0.817957
C2    C     C_R   0.499086 0.737740 0.497551 0.817887
C3    C     C_R   0.494552 0.872088 0.491421 -0.212129
C4    C     C_R   0.505428 0.127911 0.508568 -0.212117
C5    C     C_R   0.426980 0.432901 0.064470 0.368450
C6    C     C_R   0.573030 0.567087 0.935529 0.368445
C7    C     C_R   0.427590 0.433689 0.915331 -0.138388
C8    C     C_R   0.572416 0.566304 0.084670 -0.138316
C9    C     C_R   0.300444 0.500502 0.473303 0.796802
C10   C     C_R   0.699556 0.499509 0.526698 0.796810
C11   C     C_R   0.812390 0.495818 0.541998 -0.050358
C12   C     C_R   0.187610 0.504217 0.458012 -0.050360
C13   C     C_R   0.024504 0.552848 0.319468 -0.208702
C14   C     C_R   0.975498 0.447222 0.680557 -0.208728
C15   C     C_R   0.132021 0.545029 0.330772 -0.201775
C16   C     C_R   0.867982 0.455044 0.669254 -0.201746
C17   C     C_R   0.135262 0.471232 0.574283 -0.251171
C18   C     C_R   0.864739 0.528801 0.425728 -0.251198
C19   C     C_R   0.027906 0.479448 0.564237 0.174860
C20   C     C_R   0.972096 0.520602 0.435781 0.174855
C21   C     C_R   0.573173 0.068284 0.427569 -0.112266
C22   C     C_R   0.426797 0.931715 0.572408 -0.112266
C23   C     C_R   0.563692 0.939513 0.413406 0.237399
C24   C     C_R   0.436275 0.060489 0.586564 0.237432
Cu1   Cu    Cu3+1 0.500000 0.500020 0.640660 0.967906
Cu2   Cu    Cu3+1 0.500000 0.499980 0.359340 0.967960
H1    H     H_    0.821999 0.560652 0.327141 0.148392
H2    H     H_    0.178001 0.439367 0.672865 0.148387
H3    H     H_    0.828229 0.426705 0.758725 0.163159
H4    H     H_    0.171774 0.573404 0.241318 0.163075
H5    H     H_    0.982539 0.584961 0.220587 0.139491
H6    H     H_    0.017465 0.415125 0.779445 0.139489
H7    H     H_    0.370328 0.381126 0.849797 0.162269
H8    H     H_    0.629679 0.618861 0.150210 0.162289
N1    N     N_R   0.500030 0.500030 0.852080 -0.190621
N2    N     N_R   0.499970 0.499970 0.147920 -0.190595
O1    O     O_R   0.499990 0.319660 0.618740 -0.560381
O2    O     O_R   0.500010 0.680340 0.381260 -0.560365
O3    O     O_R   0.499990 0.319630 0.381170 -0.582508
O4    O     O_R   0.500010 0.680370 0.618830 -0.582666
O5    O     O_R   0.349000 0.499990 0.599490 -0.592481
O6    O     O_R   0.651000 0.500010 0.400510 -0.592480
O7    O     O_R   0.348990 0.499960 0.361920 -0.549798
O8    O     O_R   0.651010 0.500040 0.638080 -0.549807
C25   C     C_2   0.657966 0.141811 0.369080 0.384622
H9    H     H_    0.686843 0.225848 0.420267 0.069357
O9    O     O_2   0.695654 0.112115 0.263750 -0.561147
C26   C     C_2   0.342003 0.858181 0.630883 0.384541
H10   H     H_    0.313194 0.774080 0.579770 0.069419
O10   O     O_2   0.304214 0.887959 0.736121 -0.561129
N3    N     N_2   0.624450 0.876083 0.323663 -0.408235
H11   H     H_    0.702881 0.895523 0.339338 0.275829
C27   C     C_3   0.581139 0.877032 0.176297 -0.579716
H12   H     H_    0.507124 0.823562 0.163221 0.230636
H13   H     H_    0.565459 0.972563 0.135190 0.246096
H14   H     H_    0.636572 0.835140 0.111845 0.196289
N4    N     N_2   0.375496 0.123930 0.676271 -0.408221
H15   H     H_    0.297062 0.104519 0.660539 0.275872
C28   C     C_3   0.418758 0.122969 0.823656 -0.579710
H16   H     H_    0.492765 0.176449 0.836784 0.230633
H17   H     H_    0.363294 0.164838 0.888078 0.196286
H18   H     H_    0.434441 0.027434 0.864759 0.246077
N5    N     N_2   0.353748 0.358056 0.128765 -0.375843
H19   H     H_    0.377248 0.268023 0.146855 0.248346
C29   C     C_3   0.246382 0.367669 0.068601 -0.734390
H20   H     H_    0.195614 0.329469 0.145682 0.247710
H21   H     H_    0.231983 0.313976 0.970536 0.202469
H22   H     H_    0.225719 0.465726 0.044655 0.231920
N6    N     N_2   0.646283 0.641903 0.871227 -0.375867
H23   H     H_    0.622725 0.731900 0.852882 0.248446
C30   C     C_3   0.753631 0.632443 0.931522 -0.734553
H24   H     H_    0.804424 0.670581 0.854440 0.247731
H25   H     H_    0.774349 0.534422 0.955673 0.231918
H26   H     H_    0.767935 0.686291 0.029494 0.202525

loop_
_geom_bond_atom_site_label_1
_geom_bond_atom_site_label_2
_ccdc_geom_bond_type
C12   C17   A    
C6    N6    S    
C22   C26   S    
N5    C29   S    
C11   C18   A    
C9    O5    A    
C10   O6    A    
C11   C16   A    
C2    O2    A    
C23   N3    S    
C19   C20   A    
C13   C20   A    
C12   C15   A    
C1    O1    A    
C29   H22   S    
C1    C4    S    
C22   C24   A    
C27   H13   S    
C2    C3    S    
Cu1   Cu2   S    
N6    C30   S    
C30   H24   S    
C8    H8    S    
C25   H9    S    
C27   H14   S    
C4    C21   A    
C7    H7    S    
Cu2   O6    S    
N4    H15   S    
Cu1   N1    S    
C14   C19   A    
Cu1   O8    S    
C26   O10   D    
C26   H10   S    
C17   C19   A    
Cu2   O7    S    
C21   C25   S    
C13   C15   A    
Cu1   O4    S    
C8    N2    A    
N6    H23   S    
C4    C24   A    
C9    C12   S    
C14   C16   A    
Cu2   O3    S    
C9    O7    A    
N4    C28   S    
C28   H17   S    
C10   C11   S    
C1    O3    A    
C10   O8    A    
N5    H19   S    
C5    N2    A    
C2    O4    A    
C28   H16   S    
C6    N1    A    
C5    N5    S    
C18   C20   A    
C30   H25   S    
C29   H20   S    
C15   H4    S    
C25   O9    D    
Cu2   N2    S    
C5    C7    A    
C3    C23   A    
Cu1   O5    S    
C3    C22   A    
C6    C8    A    
C29   H21   S    
C28   H18   S    
C30   H26   S    
Cu1   O1    S    
C16   H3    S    
C27   H12   S    
C17   H2    S    
C7    N1    A    
C21   C23   A    
C13   H5    S    
Cu2   O2    S    
C18   H1    S    
N3    H11   S    
C14   H6    S    
C24   N4    S    
N3    C27   S    
