data_mof_unit_29732.cif
_audit_creation_date              2012-12-11T15:59:40-0500
_audit_creation_method            fapswitch 2.2
_symmetry_space_group_name_H-M    P1
_symmetry_Int_Tables_number       1
_space_group_crystal_system       triclinic
_cell_length_a                    10.704662
_cell_length_b                    10.75612
_cell_length_c                    17.100205
_cell_angle_alpha                 99.565969
_cell_angle_beta                  99.856663
_cell_angle_gamma                 60.691552
_cell_volume                      1683.76105472

loop_
_atom_site_label
_atom_site_type_symbol
_atom_type_description
_atom_site_fract_x
_atom_site_fract_y
_atom_site_fract_z
_atom_type_partial_charge
C1    C     C_R   0.356487 0.768894 0.397735 0.542366
C2    C     C_R   0.856465 0.204441 0.197655 0.030834
C3    C     C_R   0.866925 0.214542 0.281548 0.020099
C4    C     C_R   0.779030 0.471465 0.284452 -0.142562
C5    C     C_R   0.784788 0.459206 0.204054 -0.157250
C6    C     C_R   0.876093 0.072432 0.154950 -0.061370
C7    C     C_R   0.928836 0.950136 0.194245 -0.136877
C8    C     C_R   0.955085 0.958059 0.276918 -0.119273
C9    C     C_R   0.922832 0.089217 0.320580 -0.070270
C10   C     C_R   0.819883 0.350408 0.324029 0.003701
C11   C     C_R   0.355854 0.815081 0.157184 0.004389
C12   C     C_R   0.369330 0.346647 0.357416 0.566062
C13   C     C_R   0.450765 0.846067 0.215699 0.013679
C14   C     C_R   0.436478 0.852652 0.297076 -0.010269
C15   C     C_R   0.282240 0.740445 0.256908 -0.139486
C16   C     C_R   0.282772 0.750492 0.177985 -0.146996
C17   C     C_R   0.559486 0.869532 0.195827 -0.126547
C18   C     C_R   0.643090 0.909767 0.254679 -0.093662
C19   C     C_R   0.621448 0.928607 0.334638 0.123537
C20   C     C_R   0.514350 0.905284 0.355478 -0.080124
C21   C     C_R   0.348930 0.800775 0.317273 0.009689
C22   C     C_R   0.298815 0.278118 0.799576 -0.003500
C23   C     C_R   0.774467 0.378568 0.402991 0.540223
C24   C     C_R   0.424091 0.176755 0.762423 0.036603
C25   C     C_R   0.477830 0.224577 0.712028 0.036432
C26   C     C_R   0.250151 0.447484 0.707310 -0.150295
C27   C     C_R   0.211598 0.412380 0.770551 -0.145394
C28   C     C_R   0.501386 0.030652 0.776988 -0.080250
C29   C     C_R   0.639590 0.942349 0.754444 -0.108389
C30   C     C_R   0.703414 0.998504 0.717134 -0.116801
C31   C     C_R   0.623588 0.138345 0.696131 -0.089854
C32   C     C_R   0.381917 0.353522 0.676615 -0.008627
C33   C     C_1   0.818175 0.342152 0.709023 -0.061390
C34   C     C_R   0.381103 0.715488 0.631591 0.539091
C35   C     C_1   0.845204 0.313936 0.776695 -0.050184
C36   C     C_1   0.358226 0.765313 0.713732 -0.056217
C37   C     C_1   0.325582 0.811860 0.780608 -0.061752
C38   C     C_R   0.891138 0.308602 0.087029 0.546658
C39   C     C_R   0.319415 0.299711 0.120120 0.562566
C40   C     C_R   0.298716 0.886650 0.083916 0.551132
C41   C     C_R   0.886370 0.297435 0.858978 0.547015
C42   C     C_R   0.278733 0.253470 0.877112 0.544787
C43   C     C_R   0.280979 0.881011 0.857708 0.537671
C44   C     C_R   0.407960 0.375090 0.599979 0.529950
C45   C     C_R   0.773387 0.380702 0.629786 0.534876
C46   C     C_1   0.342958 0.336751 0.274082 -0.035505
C47   C     C_1   0.331999 0.326432 0.203347 -0.036055
C48   C     C_R   0.829797 0.326114 0.160394 -0.002073
Cr1   Cr    Cr6+3 0.608100 0.610860 0.522250 1.012870
Cr2   Cr    Cr6+3 0.288890 0.599990 0.488420 1.007121
Cr3   Cr    Cr6+3 0.603040 0.289190 0.489390 1.011471
Cr4   Cr    Cr6+3 0.053960 0.052250 0.967380 1.015382
Cr5   Cr    Cr6+3 0.059890 0.373160 0.992710 1.013420
Cr6   Cr    Cr6+3 0.373370 0.061690 0.991710 1.001344
H1    H     H_    0.739237 0.578201 0.315263 0.156174
H2    H     H_    0.724908 0.926302 0.237524 0.137403
H3    H     H_    0.494841 0.926372 0.417449 0.132938
H4    H     H_    0.177051 0.548158 0.682551 0.143573
H5    H     H_    0.456174 0.984289 0.806345 0.151402
H6    H     H_    0.114132 0.490374 0.796874 0.144815
H7    H     H_    0.698316 0.831810 0.767970 0.121631
H8    H     H_    0.813183 0.932797 0.702460 0.119123
H9    H     H_    0.676633 0.177111 0.666715 0.152814
H10   H     H_    0.847034 0.062111 0.091474 0.140690
H11   H     H_    0.760394 0.553546 0.176616 0.136451
H12   H     H_    0.946336 0.849357 0.160594 0.099531
H13   H     H_    0.994656 0.863346 0.307495 0.123133
H14   H     H_    0.943388 0.091361 0.384857 0.134675
H15   H     H_    0.227043 0.686154 0.270446 0.137176
H16   H     H_    0.587438 0.849141 0.135547 0.136974
H17   H     H_    0.217920 0.716161 0.133441 0.132922
O1    O     O_R   0.749810 0.499790 0.438040 -0.520967
O2    O     O_R   0.298970 0.468800 0.557390 -0.503203
O3    O     O_R   0.489400 0.255930 0.561910 -0.518580
O4    O     O_R   0.723890 0.306050 0.584610 -0.535620
O5    O     O_3   0.500010 0.500010 0.500020 -0.283486
O6    O     O_R   0.171100 0.914680 0.053100 -0.514355
O7    O     O_R   0.941680 0.184840 0.050710 -0.509442
O8    O     O_R   0.922080 0.403420 0.072610 -0.518047
O9    O     O_R   0.196880 0.369150 0.083850 -0.496084
O10   O     O_R   0.411730 0.181020 0.091530 -0.506649
O11   O     O_R   0.365010 0.944360 0.063320 -0.510390
O12   O     O_R   0.477660 0.726260 0.439290 -0.503559
O13   O     O_R   0.159380 0.906670 0.876210 -0.501953
O14   O     O_R   0.930820 0.177420 0.886730 -0.493208
O15   O     O_R   0.910360 0.395420 0.895720 -0.523490
O16   O     O_R   0.186010 0.361730 0.919870 -0.497684
O17   O     O_R   0.400000 0.173010 0.914630 -0.516197
O18   O     O_R   0.354140 0.936940 0.899340 -0.536737
O19   O     O_3   0.162410 0.162370 0.983930 -0.261794
O20   O     O_R   0.260150 0.743000 0.412270 -0.527156
O21   O     O_R   0.297740 0.466550 0.394720 -0.504127
O22   O     O_R   0.488080 0.253500 0.386430 -0.470344
O23   O     O_R   0.722670 0.303800 0.421940 -0.486987
O24   O     O_R   0.751130 0.502220 0.613520 -0.507788
O25   O     O_R   0.478890 0.728510 0.601960 -0.483721
O26   O     O_R   0.261470 0.745430 0.587750 -0.510699
N1    N     N_3   0.711825 0.967376 0.394079 -0.578357
H18   H     H_    0.679543 0.981805 0.450714 0.228847
H19   H     H_    0.815942 0.880795 0.394817 0.198352

loop_
_geom_bond_atom_site_label_1
_geom_bond_atom_site_label_2
_ccdc_geom_bond_type
C25   C31   A    
C1    C21   S    
C33   C45   S    
Cr4   O19   S    
C19   C20   A    
Cr3   O3    S    
C7    C8    A    
C26   C32   A    
C41   O15   A    
C28   C29   A    
C26   C27   A    
C43   O18   A    
C14   C21   A    
C36   C37   T    
Cr5   O8    S    
C34   O25   A    
Cr6   O19   S    
C27   H6    S    
C30   C31   A    
C38   O8    A    
C15   C16   A    
C34   O26   A    
C14   C20   A    
C18   C19   A    
C6    H10   S    
Cr4   O13   S    
C8    C9    A    
Cr1   O1    S    
Cr5   O15   S    
C38   C48   S    
C18   H2    S    
C25   C32   A    
C17   H16   S    
C1    O20   A    
C13   C14   A    
C43   O13   A    
C2    C6    A    
C16   H17   S    
Cr4   O7    S    
C19   N1    S    
C15   H15   S    
C5    C48   A    
C29   H7    S    
C40   O11   A    
Cr5   O9    S    
Cr3   O5    S    
C39   O10   A    
Cr6   O18   S    
C5    H11   S    
Cr2   O2    S    
C38   O7    A    
C2    C48   A    
Cr1   O24   S    
C12   C46   S    
C37   C43   S    
C29   C30   A    
C3    C9    A    
Cr2   O5    S    
C11   C16   A    
C17   C18   A    
C32   C44   S    
Cr1   O5    S    
Cr5   O16   S    
C24   C25   A    
C44   O3    A    
C26   H4    S    
Cr3   O22   S    
Cr2   O21   S    
N1    H19   S    
C22   C27   A    
C30   H8    S    
C4    H1    S    
C22   C24   A    
C12   O22   A    
C42   O17   A    
C4    C10   A    
Cr4   O6    S    
C45   O24   A    
Cr6   O11   S    
C39   C47   S    
C28   H5    S    
C44   O2    A    
C46   C47   T    
Cr4   O14   S    
Cr2   O26   S    
C23   O1    A    
C12   O21   A    
C24   C28   A    
Cr3   O4    S    
C4    C5    A    
C6    C7    A    
C10   C23   S    
C1    O12   A    
C31   H9    S    
C41   O14   A    
C23   O23   A    
C13   C17   A    
C45   O4    A    
C39   O9    A    
Cr1   O12   S    
C2    C3    A    
C9    H14   S    
C3    C10   A    
C7    H12   S    
Cr6   O17   S    
C11   C13   A    
C22   C42   S    
C33   C35   T    
C34   C36   S    
Cr1   O25   S    
C11   C40   S    
C35   C41   S    
Cr3   O23   S    
Cr2   O20   S    
C15   C21   A    
C8    H13   S    
N1    H18   S    
Cr5   O19   S    
C40   O6    A    
C42   O16   A    
C20   H3    S    
Cr6   O10   S    
