data_mof_unit_26649.cif
_audit_creation_date              2012-12-11T15:36:50-0500
_audit_creation_method            fapswitch 2.2
_symmetry_space_group_name_H-M    P1
_symmetry_Int_Tables_number       1
_space_group_crystal_system       triclinic
_cell_length_a                    15.044689
_cell_length_b                    15.059149
_cell_length_c                    34.86605
_cell_angle_alpha                 91.253845
_cell_angle_beta                  91.792698
_cell_angle_gamma                 60.098505
_cell_volume                      6844.208067

loop_
_atom_site_label
_atom_site_type_symbol
_atom_type_description
_atom_site_fract_x
_atom_site_fract_y
_atom_site_fract_z
_atom_type_partial_charge
C1    C     C_R   0.610656 0.302681 0.443873 0.541919
C2    C     C_R   0.724787 0.660595 0.177351 0.013659
C3    C     C_R   0.630861 0.128317 0.827550 -0.014190
C4    C     C_R   0.689527 0.161879 0.849372 0.020576
C5    C     C_R   0.711320 0.134473 0.888149 -0.084214
C6    C     C_R   0.536248 0.206284 0.766248 -0.114067
C7    C     C_R   0.536123 0.217019 0.726550 -0.094039
C8    C     C_R   0.625175 0.154886 0.705704 0.033806
C9    C     C_R   0.713664 0.080772 0.725002 -0.112762
C10   C     C_R   0.713863 0.070414 0.764630 -0.115081
C11   C     C_R   0.625755 0.134210 0.785448 0.005100
C12   C     C_R   0.553913 0.180217 0.637724 -0.009016
C13   C     C_R   0.818400 0.610094 0.158535 -0.136645
C14   C     C_R   0.551254 0.214645 0.600535 -0.127311
C15   C     C_R   0.701507 0.229768 0.615484 -0.124854
C16   C     C_R   0.704341 0.195917 0.652633 -0.134250
C17   C     C_R   0.628708 0.174515 0.664578 0.011389
C18   C     C_R   0.622625 0.243224 0.589573 0.005207
C19   C     C_R   0.046160 0.738968 0.048355 0.514573
C20   C     C_R   0.746956 0.745868 0.063744 0.546797
C21   C     C_R   0.750989 0.040677 0.050567 0.542846
C22   C     C_R   0.017434 0.722344 0.939882 0.545154
C23   C     C_R   0.717074 0.730260 0.954853 0.540100
C24   C     C_R   0.824521 0.634011 0.120748 -0.127931
C25   C     C_R   0.721421 0.024374 0.942023 0.542114
C26   C     C_R   0.659816 0.606428 0.231584 -0.117483
C27   C     C_R   0.648113 0.600422 0.270925 0.056802
C28   C     C_R   0.700844 0.632475 0.297174 0.076990
C29   C     C_R   0.768595 0.662481 0.283765 -0.102267
C30   C     C_R   0.779748 0.667311 0.244570 -0.096207
C31   C     C_R   0.723065 0.642250 0.218419 0.022213
C32   C     C_R   0.589897 0.722684 0.353640 0.049758
C33   C     C_R   0.593114 0.610034 0.449307 0.547329
C34   C     C_R   0.565752 0.715486 0.391473 -0.138289
C35   C     C_R   0.725706 0.555624 0.399544 -0.113933
C36   C     C_R   0.750732 0.561599 0.362027 -0.114901
C37   C     C_R   0.681458 0.641719 0.338404 0.083205
C38   C     C_R   0.630843 0.629927 0.413935 0.021067
C39   C     C_R   0.099544 0.732373 0.085320 -0.014704
C40   C     C_R   0.174893 0.637934 0.101387 0.005895
C41   C     C_R   0.199280 0.634141 0.140866 -0.075490
C42   C     C_R   0.149572 0.722202 0.163947 -0.000299
C43   C     C_R   0.082209 0.816393 0.147141 -0.125098
C44   C     C_R   0.304210 0.591449 0.442285 0.543154
C45   C     C_R   0.058335 0.821628 0.108185 -0.129853
C46   C     C_R   0.256978 0.671521 0.224049 -0.081564
C47   C     C_R   0.265876 0.662682 0.263871 -0.075865
C48   C     C_R   0.178603 0.694226 0.285954 0.009446
C49   C     C_R   0.080964 0.738196 0.267948 -0.001520
C50   C     C_R   0.072274 0.748792 0.228058 -0.119428
C51   C     C_R   0.160163 0.714617 0.205966 0.011231
C52   C     C_R   0.190218 0.595575 0.343952 -0.092877
C53   C     C_R   0.219964 0.570672 0.382357 -0.120511
C54   C     C_R   0.247625 0.715945 0.388620 -0.114814
C55   C     C_R   0.605717 0.300114 0.553649 0.542295
C56   C     C_R   0.219043 0.739909 0.350217 -0.111644
C57   C     C_R   0.192627 0.678462 0.327576 0.035035
C58   C     C_R   0.251986 0.628883 0.404728 0.020676
C59   C     C_R   0.722402 0.100436 0.086484 0.008719
C60   C     C_R   0.795618 0.113542 0.107857 -0.133551
C61   C     C_R   0.778196 0.144922 0.146087 -0.135808
C62   C     C_R   0.687085 0.164636 0.163387 0.008229
C63   C     C_R   0.609532 0.160130 0.141031 -0.000093
C64   C     C_R   0.627591 0.128639 0.102743 -0.112373
C65   C     C_R   0.596441 0.264246 0.221576 -0.065282
C66   C     C_R   0.588756 0.607132 0.559018 0.518135
C67   C     C_R   0.585978 0.274257 0.261527 0.035721
C68   C     C_R   0.661062 0.195709 0.285256 -0.003308
C69   C     C_R   0.744915 0.110791 0.268719 -0.111357
C70   C     C_R   0.753977 0.101980 0.229084 -0.113357
C71   C     C_R   0.679456 0.178187 0.205333 -0.002648
C72   C     C_R   0.733098 0.208957 0.348443 -0.109818
C73   C     C_R   0.721486 0.232004 0.387393 -0.118915
C74   C     C_R   0.559097 0.233094 0.385259 -0.022025
C75   C     C_R   0.572132 0.209114 0.346093 -0.124456
C76   C     C_R   0.656111 0.202611 0.327317 0.000088
C77   C     C_R   0.298056 0.589139 0.551923 0.538221
C78   C     C_R   0.631915 0.250398 0.405959 0.008794
C79   C     C_R   0.690544 0.690480 0.919860 -0.007737
C80   C     C_R   0.759046 0.592537 0.905500 -0.089685
C81   C     C_R   0.746898 0.563634 0.867887 0.013171
C82   C     C_R   0.665866 0.635964 0.844132 -0.009465
C83   C     C_R   0.592454 0.729765 0.860004 -0.122082
C84   C     C_R   0.604199 0.756469 0.897488 -0.129046
C85   C     C_R   0.571484 0.646213 0.782330 -0.104342
C86   C     C_R   0.566396 0.647410 0.742264 -0.102249
C87   C     C_R   0.653366 0.624680 0.721188 0.026132
C88   C     C_R   0.737160 0.709905 0.101356 0.005922
C89   C     C_R   0.745759 0.599578 0.740676 -0.105530
C90   C     C_R   0.750404 0.600049 0.780694 -0.120537
C91   C     C_R   0.663442 0.623065 0.801916 0.002172
C92   C     C_R   0.718518 0.543873 0.657548 -0.128623
C93   C     C_R   0.707491 0.541161 0.617675 -0.026791
C94   C     C_R   0.559852 0.714561 0.619664 -0.005669
C95   C     C_R   0.570781 0.713434 0.659854 -0.087488
C96   C     C_R   0.647348 0.627249 0.678889 -0.017669
C97   C     C_R   0.622528 0.623567 0.598226 -0.039218
C98   C     C_R   0.071152 0.697179 0.903412 0.011413
C99   C     C_R   0.642495 0.757882 0.119670 -0.127344
C100  C     C_R   0.106994 0.760181 0.889567 -0.151927
C101  C     C_R   0.144434 0.746875 0.852414 0.020719
C102  C     C_R   0.142503 0.670615 0.828479 0.037225
C103  C     C_R   0.113505 0.603301 0.843424 -0.148826
C104  C     C_R   0.078614 0.616056 0.880680 -0.126102
C105  C     C_R   0.229512 0.577063 0.769196 -0.103312
C106  C     C_R   0.237561 0.572562 0.729477 -0.111685
C107  C     C_R   0.172378 0.658373 0.707045 0.030007
C108  C     C_R   0.099649 0.749059 0.724868 -0.104548
C109  C     C_R   0.091322 0.753352 0.764613 -0.062469
C110  C     C_R   0.635655 0.733756 0.157496 -0.001778
C111  C     C_R   0.156650 0.667563 0.786927 0.077634
C112  C     C_R   0.190271 0.729316 0.645709 -0.114823
C113  C     C_R   0.218734 0.715224 0.607268 -0.024704
C114  C     C_R   0.222586 0.551777 0.607008 -0.130578
C115  C     C_R   0.194423 0.566560 0.645128 -0.126902
C116  C     C_R   0.183006 0.652843 0.665198 0.012964
C117  C     C_R   0.241179 0.622462 0.588159 0.002462
C118  C     C_R   0.675452 0.075065 0.905225 -0.007998
C119  C     C_R   0.609460 0.050611 0.884176 -0.132349
C120  C     C_R   0.587640 0.076837 0.845513 -0.125627
Cr1   Cr    Cr6+3 0.426010 0.422500 0.497000 1.053224
Cr2   Cr    Cr6+3 0.651300 0.426310 0.501970 1.054130
Cr3   Cr    Cr6+3 0.422670 0.651170 0.501050 1.048363
Cr4   Cr    Cr6+3 0.905130 0.911420 0.992650 1.029215
Cr5   Cr    Cr6+3 0.911860 0.682710 0.002320 1.034431
Cr6   Cr    Cr6+3 0.682710 0.906840 0.004710 1.029322
H1    H     H_    0.574515 0.816585 0.104963 0.139112
H2    H     H_    0.493079 0.774050 0.402645 0.112885
H3    H     H_    0.887340 0.553980 0.173515 0.125217
H4    H     H_    0.777775 0.489307 0.416395 0.131150
H5    H     H_    0.000504 0.894793 0.096692 0.137367
H6    H     H_    0.221461 0.803899 0.337724 0.115990
H7    H     H_    0.341154 0.629652 0.277575 0.158604
H8    H     H_    0.325330 0.645253 0.207376 0.127285
H9    H     H_    0.253119 0.561809 0.154110 0.172738
H10   H     H_    0.898598 0.596262 0.107334 0.147102
H11   H     H_    0.997210 0.781935 0.214059 0.110397
H12   H     H_    0.170389 0.547295 0.326496 0.130227
H13   H     H_    0.222913 0.503051 0.393904 0.146608
H14   H     H_    0.044203 0.885240 0.164579 0.115239
H15   H     H_    0.272069 0.762268 0.404993 0.132504
H16   H     H_    0.869273 0.092514 0.095983 0.131746
H17   H     H_    0.570031 0.119656 0.086372 0.138882
H18   H     H_    0.514307 0.200601 0.329699 0.133563
H19   H     H_    0.540389 0.323705 0.202906 0.161794
H20   H     H_    0.821263 0.500029 0.350577 0.110811
H21   H     H_    0.838110 0.148797 0.162813 0.118081
H22   H     H_    0.803045 0.050711 0.286618 0.138902
H23   H     H_    0.818311 0.034686 0.216860 0.114434
H24   H     H_    0.799408 0.202080 0.334313 0.119405
H25   H     H_    0.779941 0.242436 0.402272 0.140757
H26   H     H_    0.824193 0.540167 0.923146 0.170947
H27   H     H_    0.549715 0.832353 0.907780 0.135402
H28   H     H_    0.520422 0.780606 0.676586 0.168601
H29   H     H_    0.494591 0.666130 0.727667 0.129557
H30   H     H_    0.503217 0.665233 0.798078 0.145971
H31   H     H_    0.813403 0.582723 0.724916 0.113351
H32   H     H_    0.821220 0.585361 0.795113 0.112551
H33   H     H_    0.780629 0.478651 0.672242 0.118601
H34   H     H_    0.529641 0.786042 0.842449 0.129021
H35   H     H_    0.104218 0.821076 0.907587 0.114809
H36   H     H_    0.617969 0.585252 0.210972 0.095818
H37   H     H_    0.051556 0.566389 0.890790 0.151169
H38   H     H_    0.186171 0.508088 0.659500 0.118971
H39   H     H_    0.295327 0.502309 0.716264 0.105980
H40   H     H_    0.279754 0.510123 0.786113 0.106980
H41   H     H_    0.048364 0.815714 0.708020 0.104068
H42   H     H_    0.033145 0.823063 0.777999 0.109900
H43   H     H_    0.179422 0.797334 0.661038 0.128036
H44   H     H_    0.111974 0.544492 0.825406 0.118932
H45   H     H_    0.236470 0.481025 0.593187 0.147367
H46   H     H_    0.581284 0.004387 0.896686 0.131621
H47   H     H_    0.760597 0.155139 0.904694 0.179792
H48   H     H_    0.762590 0.191820 0.672764 0.119974
H49   H     H_    0.467776 0.276317 0.712308 0.110596
H50   H     H_    0.468071 0.256387 0.782122 0.112657
H51   H     H_    0.542490 0.051074 0.828944 0.129027
H52   H     H_    0.783121 0.032584 0.709481 0.109737
H53   H     H_    0.783494 0.014430 0.779288 0.115243
H54   H     H_    0.809616 0.686118 0.303728 0.142224
H55   H     H_    0.490889 0.222863 0.580589 0.135022
H56   H     H_    0.757476 0.251193 0.607865 0.157412
H57   H     H_    0.829118 0.694866 0.234606 0.124559
O1    O     O_R   0.324990 0.503440 0.453910 -0.501576
O2    O     O_R   0.639980 0.519500 0.542640 -0.479348
O3    O     O_R   0.500750 0.673190 0.545480 -0.517515
O4    O     O_R   0.336260 0.640450 0.538210 -0.483613
O5    O     O_3   0.499990 0.499990 0.500010 -0.249979
O6    O     O_R   0.834210 0.019400 0.034570 -0.516976
O7    O     O_R   0.002210 0.824620 0.031030 -0.499060
O8    O     O_R   0.024400 0.669340 0.039790 -0.517565
O9    O     O_R   0.830490 0.694950 0.045870 -0.497974
O10   O     O_R   0.675430 0.831160 0.051290 -0.513240
O11   O     O_R   0.698870 0.998880 0.039560 -0.499454
O12   O     O_R   0.522030 0.339050 0.458320 -0.482962
O13   O     O_R   0.811290 0.006780 0.950620 -0.509702
O14   O     O_R   0.980960 0.812920 0.953200 -0.498491
O15   O     O_R   0.001480 0.656720 0.955830 -0.513391
O16   O     O_R   0.809240 0.683250 0.968050 -0.499333
O17   O     O_R   0.652500 0.818540 0.967340 -0.516192
O18   O     O_R   0.677620 0.987170 0.961730 -0.498086
O19   O     O_3   0.833240 0.833660 0.999890 -0.243096
O20   O     O_R   0.676180 0.324490 0.458320 -0.517562
O21   O     O_R   0.643570 0.521510 0.464260 -0.500340
O22   O     O_R   0.504630 0.675350 0.460920 -0.518684
O23   O     O_R   0.339850 0.642450 0.459830 -0.502681
O24   O     O_R   0.321120 0.501280 0.538470 -0.518526
O25   O     O_R   0.518440 0.337050 0.536710 -0.502873
O26   O     O_R   0.672300 0.322330 0.542880 -0.497962
C121  C     C_2   0.227536 0.543562 0.077564 0.236732
H58   H     H_    0.217226 0.547254 0.046602 0.125588
O27   O     O_2   0.284327 0.460417 0.092189 -0.501182
C122  C     C_1   0.989221 0.773781 0.289822 0.171884
N1    N     N_1   0.915666 0.802483 0.307357 -0.316185
C123  C     C_2   0.498452 0.368035 0.277765 0.213392
H59   H     H_    0.497616 0.386968 0.307974 0.146226
O28   O     O_2   0.425646 0.425854 0.257384 -0.535911
C124  C     C_1   0.514943 0.177991 0.157448 0.214253
N2    N     N_1   0.439178 0.192274 0.170589 -0.243469
C125  C     C_1   0.468377 0.243520 0.402568 0.219021
N3    N     N_1   0.395567 0.251865 0.416349 -0.289437
C126  C     C_2   0.579109 0.562149 0.282711 0.209064
H60   H     H_    0.533419 0.548988 0.261060 0.113019
O29   O     O_2   0.573510 0.542756 0.316053 -0.522852
C127  C     C_2   0.818968 0.458692 0.853781 0.249525
H61   H     H_    0.804822 0.432064 0.826349 0.138961
O30   O     O_2   0.894588 0.400070 0.872824 -0.483515
C128  C     C_1   0.784546 0.451230 0.598062 0.216657
N4    N     N_1   0.846532 0.379154 0.582476 -0.286312
C129  C     C_2   0.485289 0.812652 0.601002 0.265279
H62   H     H_    0.493070 0.826053 0.571191 0.135062
O31   O     O_2   0.415702 0.881146 0.619049 -0.478991
C130  C     C_2   0.184153 0.814136 0.840094 0.214432
H63   H     H_    0.167767 0.882003 0.856859 0.111533
O32   O     O_2   0.238247 0.793254 0.812165 -0.506289
C131  C     C_1   0.227427 0.795608 0.588982 0.235228
N5    N     N_1   0.234173 0.860186 0.574355 -0.240001
C132  C     C_1   0.537939 0.789580 0.176014 0.210453
N6    N     N_1   0.459714 0.834236 0.190871 -0.257722
C133  C     C_1   0.478756 0.152157 0.647720 0.188060
N7    N     N_1   0.418565 0.129622 0.655721 -0.254980
C134  C     C_2   0.730833 0.222457 0.831721 0.214765
H64   H     H_    0.711553 0.247376 0.802164 0.115971
O33   O     O_2   0.786565 0.246001 0.850082 -0.493934
C135  C     C_2   0.515068 0.813214 0.330987 0.234504
H65   H     H_    0.440885 0.866040 0.342849 0.098827
O34   O     O_2   0.535135 0.831555 0.299501 -0.479711

loop_
_geom_bond_atom_site_label_1
_geom_bond_atom_site_label_2
_ccdc_geom_bond_type
C113  C131  S    
C135  O34   D    
C101  C102  A    
C22   C98   S    
C53   C58   A    
C49   C122  S    
C15   C18   A    
C41   C42   A    
C14   C18   A    
C22   O14   A    
C67   C123  S    
C95   C96   A    
Cr6   O10   S    
C41   H9    S    
C72   C76   A    
C25   C118  S    
C104  H37   S    
Cr4   O7    S    
C114  C115  A    
C85   C91   A    
C50   H11   S    
C124  N2    T    
C7    C8    A    
C85   C86   A    
C56   C57   A    
C55   O25   A    
C33   O22   A    
C59   C64   A    
C29   C30   A    
C81   C127  S    
C92   H33   S    
C10   H53   S    
C63   C124  S    
C92   C93   A    
C28   C29   A    
C1    O12   A    
C127  H61   S    
C21   C59   S    
C77   C117  S    
C77   O24   A    
C54   C58   A    
C79   C84   A    
C80   C81   A    
C98   C104  A    
C55   O26   A    
C106  C107  A    
Cr6   O17   S    
C15   C16   A    
C15   H56   S    
C23   O16   A    
C92   C96   A    
C108  C109  A    
Cr3   O22   S    
C30   H57   S    
Cr2   O21   S    
C115  H38   S    
C2    C13   A    
C118  C119  A    
C125  N3    T    
C109  C111  A    
C60   H16   S    
C132  N6    T    
Cr2   O5    S    
C2    C110  A    
C83   H34   S    
C35   C36   A    
C44   C58   S    
C16   C17   A    
C65   C67   A    
C29   H54   S    
C7    H49   S    
C12   C17   A    
C103  H44   S    
C52   H12   S    
C107  C108  A    
C100  H35   S    
C21   O11   A    
C130  H63   S    
C44   O1    A    
C66   C97   S    
C119  H46   S    
C39   C45   A    
C24   H10   S    
C105  H40   S    
C105  C111  A    
C59   C60   A    
C34   C38   A    
C135  H65   S    
C73   H25   S    
C1    C78   S    
C102  C111  S    
C69   C70   A    
C70   H23   S    
C4    C134  S    
Cr4   O6    S    
C81   C82   A    
Cr6   O18   S    
C114  H45   S    
C54   C56   A    
Cr5   O19   S    
C74   C75   A    
C63   C64   A    
C102  C103  A    
C114  C117  A    
C106  H39   S    
C48   C57   S    
C35   C38   A    
C3    C11   S    
C131  N5    T    
C10   C11   A    
C134  O33   D    
C20   C88   S    
C86   C87   A    
C8    C9    A    
Cr2   O2    S    
C99   H1    S    
C94   C97   A    
C26   C31   A    
C122  N1    T    
C99   C110  A    
C46   C51   A    
C26   H36   S    
Cr6   O19   S    
C82   C91   S    
C67   C68   A    
C13   C24   A    
Cr4   O19   S    
C2    C31   S    
C85   H30   S    
C32   C34   A    
Cr2   O20   S    
C90   H32   S    
C129  O31   D    
C75   C76   A    
C62   C63   A    
C109  H42   S    
C46   H8    S    
C24   C88   A    
C84   H27   S    
Cr6   O11   S    
C21   O6    A    
C112  H43   S    
C73   C78   A    
C87   C96   S    
Cr4   O13   S    
C44   O23   A    
C50   C51   A    
C26   C27   A    
Cr2   O26   S    
C43   H14   S    
Cr5   O8    S    
C86   H29   S    
C32   C37   A    
C126  O29   D    
C43   C45   A    
C130  O32   D    
C35   H4    S    
Cr5   O16   S    
C56   H6    S    
C25   O13   A    
C19   C39   S    
C18   C55   S    
Cr1   O1    S    
C113  C117  A    
C36   H20   S    
C40   C41   A    
C108  H41   S    
C12   C14   A    
Cr5   O15   S    
C45   H5    S    
C94   C95   A    
C72   H24   S    
C6    C11   A    
C101  C130  S    
C77   O4    A    
C83   C84   A    
C42   C43   A    
Cr1   O24   S    
C65   H19   S    
C3    C4    A    
C1    O20   A    
C93   C97   A    
C20   O10   A    
C112  C116  A    
C14   H55   S    
C52   C53   A    
C94   C129  S    
C9    C10   A    
C16   H48   S    
C3    C120  A    
C80   H26   S    
C46   C47   A    
C36   C37   A    
C27   C126  S    
C134  H64   S    
C53   H13   S    
C5    H47   S    
C22   O15   A    
C33   C38   S    
C72   C73   A    
C47   C48   A    
C20   O9    A    
C52   C57   A    
C119  C120  A    
C110  C132  S    
C120  H51   S    
C89   H31   S    
C6    C7    A    
C64   H17   S    
C68   C76   S    
C105  C106  A    
C42   C51   S    
C33   O21   A    
C121  O27   D    
C8    C17   S    
C5    C118  A    
C40   C121  S    
C69   H22   S    
C95   H28   S    
Cr3   O3    S    
C123  O28   D    
C61   H21   S    
C129  H62   S    
Cr4   O14   S    
C66   O3    A    
C65   C71   A    
Cr1   O5    S    
C93   C128  S    
C90   C91   A    
C30   C31   A    
C25   O18   A    
C6    H50   S    
C28   C37   S    
C48   C49   A    
C4    C5    A    
C23   O17   A    
C74   C78   A    
C133  N7    T    
C127  O30   D    
C62   C71   S    
Cr5   O9    S    
C112  C113  A    
C121  H58   S    
C123  H59   S    
Cr3   O4    S    
C61   C62   A    
C68   C69   A    
C98   C100  A    
C107  C116  S    
C88   C99   A    
C70   C71   A    
C75   H18   S    
C19   O7    A    
C128  N4    T    
C79   C80   A    
C39   C40   A    
C12   C133  S    
C54   H15   S    
Cr3   O23   S    
C34   H2    S    
C49   C50   A    
Cr3   O5    S    
C66   O2    A    
C74   C125  S    
C103  C104  A    
C87   C89   A    
C13   H3    S    
C60   C61   A    
C100  C101  A    
Cr1   O25   S    
C82   C83   A    
C89   C90   A    
C32   C135  S    
C126  H60   S    
Cr1   O12   S    
C47   H7    S    
C9    H52   S    
C115  C116  A    
C19   O8    A    
C27   C28   A    
C23   C79   S    
