data_mof_unit_67581.cif
_audit_creation_date              2012-12-10T16:51:47-0500
_audit_creation_method            fapswitch 2.2
_symmetry_space_group_name_H-M    P1
_symmetry_Int_Tables_number       1
_space_group_crystal_system       triclinic
_cell_length_a                    15.507791
_cell_length_b                    15.744777
_cell_length_c                    9.830683
_cell_angle_alpha                 87.454381
_cell_angle_beta                  87.464047
_cell_angle_gamma                 90.428088
_cell_volume                      2395.50131649

loop_
_atom_site_label
_atom_site_type_symbol
_atom_type_description
_atom_site_fract_x
_atom_site_fract_y
_atom_site_fract_z
_atom_type_partial_charge
C1    C     C_R   0.385500 0.880030 0.504994 0.821784
C2    C     C_R   0.381231 0.114817 0.499808 0.839124
C3    C     C_R   0.885498 0.380031 0.504995 0.821782
C4    C     C_R   0.881230 0.614816 0.499808 0.839122
C5    C     C_R   0.616148 0.117254 0.494870 0.881747
C6    C     C_R   0.618731 0.885117 0.500073 0.862470
C7    C     C_R   0.116148 0.617254 0.494869 0.881752
C8    C     C_R   0.118731 0.385118 0.500073 0.862475
C9    C     C_2   0.714336 0.778305 0.402915 0.165737
C10   C     C_2   0.763028 0.169670 0.486947 0.152615
C11   C     C_2   0.214341 0.278309 0.402921 0.165741
C12   C     C_2   0.263030 0.669668 0.486931 0.152624
C13   C     C_2   0.695393 0.832603 0.501075 0.071723
C14   C     C_2   0.678750 0.184964 0.474492 0.060998
C15   C     C_2   0.195394 0.332605 0.501080 0.071724
C16   C     C_2   0.178751 0.684963 0.474491 0.060997
C17   C     C_2   0.294705 0.230773 0.404745 -0.019895
C18   C     C_2   0.326308 0.737905 0.450770 -0.037703
C19   C     C_2   0.794698 0.730765 0.404734 -0.019904
C20   C     C_2   0.826306 0.237907 0.450784 -0.037709
C21   C     C_2   0.303396 0.165980 0.498562 -0.156363
C22   C     C_2   0.324863 0.808080 0.526717 -0.176864
C23   C     C_2   0.803393 0.665978 0.498562 -0.156367
C24   C     C_2   0.824857 0.308086 0.526718 -0.176851
C25   C     C_2   0.430237 0.992044 0.929326 0.284744
C26   C     C_2   0.930236 0.492048 0.929325 0.284756
C27   C     C_2   0.429710 0.988080 0.085088 0.349680
C28   C     C_2   0.929710 0.488081 0.085087 0.349677
Cu1   Cu    Cu3+1 0.500020 0.000000 0.638630 1.014982
Cu2   Cu    Cu3+1 0.000020 0.500000 0.638630 1.014982
Cu3   Cu    Cu3+1 0.499980 0.000000 0.361370 1.089603
Cu4   Cu    Cu3+1 0.999980 0.500000 0.361370 1.089602
N1    N     N_2   0.498660 0.000000 0.846910 -0.248353
N2    N     N_2   0.998660 0.500000 0.846910 -0.248353
N3    N     N_2   0.498630 0.000000 0.153040 -0.100216
N4    N     N_2   0.998630 0.500000 0.153040 -0.100214
O1    O     O_R   0.410990 0.910970 0.617040 -0.562626
O2    O     O_R   0.410990 0.089030 0.617040 -0.552270
O3    O     O_R   0.910990 0.410970 0.617040 -0.562631
O4    O     O_R   0.910990 0.589030 0.617040 -0.552269
O5    O     O_R   0.410950 0.910970 0.382900 -0.551235
O6    O     O_R   0.410950 0.089030 0.382900 -0.528911
O7    O     O_R   0.910950 0.410970 0.382900 -0.551231
O8    O     O_R   0.910950 0.589030 0.382900 -0.528919
O9    O     O_R   0.589050 0.089030 0.617100 -0.593268
O10   O     O_R   0.589050 0.910970 0.617100 -0.570767
O11   O     O_R   0.089050 0.589030 0.617100 -0.593263
O12   O     O_R   0.089050 0.410970 0.617100 -0.570767
O13   O     O_R   0.589010 0.089030 0.382960 -0.511226
O14   O     O_R   0.589010 0.910970 0.382960 -0.540900
O15   O     O_R   0.089010 0.589030 0.382960 -0.511227
O16   O     O_R   0.089010 0.410970 0.382960 -0.540900
Br1   Br    Br    0.637887 0.751521 0.263706 -0.611177
Br2   Br    Br    0.804099 0.064249 0.563518 -0.588341
Br3   Br    Br    0.137892 0.251516 0.263717 -0.611169
Br4   Br    Br    0.304103 0.564244 0.563487 -0.588363
Br5   Br    Br    0.774015 0.851653 0.643346 -0.583277
Br6   Br    Br    0.639676 0.283961 0.373523 -0.583133
Br7   Br    Br    0.274007 0.351653 0.643363 -0.583297
Br8   Br    Br    0.139672 0.783964 0.373536 -0.583156
C29   C     C_R   0.364281 0.263892 0.308210 0.124671
C30   C     C_R   0.366817 0.239453 0.172515 -0.032569
C31   C     C_R   0.420533 0.282734 0.074091 -0.140845
C32   C     C_R   0.469347 0.352737 0.109385 -0.117433
C33   C     C_R   0.467146 0.377454 0.244015 -0.051157
C34   C     C_R   0.415778 0.332589 0.343519 -0.095902
H1    H     H_    0.325163 0.188932 0.142024 0.185069
H2    H     H_    0.421763 0.264034 0.969368 0.160488
H3    H     H_    0.507991 0.388602 0.032268 0.122343
H4    H     H_    0.504962 0.431672 0.271344 0.143998
H5    H     H_    0.414051 0.353618 0.446701 0.186622
C35   C     C_R   0.378814 0.728301 0.322685 0.132762
C36   C     C_R   0.435975 0.659851 0.310349 -0.074406
C37   C     C_R   0.472632 0.640716 0.182830 -0.072668
C38   C     C_R   0.455467 0.691906 0.067756 -0.119589
C39   C     C_R   0.399728 0.760579 0.079511 -0.182482
C40   C     C_R   0.359125 0.776561 0.205175 -0.042218
H6    H     H_    0.451240 0.620384 0.398596 0.158678
H7    H     H_    0.515833 0.587389 0.173784 0.136261
H8    H     H_    0.484984 0.678349 0.969522 0.119390
H9    H     H_    0.386015 0.800065 0.990472 0.159388
H10   H     H_    0.309918 0.824379 0.210278 0.207703
C41   C     C_R   0.864267 0.763874 0.308175 0.124706
C42   C     C_R   0.866786 0.739422 0.172484 -0.032583
C43   C     C_R   0.920495 0.782692 0.074036 -0.140812
C44   C     C_R   0.969322 0.852695 0.109305 -0.117466
C45   C     C_R   0.967138 0.877424 0.243932 -0.051179
C46   C     C_R   0.915774 0.832571 0.343458 -0.095895
H11   H     H_    0.825122 0.688901 0.142014 0.185069
H12   H     H_    0.921709 0.763985 0.969316 0.160497
H13   H     H_    0.007960 0.888552 0.032172 0.122337
H14   H     H_    0.004964 0.931642 0.271239 0.144008
H15   H     H_    0.914056 0.853611 0.446636 0.186612
C47   C     C_R   0.878818 0.228295 0.322707 0.132757
C48   C     C_R   0.935980 0.159845 0.310390 -0.074408
C49   C     C_R   0.972638 0.140697 0.182880 -0.072660
C50   C     C_R   0.955473 0.191874 0.067792 -0.119566
C51   C     C_R   0.899733 0.260548 0.079527 -0.182497
C52   C     C_R   0.859130 0.276544 0.205184 -0.042216
H16   H     H_    0.951245 0.120388 0.398648 0.158690
H17   H     H_    0.015839 0.087370 0.173849 0.136260
H18   H     H_    0.984990 0.178307 0.969564 0.119394
H19   H     H_    0.886020 0.300024 0.990477 0.159365
H20   H     H_    0.809924 0.324363 0.210273 0.207702
C53   C     C_R   0.227792 0.134286 0.585644 0.113155
C54   C     C_R   0.161209 0.089264 0.527281 -0.134015
C55   C     C_R   0.087753 0.063193 0.606232 -0.148341
C56   C     C_R   0.080310 0.081589 0.743947 -0.122390
C57   C     C_R   0.146623 0.125509 0.803159 -0.109486
C58   C     C_R   0.220309 0.151483 0.724556 -0.016050
H21   H     H_    0.166099 0.074773 0.420552 0.185372
H22   H     H_    0.036805 0.028318 0.560835 0.160079
H23   H     H_    0.023563 0.061004 0.805012 0.131257
H24   H     H_    0.141421 0.138680 0.910310 0.147704
H25   H     H_    0.271723 0.184200 0.772450 0.169600
C59   C     C_R   0.270693 0.807108 0.656579 0.150443
C60   C     C_R   0.288486 0.749491 0.764858 -0.136633
C61   C     C_R   0.233879 0.743853 0.881778 -0.151816
C62   C     C_R   0.162129 0.796333 0.892587 -0.056004
C63   C     C_R   0.144668 0.854842 0.786484 -0.097050
C64   C     C_R   0.199200 0.860795 0.669150 -0.037070
H26   H     H_    0.343927 0.708251 0.757750 0.151756
H27   H     H_    0.246917 0.698465 0.964029 0.162073
H28   H     H_    0.120413 0.791334 0.983471 0.180446
H29   H     H_    0.088873 0.895384 0.795022 0.131455
H30   H     H_    0.185078 0.905997 0.587244 0.157068
C65   C     C_R   0.727790 0.634288 0.585649 0.113159
C66   C     C_R   0.661201 0.589275 0.527284 -0.134039
C67   C     C_R   0.587738 0.563220 0.606230 -0.148331
C68   C     C_R   0.580293 0.581621 0.743942 -0.122417
C69   C     C_R   0.646614 0.625529 0.803157 -0.109496
C70   C     C_R   0.720307 0.651488 0.724560 -0.016035
H31   H     H_    0.666091 0.574781 0.420556 0.185363
H32   H     H_    0.536785 0.528355 0.560830 0.160076
H33   H     H_    0.523539 0.561051 0.805002 0.131258
H34   H     H_    0.641409 0.638706 0.910306 0.147700
H35   H     H_    0.771724 0.684200 0.772454 0.169588
C71   C     C_R   0.770679 0.307124 0.656573 0.150449
C72   C     C_R   0.788461 0.249513 0.764864 -0.136647
C73   C     C_R   0.733850 0.243889 0.881779 -0.151790
C74   C     C_R   0.662105 0.296374 0.892571 -0.055992
C75   C     C_R   0.644654 0.354878 0.786456 -0.097065
C76   C     C_R   0.699192 0.360820 0.669127 -0.037072
H36   H     H_    0.843898 0.208267 0.757768 0.151754
H37   H     H_    0.746881 0.198506 0.964041 0.162073
H38   H     H_    0.620384 0.291385 0.983449 0.180411
H39   H     H_    0.588863 0.395426 0.794983 0.131470
H40   H     H_    0.685077 0.406017 0.587213 0.157060
Br9   Br    Br    0.320262 0.988567 0.849960 -0.501654
Br10  Br    Br    0.820262 0.488576 0.849959 -0.501652
C77   C     C_R   0.580002 0.970823 0.891770 0.265060
C78   C     C_R   0.592022 0.884781 0.929459 -0.130114
C79   C     C_R   0.673814 0.855812 0.962346 -0.050776
C80   C     C_R   0.743406 0.912693 0.961179 -0.046186
C81   C     C_R   0.732976 0.997292 0.918207 -0.098477
C82   C     C_R   0.652330 0.025438 0.879222 -0.019897
H41   H     H_    0.538879 0.840159 0.928796 0.120730
H42   H     H_    0.683832 0.789025 0.985854 0.162619
H43   H     H_    0.806250 0.890832 0.987759 0.144528
H44   H     H_    0.787637 0.040667 0.912967 0.142791
H45   H     H_    0.645332 0.091121 0.845431 0.169891
C83   C     C_R   0.079997 0.470810 0.891769 0.265070
C84   C     C_R   0.092001 0.384765 0.929458 -0.130128
C85   C     C_R   0.173787 0.355781 0.962349 -0.050785
C86   C     C_R   0.243388 0.412649 0.961187 -0.046174
C87   C     C_R   0.232974 0.497251 0.918211 -0.098466
C88   C     C_R   0.152335 0.525412 0.879222 -0.019904
H46   H     H_    0.038851 0.340152 0.928794 0.120724
H47   H     H_    0.183792 0.288992 0.985860 0.162626
H48   H     H_    0.306227 0.390776 0.987773 0.144525
H49   H     H_    0.287643 0.540617 0.912973 0.142790
H50   H     H_    0.145349 0.591096 0.845429 0.169894
Br11  Br    Br    0.317416 0.998098 0.176768 -0.504874
Br12  Br    Br    0.817415 0.498086 0.176769 -0.504886
Br13  Br    Br    0.544511 0.109456 0.103787 -0.471924
Br14  Br    Br    0.044522 0.609450 0.103779 -0.471932

loop_
_geom_bond_atom_site_label_1
_geom_bond_atom_site_label_2
_ccdc_geom_bond_type
C45   C46   A    
C38   C39   A    
C86   C87   A    
Cu3   O6    S    
C55   H22   S    
C48   C49   A    
C53   C58   A    
C66   C67   A    
C27   Br11  S    
C50   C51   A    
C85   H47   S    
C62   H28   S    
C59   C60   A    
C3    O7    A    
C30   C31   A    
C30   H1    S    
Cu4   N4    S    
Cu2   O12   S    
C85   C86   A    
C83   C84   A    
C71   C76   A    
C16   Br8   S    
C13   Br5   S    
C54   C55   A    
C51   H19   S    
C51   C52   A    
Cu1   N1    S    
C56   C57   A    
C25   Br9   S    
C36   C37   A    
C79   H42   S    
C9    C13   D    
C61   C62   A    
Cu4   O16   S    
C17   C29   S    
C65   C70   A    
C11   C15   D    
C29   C34   A    
C26   N2    D    
C4    O4    A    
C10   C20   S    
Cu1   O2    S    
C77   C78   A    
C6    O10   A    
C38   H8    S    
C8    O16   A    
C50   H18   S    
C1    O1    A    
C22   C59   S    
C41   C46   A    
C3    O3    A    
C1    C22   S    
C18   C22   D    
C49   H17   S    
C5    O13   A    
C3    C24   S    
C47   C48   A    
C66   H31   S    
Cu3   O13   S    
C19   C41   S    
C9    C19   S    
C54   H21   S    
C18   C35   S    
C76   H40   S    
C14   Br6   S    
C72   C73   A    
C59   C64   A    
Cu2   N2    S    
C31   C32   A    
C12   C16   D    
Cu2   O11   S    
C26   Br10  S    
C42   C43   A    
C69   H34   S    
C10   C14   D    
C4    C23   S    
C46   H15   S    
C48   H16   S    
C47   C52   A    
C4    O8    A    
C24   C71   S    
C70   H35   S    
C43   C44   A    
C5    O9    A    
C17   C21   D    
C67   H32   S    
Cu1   O9    S    
C7    O11   A    
C56   H23   S    
C39   H9    S    
C19   C23   D    
C60   H26   S    
C8    O12   A    
Cu4   O15   S    
C35   C40   A    
C27   N3    D    
C72   H36   S    
C2    O2    A    
C41   C42   A    
C36   H6    S    
C49   C50   A    
C2    C21   S    
C5    C14   S    
Cu2   O4    S    
C77   C82   A    
C6    O14   A    
C62   C63   A    
C28   N4    D    
C80   C81   A    
C12   Br4   S    
C74   H38   S    
C80   H43   S    
C57   H24   S    
C1    O5    A    
C7    C16   S    
C68   H33   S    
C82   H45   S    
N4    Br14  S    
C8    C15   S    
C37   H7    S    
C74   C75   A    
N1    C77   S    
C87   C88   A    
Cu3   N3    S    
C9    Br1   S    
C42   H11   S    
C55   C56   A    
Cu1   O1    S    
C65   C66   A    
C11   Br3   S    
C63   C64   A    
C23   C65   S    
C67   C68   A    
C86   H48   S    
C20   C47   S    
C78   H41   S    
C11   C17   S    
C52   H20   S    
Cu3   O5    S    
C81   H44   S    
C44   C45   A    
C15   Br7   S    
C75   H39   S    
C35   C36   A    
N2    C83   S    
C69   C70   A    
C73   H37   S    
C43   H12   S    
C88   H50   S    
C25   C27   S    
C32   H3    S    
C53   C54   A    
C31   H2    S    
C26   C28   S    
Cu1   O10   S    
C44   H13   S    
N3    Br13  S    
C32   C33   A    
C84   H46   S    
C7    O15   A    
C64   H30   S    
Cu1   Cu3   S    
C60   C61   A    
C6    C13   S    
Cu2   Cu4   S    
C39   C40   A    
C28   Br12  S    
C40   H10   S    
C2    O6    A    
C73   C74   A    
C63   H29   S    
Cu4   O7    S    
Cu2   O3    S    
C68   C69   A    
C61   H27   S    
C34   H5    S    
C29   C30   A    
C10   Br2   S    
C84   C85   A    
C71   C72   A    
C83   C88   A    
C57   C58   A    
C87   H49   S    
C37   C38   A    
Cu4   O8    S    
C33   C34   A    
C12   C18   S    
C81   C82   A    
C75   C76   A    
C78   C79   A    
Cu3   O14   S    
C79   C80   A    
C45   H14   S    
C58   H25   S    
C20   C24   D    
C21   C53   S    
C33   H4    S    
C25   N1    D    
