data_mof_unit_5359.cif
_audit_creation_date              2012-12-11T16:47:43-0500
_audit_creation_method            fapswitch 2.2
_symmetry_space_group_name_H-M    P1
_symmetry_Int_Tables_number       1
_space_group_crystal_system       triclinic
_cell_length_a                    26.071375
_cell_length_b                    7.148049
_cell_length_c                    24.036371
_cell_angle_alpha                 89.992785
_cell_angle_beta                  101.671876
_cell_angle_gamma                 90.011505
_cell_volume                      4386.78105658

loop_
_atom_site_label
_atom_site_type_symbol
_atom_type_description
_atom_site_fract_x
_atom_site_fract_y
_atom_site_fract_z
_atom_type_partial_charge
O1    O     O_R   0.797620 0.601060 0.203310 -0.542726
O2    O     O_R   0.202380 0.398940 0.796690 -0.546996
O3    O     O_R   0.702380 0.101060 0.296690 -0.542589
O4    O     O_R   0.297620 0.898940 0.703310 -0.542900
O5    O     O_R   0.692070 0.267810 0.186600 -0.539219
O6    O     O_R   0.307930 0.732190 0.813400 -0.532603
O7    O     O_R   0.807930 0.767810 0.313400 -0.540050
O8    O     O_R   0.192070 0.232190 0.686600 -0.535929
C1    C     C_R   0.673848 0.439895 0.171268 0.694428
C2    C     C_R   0.326222 0.560072 0.828657 0.697251
C3    C     C_R   0.826150 0.939912 0.328730 0.692783
C4    C     C_R   0.173746 0.060083 0.671379 0.694223
O9    O     O_R   0.796590 0.271120 0.196480 -0.510762
O10   O     O_R   0.203410 0.728880 0.803520 -0.509268
O11   O     O_R   0.703410 0.771120 0.303520 -0.512100
O12   O     O_R   0.296590 0.228880 0.696480 -0.518042
O13   O     O_R   0.807640 0.104280 0.306650 -0.530818
O14   O     O_R   0.192360 0.895720 0.693350 -0.531808
O15   O     O_R   0.692360 0.604280 0.193350 -0.530329
O16   O     O_R   0.307640 0.395720 0.806650 -0.531947
C5    C     C_R   0.812183 0.439785 0.183900 0.742319
C6    C     C_R   0.187571 0.560187 0.815788 0.741877
C7    C     C_R   0.688115 0.939673 0.316371 0.740326
C8    C     C_R   0.312191 0.060180 0.683987 0.737286
O17   O     O_3   0.753500 0.435660 0.286130 -0.375715
O18   O     O_3   0.246500 0.564340 0.713870 -0.377856
O19   O     O_3   0.746500 0.935660 0.213870 -0.373868
O20   O     O_3   0.253500 0.064340 0.786130 -0.375198
V1    V     V_3+5 0.749350 0.159470 0.243300 1.464000
V2    V     V_3+5 0.250650 0.840530 0.756700 1.468001
V3    V     V_3+5 0.750650 0.659470 0.256700 1.461293
V4    V     V_3+5 0.249350 0.340530 0.743300 1.450153
C9    C     C_R   0.373823 0.876930 0.637370 -0.299270
C10   C     C_R   0.627966 0.119664 0.366360 -0.315860
C11   C     C_R   0.121082 0.382580 0.857187 -0.307267
C12   C     C_R   0.876903 0.617626 0.139657 -0.302955
H1    H     H_    0.364132 0.752029 0.658544 0.210644
H2    H     H_    0.637119 0.246132 0.345599 0.208105
H3    H     H_    0.127562 0.261645 0.832363 0.202493
H4    H     H_    0.870053 0.740363 0.163532 0.204201
C13   C     C_R   0.410368 0.861394 0.602378 0.611319
C14   C     C_R   0.592653 0.131539 0.403049 0.617149
C15   C     C_R   0.084298 0.367773 0.892064 0.625481
C16   C     C_R   0.913547 0.630448 0.104532 0.613138
C17   C     C_R   0.425042 0.019506 0.574574 -0.082962
C18   C     C_R   0.577845 0.969987 0.429277 -0.036760
C19   C     C_R   0.074268 0.520731 0.924904 -0.079612
C20   C     C_R   0.924260 0.474772 0.073160 -0.061368
C21   C     C_R   0.402179 0.192616 0.582377 -0.228291
C22   C     C_R   0.599778 0.798257 0.418462 -0.245718
C23   C     C_R   0.101597 0.688237 0.922061 -0.220753
C24   C     C_R   0.897715 0.306701 0.077631 -0.222038
H5    H     H_    0.413886 0.316642 0.562254 0.222118
H6    H     H_    0.586840 0.670927 0.435446 0.203164
H7    H     H_    0.093683 0.808257 0.946555 0.203853
H8    H     H_    0.906608 0.184459 0.054643 0.204829
C25   C     C_R   0.363841 0.208347 0.615542 0.437842
C26   C     C_R   0.638398 0.786924 0.385422 0.440485
C27   C     C_R   0.139385 0.703643 0.887991 0.414207
C28   C     C_R   0.859698 0.293319 0.111601 0.430619
C29   C     C_R   0.350138 0.049629 0.645024 -0.254599
C30   C     C_R   0.651154 0.948033 0.356506 -0.237730
C31   C     C_R   0.149077 0.549882 0.854204 -0.243264
C32   C     C_R   0.849914 0.449322 0.144526 -0.238149
C33   C     C_R   0.452962 0.081464 0.481314 0.399607
C34   C     C_R   0.547534 0.888108 0.520242 0.382800
C35   C     C_R   0.051772 0.544613 0.022178 0.403618
C36   C     C_R   0.947179 0.445291 0.976552 0.403594
C37   C     C_R   0.491291 0.074166 0.448059 -0.211106
C38   C     C_R   0.510796 0.908840 0.555382 -0.221127
C39   C     C_R   0.014494 0.539723 0.056886 -0.193116
C40   C     C_R   0.984394 0.451982 0.941558 -0.205191
H9    H     H_    0.483027 0.138491 0.406391 0.184950
H10   H     H_    0.519458 0.850997 0.597821 0.179612
H11   H     H_    0.026651 0.572381 0.101634 0.174733
H12   H     H_    0.972375 0.417802 0.896905 0.172306
C41   C     C_R   0.538783 0.978721 0.466807 0.002498
C42   C     C_R   0.463416 0.003950 0.536566 -0.010747
C43   C     C_R   0.962457 0.486957 0.034923 0.007864
C44   C     C_R   0.036392 0.505338 0.963460 -0.000297
C45   C     C_3   0.956340 0.022738 0.522325 -0.311010
C46   C     C_3   0.042983 0.976718 0.478408 -0.310094
C47   C     C_3   0.543563 0.522796 0.977742 -0.312870
C48   C     C_3   0.456944 0.476000 0.021668 -0.311055
C49   C     C_3   0.000481 0.167819 0.523477 0.761499
C50   C     C_3   0.998849 0.831647 0.477262 0.759848
C51   C     C_3   0.499387 0.667623 0.976662 0.761302
C52   C     C_3   0.501117 0.331185 0.022744 0.760373
H13   H     H_    0.920806 0.043939 0.540377 0.164137
H14   H     H_    0.078498 0.955457 0.460325 0.162698
H15   H     H_    0.579089 0.544286 0.959689 0.162691
H16   H     H_    0.421430 0.454377 0.039731 0.161963
H17   H     H_    0.001326 0.240398 0.427628 0.199755
H18   H     H_    0.998001 0.759054 0.573112 0.200166
H19   H     H_    0.498544 0.739631 0.072541 0.198828
H20   H     H_    0.501958 0.259172 0.926859 0.199101
C53   C     C_1   0.127951 0.049239 0.625491 -0.165072
C54   C     C_1   0.871703 0.950632 0.374882 -0.161861
C55   C     C_1   0.371974 0.549160 0.874591 -0.164811
C56   C     C_1   0.628280 0.450535 0.125127 -0.162986
C57   C     C_3   0.998642 0.868636 0.540532 -0.240536
C58   C     C_3   0.000693 0.130822 0.460212 -0.239108
C59   C     C_3   0.501297 0.368558 0.959484 -0.240941
C60   C     C_3   0.499199 0.630246 0.039915 -0.239678
C61   C     C_3   0.042192 0.016267 0.541462 -0.048716
C62   C     C_3   0.957149 0.983204 0.459277 -0.049848
C63   C     C_3   0.457712 0.515942 0.958629 -0.047695
C64   C     C_3   0.542783 0.482885 0.040778 -0.048720
C65   C     C_1   0.089401 0.035922 0.587517 0.068138
C66   C     C_1   0.910072 0.963732 0.413072 0.066746
C67   C     C_1   0.410502 0.535717 0.912584 0.066369
C68   C     C_1   0.589891 0.463520 0.086955 0.065025
F1    F     F_    0.430533 0.690356 0.594827 -0.702114
F2    F     F_    0.573041 0.301439 0.412891 -0.715107
F3    F     F_    0.059391 0.202202 0.894724 -0.681106
F4    F     F_    0.937947 0.796223 0.100494 -0.687562
O21   O     O_3   0.342076 0.382360 0.620701 -0.548669
C69   C     C_3   0.294721 0.400893 0.580043 0.122567
H21   H     H_    0.267626 0.486848 0.599680 0.150733
H22   H     H_    0.274228 0.265055 0.567979 0.070601
C70   C     C_3   0.304285 0.502794 0.526953 -0.323296
H23   H     H_    0.324342 0.637904 0.539413 0.221741
H24   H     H_    0.329716 0.416510 0.505271 0.213875
C71   C     C_3   0.252946 0.541268 0.485311 -0.846487
H25   H     H_    0.232552 0.407779 0.471293 0.238454
H26   H     H_    0.261151 0.615270 0.447450 0.237588
H27   H     H_    0.227036 0.630813 0.505494 0.235108
O22   O     O_3   0.660920 0.615070 0.378557 -0.550840
C72   C     C_3   0.695065 0.560998 0.429747 0.108326
H28   H     H_    0.697533 0.405919 0.430117 0.143222
H29   H     H_    0.680612 0.600738 0.468728 0.118524
C73   C     C_3   0.750200 0.639780 0.432346 -0.334175
H30   H     H_    0.765076 0.591185 0.394698 0.228852
H31   H     H_    0.748824 0.795148 0.431779 0.169559
C74   C     C_3   0.788056 0.575933 0.485931 -0.807037
H32   H     H_    0.774507 0.625166 0.524360 0.234490
H33   H     H_    0.827513 0.635315 0.486394 0.247448
H34   H     H_    0.791057 0.420887 0.486924 0.231460
O23   O     O_3   0.164327 0.873380 0.885716 -0.545955
C75   C     C_3   0.205267 0.889824 0.933941 0.102881
H35   H     H_    0.236869 0.787628 0.930935 0.099918
H36   H     H_    0.191116 0.864791 0.974124 0.112284
C76   C     C_3   0.227648 0.087974 0.936137 -0.278478
H37   H     H_    0.240691 0.118884 0.895873 0.216663
H38   H     H_    0.196641 0.189848 0.940890 0.189940
C77   C     C_3   0.273908 0.111873 0.985827 -0.848469
H39   H     H_    0.261448 0.085597 0.026686 0.233097
H40   H     H_    0.289087 0.257124 0.986123 0.229419
H41   H     H_    0.305892 0.013464 0.981660 0.246985
O24   O     O_3   0.835270 0.123225 0.115950 -0.547939
C78   C     C_3   0.800535 0.079119 0.064244 0.085587
H42   H     H_    0.798499 0.924178 0.060653 0.144471
H43   H     H_    0.813869 0.130313 0.025687 0.118777
C79   C     C_3   0.745570 0.153856 0.064801 -0.322229
H44   H     H_    0.731606 0.093895 0.101698 0.227808
H45   H     H_    0.746897 0.308661 0.069139 0.166495
C80   C     C_3   0.706874 0.102240 0.010453 -0.819024
H46   H     H_    0.719457 0.163771 0.972930 0.231191
H47   H     H_    0.667497 0.157837 0.012410 0.249900
H48   H     H_    0.704155 0.947783 0.005595 0.233620
O25   O     O_3   0.406180 0.171765 0.459809 -0.574584
C81   C     C_3   0.365976 0.038371 0.442096 0.062296
H49   H     H_    0.328523 0.101925 0.447892 0.139860
H50   H     H_    0.370883 0.907226 0.467869 0.124316
C82   C     C_3   0.361427 0.991531 0.379122 -0.303664
H51   H     H_    0.354236 0.122079 0.353606 0.207906
H52   H     H_    0.398617 0.928231 0.372421 0.194977
C83   C     C_3   0.316820 0.854106 0.358592 -0.817136
H53   H     H_    0.324220 0.720346 0.382404 0.238026
H54   H     H_    0.314049 0.824836 0.312715 0.237275
H55   H     H_    0.278991 0.913953 0.364583 0.229253
O26   O     O_3   0.593751 0.791045 0.539821 -0.576767
C84   C     C_3   0.583255 0.598635 0.547553 0.071352
H56   H     H_    0.605859 0.515138 0.521831 0.159584
H57   H     H_    0.541292 0.557418 0.532979 0.151411
C85   C     C_3   0.602047 0.543124 0.609792 -0.309977
H58   H     H_    0.644849 0.569216 0.622548 0.201002
H59   H     H_    0.581880 0.628991 0.637309 0.204911
C86   C     C_3   0.591093 0.336624 0.618927 -0.777473
H60   H     H_    0.548307 0.308607 0.607870 0.244686
H61   H     H_    0.605657 0.299416 0.664213 0.231105
H62   H     H_    0.611286 0.247151 0.592236 0.240274
O27   O     O_3   0.102688 0.596031 0.046085 -0.573293
C87   C     C_3   0.135909 0.437212 0.052025 0.059301
H63   H     H_    0.175667 0.485898 0.048744 0.138171
H64   H     H_    0.124328 0.330617 0.017904 0.130293
C88   C     C_3   0.139033 0.345862 0.110234 -0.305660
H65   H     H_    0.152427 0.450858 0.144171 0.206599
H66   H     H_    0.099613 0.295206 0.114100 0.201349
C89   C     C_3   0.176898 0.180597 0.118356 -0.800692
H67   H     H_    0.163720 0.072599 0.085295 0.244651
H68   H     H_    0.178293 0.116898 0.160769 0.238336
H69   H     H_    0.216928 0.227966 0.115745 0.223934
O28   O     O_3   0.896515 0.386489 0.954550 -0.574165
C90   C     C_3   0.868307 0.528786 0.920401 0.076951
H70   H     H_    0.837334 0.459201 0.888589 0.151047
H71   H     H_    0.892603 0.610464 0.895749 0.114488
C91   C     C_3   0.841977 0.660559 0.956492 -0.327549
H72   H     H_    0.819217 0.577166 0.982177 0.196511
H73   H     H_    0.872377 0.741360 0.985850 0.218114
C92   C     C_3   0.805311 0.797881 0.919389 -0.814467
H74   H     H_    0.827573 0.886207 0.894489 0.245750
H75   H     H_    0.786611 0.890153 0.946626 0.227436
H76   H     H_    0.774046 0.721267 0.889867 0.231393
F5    F     F_    0.001525 0.343477 0.547745 -0.654550
F6    F     F_    0.997786 0.655996 0.452986 -0.654854
F7    F     F_    0.498291 0.843418 0.952462 -0.655308
F8    F     F_    0.502231 0.155397 0.046951 -0.655420

loop_
_geom_bond_atom_site_label_1
_geom_bond_atom_site_label_2
_ccdc_geom_bond_type
O17   V3    S    
C74   H34   S    
C47   C51   S    
C26   C30   A    
C89   H67   S    
C54   C66   T    
C76   C77   S    
O13   V1    S    
C92   H74   S    
O1    C5    A    
C37   C41   A    
C10   C14   A    
C75   C76   S    
C10   C30   A    
C40   H12   S    
O15   V3    S    
O22   C72   S    
C50   F6    S    
C39   C43   A    
O25   C81   S    
C11   C31   A    
C49   F5    S    
C74   H32   S    
C45   C57   S    
C84   H56   S    
C87   H63   S    
C26   O22   S    
O5    C1    A    
C82   H51   S    
C4    C53   S    
C47   C59   S    
C3    C54   S    
C20   C43   S    
O9    V1    S    
C52   F8    S    
C77   H39   S    
O16   V4    S    
C11   H3    S    
O4    C8    A    
C33   C37   A    
C83   H54   S    
C46   C61   S    
C38   C42   A    
C76   H37   S    
C77   H41   S    
C17   C42   S    
O1    V3    S    
C48   C63   S    
C21   C25   A    
C47   C64   S    
C70   H24   S    
O2    V4    S    
C14   C18   A    
C78   C79   S    
O3    V1    S    
C90   C91   S    
C69   H21   S    
C5    C32   S    
C24   C28   A    
C89   H69   S    
C15   F3    S    
C6    C31   S    
O3    C7    A    
C9    C29   A    
C14   F2    S    
C83   H55   S    
C3    O13   A    
H18   C57   S    
C2    O16   A    
C73   H30   S    
C88   C89   S    
O2    C6    A    
C78   H42   S    
C37   H9    S    
C91   H72   S    
O14   V2    S    
C17   C21   A    
C11   C15   A    
C79   H45   S    
C36   C40   A    
C72   C73   S    
C45   H13   S    
C36   C43   A    
O11   C7    A    
O28   C90   S    
O12   C8    A    
C74   H33   S    
C80   H46   S    
C92   H75   S    
C82   H52   S    
C19   C44   S    
O10   V2    S    
C49   C61   S    
C1    O15   A    
C45   C49   S    
C77   H40   S    
C7    C30   S    
C57   C61   S    
O7    V3    S    
O8    V4    S    
C12   H4    S    
C16   C20   A    
C75   H35   S    
C79   C80   S    
O18   V4    S    
C19   C23   A    
C23   H7    S    
C46   C50   S    
C9    H1    S    
C90   H70   S    
C69   C70   S    
C22   C26   A    
O7    C3    A    
O27   C87   S    
C38   H10   S    
C81   C82   S    
C53   C65   T    
C87   H64   S    
C27   O23   S    
O8    C4    A    
C55   C67   T    
C91   C92   S    
C46   C58   S    
O9    C5    A    
C22   H6    S    
C72   H29   S    
C25   C29   A    
C51   F7    S    
C79   H44   S    
C28   O24   S    
C84   H57   S    
C35   O27   S    
C8    C29   S    
C73   H31   S    
C83   H53   S    
O6    V2    S    
C56   C68   T    
C82   C83   S    
C71   H27   S    
C48   C60   S    
C92   H76   S    
C12   C16   A    
C23   C27   A    
C85   C86   S    
C25   O21   S    
C33   O25   S    
O26   C84   S    
O5    V1    S    
C60   C64   S    
C52   C59   S    
H19   C60   S    
C71   H26   S    
C81   H49   S    
C62   C66   S    
C84   C85   S    
C34   O26   S    
C76   H38   S    
C34   C41   A    
C61   C65   S    
C45   C62   S    
C85   H58   S    
C89   H68   S    
C33   C42   A    
C10   H2    S    
C63   C67   S    
C35   C44   A    
C48   C52   S    
C85   H59   S    
C13   F1    S    
H17   C58   S    
O6    C2    A    
C18   C41   S    
C59   C63   S    
O23   C75   S    
C70   H23   S    
O11   V3    S    
C75   H36   S    
C80   H48   S    
O12   V4    S    
C47   H15   S    
C18   C22   A    
C27   C31   A    
C46   H14   S    
C87   C88   S    
C28   C32   A    
C9    C13   A    
C86   H62   S    
C91   H73   S    
C50   C62   S    
C72   H28   S    
C88   H65   S    
C40   C44   A    
C81   H50   S    
O21   C69   S    
C39   H11   S    
O10   C6    A    
C34   C38   A    
O19   V1    S    
C73   C74   S    
C21   H5    S    
O20   V2    S    
C1    C56   S    
C58   C62   S    
C35   C39   A    
C78   H43   S    
C2    C55   S    
C69   H22   S    
C88   H66   S    
C51   C60   S    
C52   C64   S    
C64   C68   S    
C20   C24   A    
C51   C63   S    
C16   F4    S    
C80   H47   S    
H20   C59   S    
C4    O14   A    
C70   C71   S    
C86   H60   S    
C13   C17   A    
O24   C78   S    
C36   O28   S    
C48   H16   S    
C90   H71   S    
C12   C32   A    
C50   C57   S    
C15   C19   A    
O4    V2    S    
C49   C58   S    
C24   H8    S    
C71   H25   S    
C86   H61   S    
