data_mof_unit_53714.cif
_audit_creation_date              2012-12-10T19:01:19-0500
_audit_creation_method            fapswitch 2.2
_symmetry_space_group_name_H-M    P1
_symmetry_Int_Tables_number       1
_space_group_crystal_system       triclinic
_cell_length_a                    9.55027
_cell_length_b                    10.861025
_cell_length_c                    15.487256
_cell_angle_alpha                 89.958875
_cell_angle_beta                  74.471641
_cell_angle_gamma                 90.386216
_cell_volume                      1547.74864156

loop_
_atom_site_label
_atom_site_type_symbol
_atom_type_description
_atom_site_fract_x
_atom_site_fract_y
_atom_site_fract_z
_atom_type_partial_charge
C1    C     C_R   0.999823 0.262219 0.497686 0.808248
C2    C     C_R   0.676802 0.512281 0.908678 0.093099
C3    C     C_R   0.777688 0.480640 0.957466 0.164215
C4    C     C_R   0.528303 0.532910 0.954973 0.068183
C5    C     C_R   0.480982 0.511905 0.049183 0.067580
C6    C     C_R   0.586131 0.482632 0.095284 -0.216670
C7    C     C_R   0.731307 0.467761 0.050107 -0.234004
C8    C     C_R   0.426024 0.575330 0.910472 -0.219653
C9    C     C_R   0.281087 0.591233 0.955749 -0.236879
C10   C     C_R   0.231761 0.564634 0.046693 0.167508
C11   C     C_R   0.330432 0.523269 0.094315 0.092834
C12   C     C_R   0.918332 0.499503 0.672111 0.797624
C13   C     C_R   0.084212 0.580134 0.090778 -0.216857
C14   C     C_R   0.032650 0.554807 0.181907 -0.189698
C15   C     C_R   0.274356 0.494628 0.185649 -0.252251
C16   C     C_R   0.128073 0.064627 0.483416 0.124383
C17   C     C_R   0.000034 0.128733 0.488087 -0.183336
C18   C     C_R   0.874844 0.060538 0.482666 -0.010353
C19   C     C_R   0.877865 0.932302 0.484968 -0.259301
C20   C     C_R   0.003098 0.870305 0.491353 -0.114983
C21   C     C_R   0.130096 0.937828 0.484848 0.112631
C22   C     C_3   0.232124 0.935817 0.543129 -0.444115
C23   C     C_R   0.000675 0.737515 0.499161 0.814334
C24   C     C_3   0.230713 0.075390 0.540623 -0.436063
C25   C     C_R   0.606319 0.534144 0.425109 0.286647
C26   C     C_R   0.543289 0.453349 0.570312 -0.065093
C27   C     C_R   0.394515 0.453690 0.570422 -0.094771
C28   C     C_R   0.459181 0.533192 0.424895 0.266659
C29   C     C_3   0.473380 0.653214 0.376794 -0.498821
C30   C     C_3   0.631605 0.655773 0.378460 -0.515976
C31   C     C_R   0.081824 0.501479 0.327917 0.801123
C32   C     C_R   0.873465 0.497298 0.770456 -0.047220
C33   C     C_R   0.128105 0.513752 0.230013 -0.042658
C34   C     C_R   0.924368 0.460997 0.912919 -0.209912
C35   C     C_R   0.972343 0.470506 0.820021 -0.196795
C36   C     C_R   0.727528 0.518124 0.814774 -0.244994
Cu1   Cu    Cu3+1 0.140670 0.499980 0.500000 0.944856
Cu2   Cu    Cu3+1 0.859330 0.500020 0.500000 0.972674
H1    H     H_    0.807621 0.444344 0.088131 0.153673
H2    H     H_    0.009071 0.614007 0.054989 0.142750
H3    H     H_    0.779566 0.881574 0.485634 0.164255
H4    H     H_    0.181504 0.896738 0.610781 0.201139
H5    H     H_    0.339955 0.897481 0.508590 0.199981
H6    H     H_    0.180526 0.117841 0.606935 0.195451
H7    H     H_    0.335876 0.116529 0.502644 0.207853
H8    H     H_    0.572928 0.416618 0.627791 0.149191
H9    H     H_    0.313720 0.417848 0.627991 0.136662
H10   H     H_    0.459262 0.643119 0.308183 0.197869
H11   H     H_    0.341947 0.456811 0.224399 0.148908
H12   H     H_    0.407239 0.726659 0.417584 0.215968
H13   H     H_    0.707819 0.649750 0.310596 0.191586
H14   H     H_    0.656444 0.730130 0.421329 0.212064
H15   H     H_    0.206793 0.624355 0.919001 0.149823
H16   H     H_    0.001693 0.436319 0.949866 0.145813
H17   H     H_    0.085655 0.453584 0.786954 0.148067
H18   H     H_    0.654773 0.535266 0.773926 0.146506
H19   H     H_    0.454519 0.600626 0.840709 0.143370
N1    N     N_R   0.648210 0.500930 0.499430 -0.181362
N2    N     N_R   0.352300 0.500890 0.499430 -0.185259
O1    O     O_R   0.118810 0.319640 0.500000 -0.577793
O2    O     O_R   0.881230 0.319680 0.499990 -0.554876
O3    O     O_R   0.055580 0.499970 0.629840 -0.591748
O4    O     O_R   0.818000 0.500010 0.629830 -0.592561
O5    O     O_R   0.118770 0.680320 0.500010 -0.580562
O6    O     O_R   0.881190 0.680360 0.500000 -0.586776
O7    O     O_R   0.182000 0.499990 0.370170 -0.587916
O8    O     O_R   0.944420 0.500030 0.370160 -0.575511
C37   C     C_2   0.734949 0.117571 0.483164 0.873704
O9    O     O_2   0.720357 0.169396 0.416025 -0.595103
O10   O     O_R   0.620473 0.112811 0.561221 -0.770888
H20   H     H_    0.533791 0.162484 0.556009 0.316147
H21   H     H_    0.919285 0.570116 0.214927 0.145099
H22   H     H_    0.561068 0.472916 0.166974 0.142283

loop_
_geom_bond_atom_site_label_1
_geom_bond_atom_site_label_2
_ccdc_geom_bond_type
C31   O7    A    
C30   H13   S    
C16   C21   A    
C19   C20   A    
C4    C8    A    
C14   C33   A    
Cu1   O3    S    
C25   C28   A    
C31   O8    A    
C26   C27   A    
Cu1   Cu2   S    
C24   H7    S    
C32   C36   A    
C28   C29   S    
C5    C11   A    
C3    C7    A    
C5    C6    A    
C16   C17   A    
C18   C37   S    
C34   C35   A    
C13   H2    S    
Cu2   N1    S    
C11   C15   A    
C8    C9    A    
C20   C23   S    
O10   H20   S    
C9    C10   A    
Cu2   O2    S    
C16   C24   S    
C13   C14   A    
C12   C32   S    
C29   H12   S    
C29   H10   S    
C35   H17   S    
C32   C35   A    
C1    O1    A    
C12   O4    A    
C18   C19   A    
C3    C34   A    
C2    C4    A    
C29   C30   S    
C36   H18   S    
C8    H19   S    
C12   O3    A    
C22   H5    S    
Cu2   O6    S    
Cu1   O7    S    
C31   C33   S    
C17   C18   A    
C20   C21   A    
C26   N1    A    
Cu1   N2    S    
C27   H9    S    
C23   O5    A    
C34   H16   S    
C24   H6    S    
C22   C24   S    
C9    H15   S    
C25   N1    A    
Cu1   O5    S    
C6    H22   S    
Cu2   O4    S    
C28   N2    A    
C2    C36   A    
C25   C30   S    
C30   H14   S    
C14   H21   S    
C37   O9    D    
C4    C5    A    
C10   C13   A    
C1    O2    A    
C6    C7    A    
C1    C17   S    
C23   O6    A    
C2    C3    A    
C27   N2    A    
C22   H4    S    
C15   H11   S    
Cu1   O1    S    
C10   C11   A    
C26   H8    S    
Cu2   O8    S    
C37   O10   S    
C7    H1    S    
C21   C22   S    
C15   C33   A    
C19   H3    S    
