data_mof_unit_56429.cif
_audit_creation_date              2012-12-10T20:11:11-0500
_audit_creation_method            fapswitch 2.2
_symmetry_space_group_name_H-M    P1
_symmetry_Int_Tables_number       1
_space_group_crystal_system       triclinic
_cell_length_a                    15.876479
_cell_length_b                    15.876492
_cell_length_c                    51.594184
_cell_angle_alpha                 90.000036
_cell_angle_beta                  90.000011
_cell_angle_gamma                 89.999937
_cell_volume                      13004.9740613

loop_
_atom_site_label
_atom_site_type_symbol
_atom_type_description
_atom_site_fract_x
_atom_site_fract_y
_atom_site_fract_z
_atom_type_partial_charge
C1    C     C_R   0.944789 0.554045 0.637250 -0.048163
C2    C     C_R   0.444842 0.945896 0.862748 -0.048161
C3    C     C_1   0.276618 0.223382 0.250000 -0.042661
C4    C     C_1   0.223404 0.723404 0.750000 -0.044445
C5    C     C_1   0.776618 0.276618 0.250000 -0.042661
C6    C     C_1   0.276596 0.223404 0.750000 -0.044452
C7    C     C_1   0.723382 0.776618 0.250000 -0.042661
C8    C     C_1   0.776598 0.723402 0.250000 -0.041952
C9    C     C_1   0.223382 0.276619 0.750000 -0.036127
C10   C     C_1   0.723402 0.223402 0.250000 -0.041953
C11   C     C_1   0.276619 0.776619 0.750000 -0.036119
C12   C     C_1   0.223402 0.276598 0.250000 -0.041952
C13   C     C_R   0.974706 0.427119 0.136447 -0.052723
C14   C     C_1   0.776618 0.723381 0.750000 -0.036129
C15   C     C_1   0.276597 0.776598 0.250000 -0.041952
C16   C     C_1   0.723381 0.223381 0.750000 -0.036119
C17   C     C_R   0.470312 0.068863 0.944349 0.388202
C18   C     C_R   0.522311 0.928538 0.054454 0.387570
C19   C     C_R   0.931141 0.470305 0.944349 0.388202
C20   C     C_R   0.071463 0.522312 0.054454 0.387570
C21   C     C_R   0.529689 0.931136 0.944349 0.388203
C22   C     C_R   0.477688 0.071461 0.054454 0.387570
C23   C     C_R   0.068865 0.529690 0.944349 0.388201
C24   C     C_R   0.054120 0.444854 0.862748 -0.048153
C25   C     C_R   0.928541 0.477686 0.054454 0.387570
C26   C     C_R   0.022307 0.571459 0.445546 0.387571
C27   C     C_R   0.970341 0.431120 0.555651 0.388201
C28   C     C_R   0.428538 0.022311 0.445546 0.387571
C29   C     C_R   0.568862 0.970314 0.555651 0.388206
C30   C     C_R   0.977690 0.428534 0.445546 0.387572
C31   C     C_R   0.029671 0.568867 0.555651 0.388205
C32   C     C_R   0.571461 0.977689 0.445546 0.387569
C33   C     C_R   0.431131 0.029682 0.555651 0.388205
C34   C     C_R   0.532707 0.929693 0.971852 0.004610
C35   C     C_R   0.572880 0.974703 0.136447 -0.052723
C36   C     C_R   0.470329 0.071339 0.027043 0.006565
C37   C     C_R   0.070308 0.532706 0.971852 0.004611
C38   C     C_R   0.928664 0.470325 0.027043 0.006565
C39   C     C_R   0.467294 0.070306 0.971852 0.004609
C40   C     C_R   0.529672 0.928661 0.027043 0.006565
C41   C     C_R   0.929698 0.467289 0.971852 0.004610
C42   C     C_R   0.071340 0.529672 0.027043 0.006565
C43   C     C_R   0.970333 0.428655 0.472957 0.006566
C44   C     C_R   0.032697 0.570307 0.528147 0.004608
C45   C     C_R   0.571338 0.970328 0.472957 0.006564
C46   C     C_R   0.555159 0.054104 0.862748 -0.048160
C47   C     C_R   0.429690 0.032702 0.528147 0.004609
C48   C     C_R   0.029667 0.571337 0.472957 0.006565
C49   C     C_R   0.967311 0.429683 0.528147 0.004607
C50   C     C_R   0.428660 0.029670 0.472957 0.006565
C51   C     C_R   0.570304 0.967294 0.528147 0.004611
C52   C     C_R   0.612695 0.791043 0.972491 0.093028
C53   C     C_R   0.697712 0.800231 0.965562 -0.056179
C54   C     C_R   0.740073 0.734464 0.953099 -0.100069
C55   C     C_R   0.697886 0.659324 0.947539 -0.097288
C56   C     C_R   0.613399 0.649581 0.954598 -0.108064
C57   C     C_R   0.025295 0.572880 0.136447 -0.052724
C58   C     C_R   0.570873 0.715153 0.967089 -0.060707
C59   C     C_R   0.391478 0.210204 0.026980 0.092044
C60   C     C_R   0.432335 0.287880 0.030249 -0.059784
C61   C     C_R   0.391457 0.354052 0.042944 -0.112323
C62   C     C_R   0.309563 0.343165 0.052331 -0.095613
C63   C     C_R   0.268416 0.266067 0.049018 -0.101653
C64   C     C_R   0.309175 0.199644 0.036382 -0.065623
C65   C     C_R   0.208957 0.612696 0.972492 0.093029
C66   C     C_R   0.199770 0.697714 0.965563 -0.056176
C67   C     C_R   0.265537 0.740074 0.953099 -0.100067
C68   C     C_R   0.945889 0.555149 0.862748 -0.048160
C69   C     C_R   0.340677 0.697887 0.947539 -0.097287
C70   C     C_R   0.350419 0.613399 0.954597 -0.108065
C71   C     C_R   0.284847 0.570874 0.967088 -0.060708
C72   C     C_R   0.789799 0.391474 0.026980 0.092044
C73   C     C_R   0.712124 0.432330 0.030249 -0.059782
C74   C     C_R   0.645952 0.391453 0.042944 -0.112322
C75   C     C_R   0.656839 0.309558 0.052330 -0.095613
C76   C     C_R   0.733937 0.268411 0.049017 -0.101653
C77   C     C_R   0.800360 0.309170 0.036382 -0.065624
C78   C     C_R   0.387307 0.208957 0.972491 0.093028
C79   C     C_R   0.500000 1.000000 0.985649 -0.060571
C80   C     C_R   0.302290 0.199769 0.965561 -0.056178
C81   C     C_R   0.259931 0.265535 0.953097 -0.100069
C82   C     C_R   0.302117 0.340676 0.947539 -0.097287
C83   C     C_R   0.386604 0.350419 0.954598 -0.108065
C84   C     C_R   0.429129 0.284847 0.967089 -0.060708
C85   C     C_R   0.608523 0.789796 0.026981 0.092043
C86   C     C_R   0.567668 0.712119 0.030248 -0.059786
C87   C     C_R   0.608546 0.645947 0.042943 -0.112323
C88   C     C_R   0.690439 0.656836 0.052331 -0.095613
C89   C     C_R   0.731584 0.733935 0.049019 -0.101653
C90   C     C_R   0.500000 1.000000 0.013209 -0.059854
C91   C     C_R   0.690825 0.800358 0.036383 -0.065621
C92   C     C_R   0.791047 0.387301 0.972491 0.093030
C93   C     C_R   0.800234 0.302283 0.965562 -0.056175
C94   C     C_R   0.734466 0.259924 0.953099 -0.100066
C95   C     C_R   0.659326 0.302111 0.947540 -0.097287
C96   C     C_R   0.649585 0.386599 0.954598 -0.108066
C97   C     C_R   0.715158 0.429124 0.967089 -0.060709
C98   C     C_R   0.210205 0.608524 0.026981 0.092045
C99   C     C_R   0.287881 0.567668 0.030249 -0.059786
C100  C     C_R   0.354053 0.608546 0.042944 -0.112323
C101  C     C_R   0.000003 0.499998 0.985649 -0.060570
C102  C     C_R   0.343165 0.690440 0.052331 -0.095612
C103  C     C_R   0.266067 0.731586 0.049018 -0.101653
C104  C     C_R   0.199644 0.690827 0.036382 -0.065622
C105  C     C_R   0.891482 0.289790 0.473020 0.092043
C106  C     C_R   0.932339 0.212117 0.469746 -0.059775
C107  C     C_R   0.891455 0.145948 0.457051 -0.112320
C108  C     C_R   0.809554 0.156837 0.447670 -0.095616
C109  C     C_R   0.768407 0.233932 0.450988 -0.101658
C110  C     C_R   0.809172 0.300352 0.463623 -0.065633
C111  C     C_R   0.112678 0.708960 0.527509 0.093024
C112  C     C_R   0.927119 0.474701 0.363553 -0.052724
C113  C     C_R   0.000002 0.499998 0.013209 -0.059854
C114  C     C_R   0.197691 0.699768 0.534443 -0.056191
C115  C     C_R   0.240048 0.765534 0.546907 -0.100068
C116  C     C_R   0.197864 0.840679 0.552463 -0.097284
C117  C     C_R   0.113381 0.850426 0.545400 -0.108069
C118  C     C_R   0.070858 0.784854 0.532908 -0.060705
C119  C     C_R   0.710203 0.891478 0.473020 0.092042
C120  C     C_R   0.787880 0.932335 0.469751 -0.059785
C121  C     C_R   0.854050 0.891458 0.457056 -0.112324
C122  C     C_R   0.843162 0.809564 0.447668 -0.095613
C123  C     C_R   0.766065 0.768418 0.450981 -0.101651
C124  C     C_R   0.000001 0.499996 0.486791 -0.059856
C125  C     C_R   0.699642 0.809176 0.463617 -0.065622
C126  C     C_R   0.291038 0.112686 0.527508 0.093029
C127  C     C_R   0.300224 0.197703 0.534439 -0.056181
C128  C     C_R   0.234454 0.240061 0.546902 -0.100065
C129  C     C_R   0.159312 0.197874 0.552458 -0.097283
C130  C     C_R   0.149571 0.113387 0.545399 -0.108075
C131  C     C_R   0.215146 0.070864 0.532908 -0.060713
C132  C     C_R   0.108516 0.710203 0.473019 0.092042
C133  C     C_R   0.067660 0.787880 0.469750 -0.059782
C134  C     C_R   0.108541 0.854049 0.457054 -0.112324
C135  C     C_R   0.000003 0.499995 0.514350 -0.060573
C136  C     C_R   0.190436 0.843160 0.447668 -0.095614
C137  C     C_R   0.231580 0.766061 0.450982 -0.101653
C138  C     C_R   0.190820 0.699640 0.463618 -0.065625
C139  C     C_R   0.887327 0.291031 0.527509 0.093022
C140  C     C_R   0.802321 0.300233 0.534450 -0.056179
C141  C     C_R   0.759965 0.234469 0.546916 -0.100061
C142  C     C_R   0.802143 0.159316 0.552466 -0.097281
C143  C     C_R   0.886618 0.149560 0.545396 -0.108074
C144  C     C_R   0.929140 0.215130 0.532903 -0.060718
C145  C     C_R   0.289796 0.108522 0.473019 0.092042
C146  C     C_R   0.499998 0.999999 0.486791 -0.059854
C147  C     C_R   0.212120 0.067665 0.469748 -0.059778
C148  C     C_R   0.145952 0.108544 0.457052 -0.112322
C149  C     C_R   0.156842 0.190439 0.447666 -0.095614
C150  C     C_R   0.233939 0.231585 0.450981 -0.101653
C151  C     C_R   0.300359 0.190826 0.463618 -0.065627
C152  C     C_R   0.708954 0.887306 0.527509 0.093028
C153  C     C_R   0.699765 0.802288 0.534438 -0.056187
C154  C     C_R   0.765532 0.759928 0.546902 -0.100066
C155  C     C_R   0.840673 0.802113 0.552461 -0.097284
C156  C     C_R   0.850417 0.886601 0.545402 -0.108072
C157  C     C_R   0.499998 0.999998 0.514351 -0.060571
C158  C     C_R   0.784845 0.929126 0.532911 -0.060705
C159  C     C_R   0.888311 0.614864 0.650498 0.049499
C160  C     C_R   0.921416 0.676062 0.667374 -0.063231
C161  C     C_R   0.867776 0.732553 0.680025 -0.102351
C162  C     C_R   0.780937 0.729015 0.675750 -0.087263
C163  C     C_R   0.747616 0.669153 0.658740 -0.099039
C164  C     C_R   0.801000 0.612377 0.646092 -0.089930
C165  C     C_R   0.850015 0.441912 0.350931 0.057968
C166  C     C_R   0.774247 0.487369 0.352369 -0.089629
C167  C     C_R   0.701353 0.456027 0.340576 -0.116890
C168  C     C_R   0.567925 0.860907 0.985866 -0.039425
C169  C     C_R   0.703539 0.379053 0.327428 -0.093938
C170  C     C_R   0.778541 0.333132 0.326125 -0.087296
C171  C     C_R   0.851547 0.364166 0.337919 -0.053059
C172  C     C_R   0.385062 0.888384 0.650501 0.049487
C173  C     C_R   0.387476 0.801074 0.646090 -0.089935
C174  C     C_R   0.330666 0.747729 0.658739 -0.099030
C175  C     C_R   0.270844 0.781089 0.675755 -0.087274
C176  C     C_R   0.267379 0.867928 0.680036 -0.102374
C177  C     C_R   0.323903 0.921529 0.667383 -0.063243
C178  C     C_R   0.558085 0.850014 0.350931 0.057968
C179  C     C_R   0.434304 0.139904 0.013227 -0.037948
C180  C     C_R   0.635831 0.851544 0.337919 -0.053059
C181  C     C_R   0.666864 0.778538 0.326126 -0.087296
C182  C     C_R   0.620942 0.703537 0.327428 -0.093939
C183  C     C_R   0.543967 0.701353 0.340576 -0.116891
C184  C     C_R   0.512627 0.774248 0.352369 -0.089629
C185  C     C_R   0.111690 0.385129 0.650500 0.049499
C186  C     C_R   0.078582 0.323929 0.667375 -0.063239
C187  C     C_R   0.132221 0.267441 0.680029 -0.102352
C188  C     C_R   0.219062 0.270988 0.675757 -0.087259
C189  C     C_R   0.252386 0.330851 0.658748 -0.099037
C190  C     C_R   0.139094 0.567926 0.985866 -0.039426
C191  C     C_R   0.199003 0.387623 0.646097 -0.089924
C192  C     C_R   0.149984 0.558086 0.350932 0.057968
C193  C     C_R   0.225752 0.512629 0.352369 -0.089630
C194  C     C_R   0.298646 0.543970 0.340576 -0.116890
C195  C     C_R   0.296461 0.620945 0.327429 -0.093939
C196  C     C_R   0.221459 0.666866 0.326126 -0.087297
C197  C     C_R   0.148453 0.635832 0.337920 -0.053059
C198  C     C_R   0.614935 0.111616 0.650500 0.049487
C199  C     C_R   0.612521 0.198926 0.646089 -0.089937
C200  C     C_R   0.669332 0.252271 0.658738 -0.099032
C201  C     C_R   0.860100 0.434300 0.013227 -0.037948
C202  C     C_R   0.729155 0.218911 0.675753 -0.087274
C203  C     C_R   0.732620 0.132072 0.680034 -0.102375
C204  C     C_R   0.676095 0.078471 0.667382 -0.063243
C205  C     C_R   0.441916 0.149986 0.350932 0.057968
C206  C     C_R   0.364170 0.148456 0.337919 -0.053059
C207  C     C_R   0.333137 0.221462 0.326126 -0.087296
C208  C     C_R   0.379059 0.296463 0.327429 -0.093939
C209  C     C_R   0.456034 0.298647 0.340576 -0.116891
C210  C     C_R   0.487375 0.225752 0.352369 -0.089630
C211  C     C_R   0.350015 0.058087 0.149068 0.057968
C212  C     C_R   0.432076 0.139093 0.985866 -0.039426
C213  C     C_R   0.351547 0.135833 0.162081 -0.053058
C214  C     C_R   0.278542 0.166868 0.173874 -0.087296
C215  C     C_R   0.203540 0.120948 0.172572 -0.093939
C216  C     C_R   0.201354 0.043973 0.159424 -0.116890
C217  C     C_R   0.274247 0.012631 0.147631 -0.089630
C218  C     C_R   0.388429 0.885020 0.849498 0.049479
C219  C     C_R   0.301118 0.887394 0.853911 -0.089927
C220  C     C_R   0.247797 0.830563 0.841262 -0.099005
C221  C     C_R   0.281181 0.770759 0.824244 -0.087280
C222  C     C_R   0.368020 0.767334 0.819962 -0.102393
C223  C     C_R   0.445915 0.944821 0.637251 -0.048157
C224  C     C_R   0.565696 0.860096 0.013227 -0.037947
C225  C     C_R   0.421598 0.823879 0.832615 -0.063254
C226  C     C_R   0.941918 0.350013 0.149068 0.057968
C227  C     C_R   0.987378 0.274247 0.147631 -0.089630
C228  C     C_R   0.956038 0.201352 0.159424 -0.116891
C229  C     C_R   0.879063 0.203535 0.172571 -0.093939
C230  C     C_R   0.833140 0.278535 0.173874 -0.087296
C231  C     C_R   0.864172 0.351542 0.162080 -0.053058
C232  C     C_R   0.115012 0.388460 0.849497 0.049477
C233  C     C_R   0.176128 0.421644 0.832608 -0.063245
C234  C     C_R   0.232691 0.368082 0.819956 -0.102399
C235  C     C_R   0.860911 0.432070 0.985866 -0.039426
C236  C     C_R   0.229310 0.281246 0.824245 -0.087288
C237  C     C_R   0.169533 0.247848 0.841268 -0.099004
C238  C     C_R   0.112682 0.301152 0.853917 -0.089938
C239  C     C_R   0.649985 0.941913 0.149068 0.057968
C240  C     C_R   0.648453 0.864167 0.162081 -0.053059
C241  C     C_R   0.721459 0.833133 0.173874 -0.087297
C242  C     C_R   0.796461 0.879054 0.172572 -0.093939
C243  C     C_R   0.798646 0.956028 0.159424 -0.116890
C244  C     C_R   0.725752 0.987370 0.147631 -0.089630
C245  C     C_R   0.611571 0.114980 0.849498 0.049479
C246  C     C_R   0.139905 0.565697 0.013227 -0.037948
C247  C     C_R   0.698882 0.112605 0.853911 -0.089927
C248  C     C_R   0.752203 0.169436 0.841261 -0.099005
C249  C     C_R   0.718819 0.229240 0.824244 -0.087279
C250  C     C_R   0.631980 0.232667 0.819962 -0.102394
C251  C     C_R   0.578402 0.176121 0.832615 -0.063255
C252  C     C_R   0.058082 0.649987 0.149068 0.057969
C253  C     C_R   0.012623 0.725753 0.147630 -0.089631
C254  C     C_R   0.043962 0.798648 0.159423 -0.116891
C255  C     C_R   0.120937 0.796465 0.172571 -0.093939
C256  C     C_R   0.166860 0.721465 0.173874 -0.087296
C257  C     C_R   0.934314 0.360087 0.486772 -0.037944
C258  C     C_R   0.135828 0.648458 0.162080 -0.053058
C259  C     C_R   0.885009 0.611556 0.849499 0.049474
C260  C     C_R   0.823874 0.578384 0.832613 -0.063256
C261  C     C_R   0.767326 0.631959 0.819961 -0.102394
C262  C     C_R   0.770741 0.718798 0.824244 -0.087280
C263  C     C_R   0.830538 0.752184 0.841264 -0.099005
C264  C     C_R   0.887373 0.698866 0.853913 -0.089928
C265  C     C_R   0.067911 0.639096 0.514134 -0.039423
C266  C     C_R   0.639903 0.934304 0.486772 -0.037948
C267  C     C_R   0.360903 0.067919 0.514133 -0.039424
C268  C     C_R   0.065687 0.639905 0.486772 -0.037944
C269  C     C_R   0.932094 0.360895 0.514134 -0.039422
C270  C     C_R   0.360094 0.065693 0.486772 -0.037948
C271  C     C_R   0.525297 0.927120 0.363553 -0.052724
C272  C     C_R   0.639091 0.932076 0.514134 -0.039424
C273  C     C_R   0.944889 0.552539 0.610072 -0.071015
C274  C     C_R   0.927545 0.477242 0.390713 -0.074931
C275  C     C_R   0.447420 0.944917 0.610073 -0.071005
C276  C     C_R   0.522756 0.927546 0.390714 -0.074932
C277  C     C_R   0.055117 0.447451 0.610073 -0.071009
C278  C     C_R   0.072453 0.522754 0.390714 -0.074933
C279  C     C_R   0.552574 0.055082 0.610073 -0.071005
C280  C     C_R   0.477246 0.072454 0.390714 -0.074931
C281  C     C_R   0.427546 0.022756 0.109286 -0.074932
C282  C     C_R   0.055214 0.445947 0.637251 -0.048165
C283  C     C_R   0.444937 0.947402 0.889926 -0.071007
C284  C     C_R   0.977248 0.427545 0.109286 -0.074932
C285  C     C_R   0.052613 0.444947 0.889926 -0.071004
C286  C     C_R   0.572454 0.977244 0.109286 -0.074933
C287  C     C_R   0.555064 0.052597 0.889926 -0.071006
C288  C     C_R   0.022755 0.572454 0.109286 -0.074932
C289  C     C_R   0.947395 0.555052 0.889926 -0.071004
C290  C     C_R   0.000004 0.499995 0.596467 0.217797
C291  C     C_R   0.999999 0.499997 0.404441 0.206887
C292  C     C_R   0.499996 0.999999 0.596467 0.217789
C293  C     C_R   0.072879 0.525296 0.363553 -0.052723
C294  C     C_R   0.500001 0.000000 0.404441 0.206888
C295  C     C_R   0.500000 1.000000 0.095558 0.206887
C296  C     C_R   0.500000 1.000000 0.903532 0.217776
C297  C     C_R   0.000001 0.499999 0.095558 0.206887
C298  C     C_R   0.000003 0.499998 0.903532 0.217772
C299  C     C_R   1.000000 0.500000 0.820138 0.493807
C300  C     C_R   1.000000 0.500000 0.179664 0.493517
C301  C     C_R   0.500000 1.000000 0.820138 0.493812
C302  C     C_R   0.500000 1.000000 0.179664 0.493517
C303  C     C_R   0.500000 1.000000 0.320336 0.493517
C304  C     C_R   0.554081 0.055179 0.637251 -0.048156
C305  C     C_R   0.500000 1.000000 0.679862 0.493811
C306  C     C_R   1.000000 0.500000 0.320336 0.493517
C307  C     C_R   1.000000 0.499999 0.679861 0.493814
C308  C     C_R   0.839700 0.660299 0.750000 0.512672
C309  C     C_R   0.160307 0.339693 0.250000 0.509365
C310  C     C_R   0.339701 0.839700 0.750000 0.512678
C311  C     C_R   0.660307 0.160307 0.250000 0.509365
C312  C     C_R   0.160300 0.339701 0.750000 0.512673
C313  C     C_R   0.839692 0.660307 0.250000 0.509364
C314  C     C_R   0.660299 0.160300 0.750000 0.512679
C315  C     C_R   0.474704 0.072880 0.363553 -0.052723
C316  C     C_R   0.339693 0.839692 0.250000 0.509365
C317  C     C_R   0.839700 0.339700 0.250000 0.507888
C318  C     C_R   0.160309 0.660309 0.750000 0.502627
C319  C     C_R   0.339700 0.160300 0.250000 0.507889
C320  C     C_R   0.660309 0.839691 0.750000 0.502628
C321  C     C_R   0.160300 0.660300 0.250000 0.507889
C322  C     C_R   0.839691 0.339691 0.750000 0.502629
C323  C     C_R   0.660300 0.839700 0.250000 0.507888
C324  C     C_R   0.339691 0.160309 0.750000 0.502626
C325  C     C_R   0.000001 0.499997 0.651154 0.012315
C326  C     C_R   0.427120 0.025297 0.136447 -0.052723
C327  C     C_R   1.000000 0.499999 0.349369 0.001994
C328  C     C_R   0.499999 1.000000 0.651154 0.012328
C329  C     C_R   0.500000 1.000000 0.349369 0.001993
C330  C     C_R   0.500000 0.000000 0.150631 0.001993
C331  C     C_R   0.500000 1.000000 0.848845 0.012332
C332  C     C_R   0.000000 0.500000 0.150631 0.001993
C333  C     C_R   0.000002 0.500001 0.848845 0.012338
C334  C     C_1   0.776596 0.276596 0.750000 -0.044445
C335  C     C_1   0.223382 0.723382 0.250000 -0.042661
C336  C     C_1   0.723404 0.776596 0.750000 -0.044452
H1    H     H_    0.730873 0.858231 0.969802 0.092079
H2    H     H_    0.276789 0.140170 0.033854 0.089827
H3    H     H_    0.680360 0.666613 0.655398 0.111436
H4    H     H_    0.774273 0.565952 0.633091 0.101327
H5    H     H_    0.771858 0.547153 0.362459 0.102936
H6    H     H_    0.643167 0.491404 0.341628 0.094394
H7    H     H_    0.647119 0.354913 0.318286 0.115754
H8    H     H_    0.780106 0.273502 0.315965 0.106502
H9    H     H_    0.909287 0.328002 0.336833 0.097623
H10   H     H_    0.433869 0.774317 0.633085 0.101328
H11   H     H_    0.333148 0.680474 0.655393 0.111447
H12   H     H_    0.227098 0.739681 0.685588 0.117447
H13   H     H_    0.141770 0.730875 0.969802 0.092079
H14   H     H_    0.220891 0.893714 0.693169 0.099449
H15   H     H_    0.320156 0.988754 0.670771 0.096179
H16   H     H_    0.671996 0.909284 0.336833 0.097624
H17   H     H_    0.726494 0.780101 0.315966 0.106502
H18   H     H_    0.645080 0.647116 0.318287 0.115753
H19   H     H_    0.508589 0.643167 0.341629 0.094394
H20   H     H_    0.452842 0.771860 0.362459 0.102936
H21   H     H_    0.011357 0.320122 0.670757 0.096167
H22   H     H_    0.106464 0.220921 0.693157 0.099442
H23   H     H_    0.260500 0.227274 0.685591 0.117479
H24   H     H_    0.258251 0.805569 0.947725 0.102203
H25   H     H_    0.319643 0.333397 0.655409 0.111435
H26   H     H_    0.225731 0.434049 0.633098 0.101329
H27   H     H_    0.228140 0.452844 0.362459 0.102936
H28   H     H_    0.356832 0.508594 0.341629 0.094394
H29   H     H_    0.352882 0.645084 0.318288 0.115753
H30   H     H_    0.219895 0.726497 0.315966 0.106502
H31   H     H_    0.090712 0.671996 0.336834 0.097624
H32   H     H_    0.566127 0.225683 0.633083 0.101326
H33   H     H_    0.666850 0.319526 0.655392 0.111446
H34   H     H_    0.772902 0.260319 0.685586 0.117446
H35   H     H_    0.391395 0.730762 0.937825 0.133828
H36   H     H_    0.779109 0.106286 0.693168 0.099449
H37   H     H_    0.679842 0.011246 0.670770 0.096179
H38   H     H_    0.328004 0.090716 0.336834 0.097624
H39   H     H_    0.273506 0.219899 0.315966 0.106502
H40   H     H_    0.354920 0.352884 0.318287 0.115753
H41   H     H_    0.491412 0.356833 0.341629 0.094394
H42   H     H_    0.547159 0.228140 0.362459 0.102938
H43   H     H_    0.409288 0.171997 0.163167 0.097623
H44   H     H_    0.280107 0.226498 0.184035 0.106502
H45   H     H_    0.147119 0.145087 0.181713 0.115754
H46   H     H_    0.408788 0.580913 0.950418 0.091994
H47   H     H_    0.143167 0.008597 0.158371 0.094393
H48   H     H_    0.271858 0.952847 0.137541 0.102936
H49   H     H_    0.274343 0.933773 0.866918 0.101330
H50   H     H_    0.180541 0.833014 0.844609 0.111483
H51   H     H_    0.239790 0.726996 0.814412 0.117417
H52   H     H_    0.393824 0.720860 0.806827 0.099445
H53   H     H_    0.488824 0.820163 0.829225 0.096176
H54   H     H_    0.047163 0.271860 0.137541 0.102936
H55   H     H_    0.991416 0.143167 0.158371 0.094394
H56   H     H_    0.854925 0.147114 0.181712 0.115752
H57   H     H_    0.293018 0.505680 0.972632 0.094111
H58   H     H_    0.773509 0.280098 0.184034 0.106503
H59   H     H_    0.828006 0.409282 0.163166 0.097624
H60   H     H_    0.179813 0.488868 0.829213 0.096175
H61   H     H_    0.279145 0.393898 0.806816 0.099446
H62   H     H_    0.273087 0.239869 0.814413 0.117404
H63   H     H_    0.167116 0.180594 0.844622 0.111493
H64   H     H_    0.066324 0.274365 0.866928 0.101328
H65   H     H_    0.590712 0.828003 0.163166 0.097624
H66   H     H_    0.719894 0.773502 0.184034 0.106502
H67   H     H_    0.852881 0.854914 0.181713 0.115754
H68   H     H_    0.703059 0.495536 0.022913 0.096810
H69   H     H_    0.856833 0.991405 0.158371 0.094394
H70   H     H_    0.728141 0.047155 0.137541 0.102936
H71   H     H_    0.725657 0.066226 0.866917 0.101332
H72   H     H_    0.819459 0.166984 0.844608 0.111487
H73   H     H_    0.760209 0.273003 0.814411 0.117419
H74   H     H_    0.606175 0.279141 0.806827 0.099445
H75   H     H_    0.511175 0.179838 0.829226 0.096174
H76   H     H_    0.952838 0.728139 0.137541 0.102937
H77   H     H_    0.008583 0.856833 0.158370 0.094394
H78   H     H_    0.145074 0.852887 0.181712 0.115752
H79   H     H_    0.586208 0.423173 0.045462 0.090146
H80   H     H_    0.226491 0.719903 0.184034 0.106503
H81   H     H_    0.171995 0.590719 0.163166 0.097624
H82   H     H_    0.820165 0.511158 0.829223 0.096178
H83   H     H_    0.720857 0.606152 0.806824 0.099446
H84   H     H_    0.726977 0.760185 0.814411 0.117415
H85   H     H_    0.832982 0.819440 0.844612 0.111484
H86   H     H_    0.933746 0.725644 0.866921 0.101333
H87   H     H_    0.605508 0.277925 0.062124 0.149921
H88   H     H_    0.742198 0.204936 0.056235 0.106672
H89   H     H_    0.805567 0.741750 0.947724 0.102203
H90   H     H_    0.859834 0.276784 0.033854 0.089827
H91   H     H_    0.269129 0.141768 0.969800 0.092078
H92   H     H_    0.194436 0.258249 0.947722 0.102202
H93   H     H_    0.269242 0.391394 0.937824 0.133822
H94   H     H_    0.419090 0.408789 0.950419 0.091993
H95   H     H_    0.494322 0.293019 0.972634 0.094110
H96   H     H_    0.504463 0.703053 0.022912 0.096809
H97   H     H_    0.576827 0.586203 0.045461 0.090145
H98   H     H_    0.722073 0.605505 0.062125 0.149919
H99   H     H_    0.795058 0.742198 0.056237 0.106671
H100  H     H_    0.730762 0.608605 0.937825 0.133820
H101  H     H_    0.723209 0.859833 0.033856 0.089827
H102  H     H_    0.858233 0.269122 0.969802 0.092080
H103  H     H_    0.741752 0.194429 0.947724 0.102204
H104  H     H_    0.608607 0.269236 0.937826 0.133828
H105  H     H_    0.591216 0.419085 0.950419 0.091994
H106  H     H_    0.706987 0.494318 0.972633 0.094110
H107  H     H_    0.296947 0.504462 0.022913 0.096810
H108  H     H_    0.413797 0.576827 0.045461 0.090146
H109  H     H_    0.394496 0.722073 0.062124 0.149924
H110  H     H_    0.257804 0.795060 0.056236 0.106672
H111  H     H_    0.580913 0.591211 0.950419 0.091993
H112  H     H_    0.140169 0.723212 0.033855 0.089827
H113  H     H_    0.995549 0.203051 0.477078 0.096810
H114  H     H_    0.923174 0.086207 0.454529 0.090150
H115  H     H_    0.777916 0.105508 0.437876 0.149926
H116  H     H_    0.704928 0.242195 0.443775 0.106673
H117  H     H_    0.776787 0.359824 0.466155 0.089828
H118  H     H_    0.230850 0.641764 0.530207 0.092074
H119  H     H_    0.305540 0.758244 0.552285 0.102202
H120  H     H_    0.230738 0.891397 0.562178 0.133839
H121  H     H_    0.080897 0.908798 0.549576 0.091988
H122  H     H_    0.505679 0.706982 0.972633 0.094111
H123  H     H_    0.005668 0.793028 0.527361 0.094114
H124  H     H_    0.796945 0.995540 0.477088 0.096811
H125  H     H_    0.913794 0.923177 0.454538 0.090143
H126  H     H_    0.894493 0.777932 0.437874 0.149922
H127  H     H_    0.757802 0.704944 0.443763 0.106673
H128  H     H_    0.640167 0.776791 0.466145 0.089827
H129  H     H_    0.358225 0.230864 0.530201 0.092077
H130  H     H_    0.241739 0.305555 0.552277 0.102208
H131  H     H_    0.108591 0.230748 0.562171 0.133882
H132  H     H_    0.091201 0.080901 0.549576 0.091995
H133  H     H_    0.495540 0.296945 0.022913 0.096809
H134  H     H_    0.206976 0.005671 0.527363 0.094115
H135  H     H_    0.004454 0.796946 0.477085 0.096809
H136  H     H_    0.076822 0.913793 0.454535 0.090144
H137  H     H_    0.222071 0.894489 0.437874 0.149918
H138  H     H_    0.295056 0.757798 0.443765 0.106672
H139  H     H_    0.223204 0.640166 0.466147 0.089827
H140  H     H_    0.769166 0.358243 0.530219 0.092075
H141  H     H_    0.694479 0.241766 0.552300 0.102199
H142  H     H_    0.769270 0.108600 0.562182 0.133835
H143  H     H_    0.919098 0.091182 0.549569 0.091981
H144  H     H_    0.423177 0.413796 0.045462 0.090146
H145  H     H_    0.994325 0.206948 0.527351 0.094112
H146  H     H_    0.203054 0.004459 0.477083 0.096810
H147  H     H_    0.086209 0.076824 0.454532 0.090144
H148  H     H_    0.105513 0.222073 0.437871 0.149917
H149  H     H_    0.242202 0.295060 0.443764 0.106671
H150  H     H_    0.359833 0.223211 0.466147 0.089826
H151  H     H_    0.641765 0.769128 0.530199 0.092076
H152  H     H_    0.758245 0.694433 0.552276 0.102204
H153  H     H_    0.891392 0.769237 0.562174 0.133864
H154  H     H_    0.908787 0.919085 0.549581 0.091993
H155  H     H_    0.277929 0.394496 0.062124 0.149921
H156  H     H_    0.793017 0.994320 0.527367 0.094114
H157  H     H_    0.902941 0.593577 0.599328 0.122939
H158  H     H_    0.871407 0.459452 0.401356 0.136551
H159  H     H_    0.406355 0.902994 0.599330 0.122950
H160  H     H_    0.540545 0.871408 0.401356 0.136548
H161  H     H_    0.097066 0.406412 0.599330 0.122945
H162  H     H_    0.128590 0.540543 0.401357 0.136547
H163  H     H_    0.593638 0.097005 0.599329 0.122947
H164  H     H_    0.459457 0.128593 0.401356 0.136548
H165  H     H_    0.371408 0.040546 0.098643 0.136549
H166  H     H_    0.204941 0.257805 0.056235 0.106672
H167  H     H_    0.403029 0.906322 0.900670 0.122964
H168  H     H_    0.959460 0.371406 0.098643 0.136549
H169  H     H_    0.093702 0.403048 0.900669 0.122967
H170  H     H_    0.628592 0.959454 0.098643 0.136548
H171  H     H_    0.596972 0.093677 0.900670 0.122965
H172  H     H_    0.040542 0.628593 0.098643 0.136549
H173  H     H_    0.906308 0.596952 0.900670 0.122969
H174  H     H_    0.988640 0.679863 0.670758 0.096166
H175  H     H_    0.893532 0.779072 0.693154 0.099442
H176  H     H_    0.739500 0.772734 0.685581 0.117478
N1    N     N_R   0.500001 1.000000 0.931478 -0.394544
N2    N     N_R   0.500000 1.000000 0.067496 -0.391879
N3    N     N_R   0.000003 0.499997 0.931478 -0.394543
N4    N     N_R   0.000002 0.499999 0.067496 -0.391878
N5    N     N_R   0.999998 0.499997 0.432503 -0.391879
N6    N     N_R   0.000006 0.499994 0.568521 -0.394547
N7    N     N_R   0.500000 1.000000 0.432503 -0.391879
N8    N     N_R   0.499996 0.999998 0.568521 -0.394546
O1    O     O_3   1.000000 0.500000 0.750000 -0.432169
O2    O     O_R   0.000000 0.430630 0.192350 -0.533109
O3    O     O_R   0.430630 1.000000 0.807650 -0.535001
O4    O     O_R   0.569370 1.000000 0.192350 -0.533109
O5    O     O_R   0.500000 0.930630 0.307650 -0.533109
O6    O     O_R   0.500000 0.069370 0.692350 -0.534999
O7    O     O_R   0.069370 0.500000 0.307650 -0.533109
O8    O     O_R   0.930630 0.500000 0.692350 -0.534994
O9    O     O_R   0.500000 0.069370 0.307650 -0.533109
O10   O     O_R   0.500000 0.930630 0.692350 -0.535000
O11   O     O_R   0.930630 0.500000 0.307650 -0.533109
O12   O     O_3   0.000000 0.500000 0.250000 -0.431632
O13   O     O_R   0.069370 0.500000 0.692350 -0.534993
O14   O     O_R   0.902350 0.666510 0.764820 -0.529836
O15   O     O_R   0.097650 0.333490 0.235180 -0.536826
O16   O     O_R   0.333490 0.902350 0.764820 -0.529840
O17   O     O_R   0.666510 0.097650 0.235180 -0.536826
O18   O     O_R   0.097650 0.333490 0.764820 -0.529835
O19   O     O_R   0.902350 0.666510 0.235180 -0.536826
O20   O     O_R   0.666510 0.097650 0.764820 -0.529840
O21   O     O_R   0.333490 0.902350 0.235180 -0.536826
O22   O     O_R   0.902350 0.333490 0.235180 -0.532952
O23   O     O_3   0.500000 1.000000 0.750000 -0.432167
O24   O     O_R   0.097650 0.666510 0.764820 -0.538928
O25   O     O_R   0.333490 0.097650 0.235180 -0.532952
O26   O     O_R   0.666510 0.902350 0.764820 -0.538923
O27   O     O_R   0.097650 0.666510 0.235180 -0.532952
O28   O     O_R   0.902350 0.333490 0.764820 -0.538927
O29   O     O_R   0.666510 0.902350 0.235180 -0.532952
O30   O     O_R   0.333490 0.097650 0.764820 -0.538918
O31   O     O_R   0.402350 0.166510 0.264820 -0.532951
O32   O     O_R   0.597650 0.833490 0.735180 -0.538949
O33   O     O_R   0.833490 0.402350 0.264820 -0.532951
O34   O     O_3   0.500000 1.000000 0.250000 -0.431632
O35   O     O_R   0.166510 0.597650 0.735180 -0.538937
O36   O     O_R   0.597650 0.833490 0.264820 -0.532951
O37   O     O_R   0.402350 0.166510 0.735180 -0.538952
O38   O     O_R   0.166510 0.597650 0.264820 -0.532951
O39   O     O_R   0.833490 0.402350 0.735180 -0.538936
O40   O     O_R   0.402350 0.833490 0.735180 -0.529851
O41   O     O_R   0.597650 0.166510 0.264820 -0.536827
O42   O     O_R   0.833490 0.597650 0.735180 -0.529855
O43   O     O_R   0.166510 0.402350 0.264820 -0.536826
O44   O     O_R   0.597650 0.166510 0.735180 -0.529851
O45   O     O_R   0.000000 0.430630 0.807650 -0.535002
O46   O     O_R   0.402350 0.833490 0.264820 -0.536826
O47   O     O_R   0.166510 0.402350 0.735180 -0.529856
O48   O     O_R   0.833490 0.597650 0.264820 -0.536827
O49   O     O_2   0.443999 0.135447 0.930292 -0.503395
O50   O     O_2   0.535503 0.857328 0.068111 -0.512214
O51   O     O_2   0.864560 0.443986 0.930292 -0.503392
O52   O     O_2   0.142673 0.535506 0.068111 -0.512213
O53   O     O_2   0.556002 0.864552 0.930292 -0.503394
O54   O     O_2   0.464496 0.142672 0.068111 -0.512213
O55   O     O_2   0.135446 0.556009 0.930292 -0.503394
O56   O     O_R   1.000000 0.569370 0.192350 -0.533109
O57   O     O_2   0.857331 0.464492 0.068111 -0.512212
O58   O     O_2   0.035496 0.642671 0.431889 -0.512213
O59   O     O_2   0.944065 0.364522 0.569707 -0.503398
O60   O     O_2   0.357328 0.035502 0.431888 -0.512212
O61   O     O_2   0.635448 0.944007 0.569708 -0.503387
O62   O     O_2   0.964497 0.357324 0.431888 -0.512214
O63   O     O_2   0.055953 0.635464 0.569708 -0.503393
O64   O     O_2   0.642673 0.964498 0.431889 -0.512214
O65   O     O_2   0.364544 0.055988 0.569708 -0.503388
O66   O     O_R   0.569370 1.000000 0.807650 -0.535001
O67   O     O_R   0.430630 1.000000 0.192350 -0.533109
O68   O     O_R   1.000000 0.569370 0.807650 -0.535004
Zn1   Zn    Zn3+2 0.900880 0.500000 0.727850 0.938648
Zn2   Zn    Zn3+2 0.599120 1.000000 0.772150 0.938661
Zn3   Zn    Zn3+2 0.000000 0.400880 0.227850 0.940676
Zn4   Zn    Zn3+2 0.000000 0.599120 0.772150 0.938658
Zn5   Zn    Zn3+2 0.599120 1.000000 0.227850 0.940677
Zn6   Zn    Zn3+2 0.400880 1.000000 0.772150 0.938664
Zn7   Zn    Zn3+2 0.000000 0.599120 0.227850 0.940676
Zn8   Zn    Zn3+2 0.000000 0.400880 0.772150 0.938661
Zn9   Zn    Zn3+2 0.099120 0.500000 0.272150 0.940676
Zn10  Zn    Zn3+2 0.500000 0.900880 0.727850 0.938642
Zn11  Zn    Zn3+2 0.500000 0.099120 0.272150 0.940676
Zn12  Zn    Zn3+2 0.099120 0.500000 0.727850 0.938646
Zn13  Zn    Zn3+2 0.900880 0.500000 0.272150 0.940676
Zn14  Zn    Zn3+2 0.500000 0.099120 0.727850 0.938641
Zn15  Zn    Zn3+2 0.500000 0.900880 0.272150 0.940676
Zn16  Zn    Zn3+2 0.400880 1.000000 0.227850 0.940676

loop_
_geom_bond_atom_site_label_1
_geom_bond_atom_site_label_2
_ccdc_geom_bond_type
C172  C177  A    
C105  C110  A    
C192  C293  S    
C4    C318  S    
C101  C113  A    
C93   H102  S    
O41   Zn11  S    
O44   Zn14  S    
C253  H76   S    
C87   C88   A    
O43   Zn9   S    
C114  C115  A    
C5    C317  S    
C146  C157  A    
C180  C181  A    
C278  C291  A    
C250  H74   S    
O10   Zn10  S    
C66   H13   S    
O35   Zn12  S    
C292  N8    S    
C213  H43   S    
C144  H145  S    
C106  C107  A    
C160  H174  S    
C143  C144  A    
C284  C297  A    
C108  C109  A    
C307  O13   A    
O8    Zn1   S    
C284  H168  S    
O32   Zn10  S    
C18   C40   A    
C182  C183  A    
C79   C90   A    
C2    C218  S    
C62   H155  S    
C50   C270  A    
C227  H54   S    
C305  C328  S    
C324  O30   A    
C228  H55   S    
C88   H98   S    
C3    C319  S    
C277  C282  A    
C185  C282  S    
C29   O61   S    
O7    Zn9   S    
O38   Zn9   S    
C181  H17   S    
C243  H69   S    
C44   C135  A    
C59   C60   A    
C237  H63   S    
O9    Zn11  S    
C68   C289  A    
O5    Zn15  S    
C238  H64   S    
C255  H78   S    
C171  H9    S    
C36   C179  A    
C176  H14   S    
C228  C229  A    
C206  H38   S    
C57   C288  A    
C18   N2    A    
C202  C203  A    
C290  N6    S    
C252  C258  A    
C202  H34   S    
C1    C159  S    
C35   C239  S    
C140  C141  A    
C114  H118  S    
C83   H94   S    
C206  C207  A    
C153  H151  S    
C23   C37   A    
C51   C157  A    
C107  H114  S    
C286  H170  S    
C306  C327  S    
O56   Zn7   S    
C229  C230  A    
C312  O47   A    
C22   O54   S    
C276  C294  A    
C130  H132  S    
C118  H123  S    
C121  H125  S    
C296  N1    S    
O23   Zn14  S    
O12   Zn9   S    
C319  O31   A    
C300  O56   A    
C33   N8    A    
C256  H80   S    
C154  C155  A    
C52   C58   A    
C111  C118  A    
C198  C204  A    
C33   C47   A    
C308  O42   A    
C30   C43   A    
C78   C212  S    
C302  C330  S    
C29   N8    A    
C134  H136  S    
C178  C271  S    
C47   C267  A    
C205  C206  A    
C279  C304  A    
C124  C135  A    
C298  N3    S    
C221  H51   S    
C299  O45   A    
C72   C73   A    
C20   C42   A    
C139  C140  A    
C13   C284  A    
C44   C265  A    
C22   C36   A    
C288  H172  S    
C222  C225  A    
C199  H32   S    
C156  C158  A    
C130  C131  A    
C186  H21   S    
C251  H75   S    
C131  H134  S    
C148  H147  S    
C117  H121  S    
C112  C165  S    
C236  H62   S    
C67   H24   S    
O34   Zn16  S    
C148  C149  A    
C214  H44   S    
C97   H106  S    
C85   C224  S    
C27   O59   S    
O1    Zn8   S    
C195  C196  A    
C187  C188  A    
C88   C89   A    
C200  C202  A    
C193  C194  A    
C230  H58   S    
C155  C156  A    
C172  C223  S    
C196  H30   S    
C281  C326  A    
C43   C257  A    
C186  C187  A    
C149  C150  A    
C187  H22   S    
C252  C253  A    
C281  H165  S    
C165  C171  A    
C60   H133  S    
C285  C298  A    
C95   C96   A    
C147  C148  A    
C82   H93   S    
C128  C129  A    
C6    C9    T    
C7    C8    T    
C32   O64   S    
C85   C86   A    
C249  C250  A    
C249  H73   S    
O45   Zn8   S    
C219  H49   S    
C309  O43   A    
C275  C292  A    
C91   H101  S    
C247  H71   S    
C253  C254  A    
C34   C79   A    
C267  C270  A    
C78   C80   A    
C248  H72   S    
C170  C171  A    
C17   N1    A    
C115  C116  A    
C68   C333  A    
C236  C237  A    
C241  C242  A    
C15   C316  S    
C183  H19   S    
C299  O68   A    
C189  C191  A    
C17   C39   A    
C174  C175  A    
C92   C93   A    
C154  H152  S    
C210  H42   S    
C256  C258  A    
C241  H66   S    
C280  C294  A    
C107  C108  A    
C231  H59   S    
C89   C91   A    
C28   N7    A    
C175  H12   S    
C125  H128  S    
C21   O53   S    
C259  C260  A    
C23   O55   S    
C66   C67   A    
C49   C135  A    
C322  O28   A    
C237  C238  A    
C21   N1    A    
C69   C70   A    
O34   Zn5   S    
C258  H81   S    
C220  C221  A    
C30   O62   S    
C92   C97   A    
C216  H47   S    
C86   H96   S    
C271  C276  A    
C190  C246  A    
C111  C265  S    
C229  H56   S    
C300  O2    A    
C41   C235  A    
C80   H91   S    
C179  C212  A    
C145  C270  S    
O1    Zn4   S    
C207  H39   S    
C221  C222  A    
C25   C38   A    
C83   C84   A    
C209  C210  A    
C287  H171  S    
C26   N5    A    
C145  C151  A    
C306  O7    A    
C233  H60   S    
C266  C272  A    
C150  H149  S    
C264  H86   S    
O67   Zn16  S    
C31   N6    A    
C33   O65   S    
O48   Zn13  S    
C271  C329  A    
C98   C99   A    
C293  C327  A    
C143  H143  S    
C116  H120  S    
C257  C269  A    
C155  H153  S    
C279  H163  S    
C120  C121  A    
C109  H116  S    
C277  H161  S    
C129  C130  A    
C47   C157  A    
C81   H92   S    
C36   C90   A    
C309  O15   A    
C163  H3    S    
C54   C55   A    
C42   C246  A    
O18   Zn8   S    
C100  H108  S    
C25   N4    A    
C140  H140  S    
C313  O48   A    
O68   Zn4   S    
C136  C137  A    
C137  H138  S    
C262  C263  A    
C14   C336  T    
C299  C333  S    
O12   Zn13  S    
C225  H53   S    
C301  C331  S    
C291  N5    S    
C6    C324  S    
C294  N7    S    
C177  H15   S    
C191  H26   S    
C37   C101  A    
C205  C210  A    
O28   Zn8   S    
C302  O67   A    
C147  H146  S    
C56   C58   A    
C39   C212  A    
C106  H113  S    
O40   Zn10  S    
C102  C103  A    
C63   C64   A    
C133  H135  S    
C301  O3    A    
C152  C153  A    
C226  C227  A    
C150  C151  A    
O34   Zn11  S    
O15   Zn3   S    
C307  O8    A    
C27   C49   A    
C273  H157  S    
C55   C56   A    
C321  C335  S    
C8    C313  S    
C73   C74   A    
C239  C240  A    
C13   C332  A    
O31   Zn11  S    
C324  O37   A    
C161  C162  A    
C123  H127  S    
C263  C264  A    
C103  H110  S    
C16   C314  S    
C213  C214  A    
C52   C53   A    
C211  C326  S    
C64   H2    S    
C93   C94   A    
O23   Zn6   S    
C234  C236  A    
C20   N4    A    
C46   C287  A    
C261  H83   S    
C308  O14   A    
C28   O60   S    
C112  C274  A    
C98   C246  S    
O1    Zn12  S    
C29   C51   A    
C205  C315  S    
C123  C125  A    
C94   H103  S    
C132  C138  A    
C243  C244  A    
C161  H175  S    
C312  O18   A    
O47   Zn12  S    
C63   H166  S    
O6    Zn14  S    
C314  O44   A    
C193  H27   S    
C16   C334  T    
C222  H52   S    
C204  H37   S    
C208  C209  A    
C217  H48   S    
C326  C330  A    
C220  H50   S    
C288  C297  A    
C208  H40   S    
C185  C191  A    
C70   C71   A    
C315  C329  A    
C26   C48   A    
C305  O6    A    
C50   C146  A    
C31   O63   S    
C194  C195  A    
C245  C251  A    
C75   H87   S    
O30   Zn6   S    
O17   Zn5   S    
O29   Zn5   S    
C304  C328  A    
C34   C168  A    
C145  C147  A    
C127  H129  S    
C76   H88   S    
C89   H99   S    
C211  C217  A    
C152  C158  A    
C322  O39   A    
C317  O33   A    
C207  C208  A    
C26   O58   S    
C24   C333  A    
C25   O57   S    
C58   H122  S    
C167  C169  A    
C259  C264  A    
C13   C226  S    
C38   C113  A    
O27   Zn7   S    
C86   C87   A    
C260  C261  A    
O2    Zn3   S    
C21   C34   A    
C19   O51   S    
C250  C251  A    
C53   C54   A    
C119  C266  S    
C7    C323  S    
C142  H142  S    
C2    C331  A    
C141  H141  S    
C60   C61   A    
C39   C79   A    
C297  N4    S    
C62   C63   A    
C175  C176  A    
C283  H167  S    
O24   Zn4   S    
C55   H100  S    
C303  O5    A    
C112  C327  A    
C159  C160  A    
C247  C248  A    
C218  C219  A    
C323  O29   A    
C99   H107  S    
C242  C243  A    
C71   H57   S    
O1    Zn1   S    
C317  O22   A    
C4    C11   T    
O37   Zn14  S    
C121  C122  A    
O36   Zn15  S    
C74   H79   S    
C119  C125  A    
C57   C332  A    
C45   C266  A    
C164  H4    S    
C305  O10   A    
C245  C247  A    
C133  C134  A    
O25   Zn16  S    
C151  H150  S    
C273  C290  A    
C166  H5    S    
C127  C128  A    
C104  H112  S    
O42   Zn1   S    
C74   C75   A    
C219  C220  A    
C102  H109  S    
C248  C249  A    
O23   Zn2   S    
C162  C163  A    
C105  C257  S    
O12   Zn3   S    
C158  H156  S    
C14   C308  S    
C156  H154  S    
C24   C232  S    
C68   C259  S    
C178  C180  A    
C119  C120  A    
C84   H95   S    
C105  C106  A    
C92   C235  S    
C59   C179  S    
C56   H111  S    
O46   Zn15  S    
C276  H160  S    
C109  C110  A    
C192  C193  A    
C313  O19   A    
C54   H89   S    
C70   H46   S    
C185  C186  A    
C261  C262  A    
C314  O20   A    
C126  C127  A    
C244  H70   S    
C232  C233  A    
C41   C101  A    
C286  C295  A    
C280  H164  S    
C111  C114  A    
C215  C216  A    
C94   C95   A    
C318  O24   A    
C73   H68   S    
C23   N3    A    
C215  H45   S    
C65   C190  S    
C162  H176  S    
C82   C83   A    
O66   Zn2   S    
C103  C104  A    
C311  O17   A    
C282  C325  A    
C142  C143  A    
C136  H137  S    
C307  C325  S    
C40   C90   A    
C117  C118  A    
C27   N6    A    
O21   Zn16  S    
O26   Zn2   S    
C19   C41   A    
C194  H28   S    
C110  H117  S    
C32   N7    A    
O33   Zn13  S    
C203  C204  A    
C165  C166  A    
C323  O36   A    
C87   H97   S    
C169  C170  A    
C163  C164  A    
C75   C76   A    
C81   C82   A    
C85   C91   A    
C281  C295  A    
C9    C312  S    
C173  C174  A    
C116  C117  A    
C108  H115  S    
C10   C311  S    
C197  H31   S    
C59   C64   A    
C254  C255  A    
C11   C310  S    
O19   Zn7   S    
C40   C224  A    
C289  C298  A    
C138  H139  S    
C180  H16   S    
C77   H90   S    
C316  O46   A    
C120  H124  S    
C98   C104  A    
C201  C235  A    
C48   C268  A    
C226  C231  A    
C181  C182  A    
C196  C197  A    
C287  C296  A    
C320  O26   A    
O34   Zn15  S    
C300  C332  S    
C122  H126  S    
C240  C241  A    
O16   Zn6   S    
C203  H36   S    
C167  H6    S    
C28   C50   A    
C96   H105  S    
C18   O50   S    
C69   H35   S    
C227  C228  A    
C65   C71   A    
C132  C133  A    
C38   C201  A    
C306  O11   A    
C242  H67   S    
C216  C217  A    
C239  C244  A    
C3    C12   T    
C20   O52   S    
O20   Zn2   S    
C274  C291  A    
C218  C225  A    
C1    C273  A    
C30   N5    A    
C321  O27   A    
C263  H85   S    
C61   H144  S    
O23   Zn10  S    
C232  C238  A    
C318  O35   A    
C320  C336  S    
C61   C62   A    
C168  C224  A    
O3    Zn6   S    
C322  C334  S    
C139  C269  S    
C285  H169  S    
C31   C44   A    
C45   C146  A    
C76   C77   A    
C303  C329  S    
C234  H61   S    
C320  O32   A    
C254  H77   S    
C310  O40   A    
C149  H148  S    
C214  C215  A    
C134  C136  A    
C277  C290  A    
C192  C197  A    
C278  C293  A    
C198  C304  S    
C195  H29   S    
C230  C231  A    
C22   N2    A    
C188  C189  A    
C67   C69   A    
C35   C330  A    
C72   C77   A    
O11   Zn13  S    
C295  N2    S    
C275  H159  S    
C132  C268  S    
C188  H23   S    
C189  H25   S    
C139  C144  A    
C42   C113  A    
C99   C100  A    
C283  C296  A    
C96   C97   A    
C100  C102  A    
C35   C286  A    
C32   C45   A    
C240  H65   S    
C57   C252  S    
C311  O41   A    
C198  C199  A    
O22   Zn3   S    
C176  C177  A    
C211  C213  A    
C262  H84   S    
C279  C292  A    
C19   N3    A    
C166  C167  A    
C260  H82   S    
C126  C267  S    
O39   Zn1   S    
C255  C256  A    
C278  H162  S    
C172  C173  A    
C53   H1    S    
C316  O21   A    
C233  C234  A    
C24   C285  A    
C310  O16   A    
C174  H11   S    
C128  H130  S    
C159  C164  A    
C200  H33   S    
C15   C335  T    
C46   C245  S    
C209  H41   S    
C80   C81   A    
C48   C124  A    
C289  H173  S    
C303  O9    A    
C2    C283  A    
C321  O38   A    
C129  H131  S    
C137  C138  A    
C12   C309  S    
C160  C161  A    
C223  C328  A    
C122  C123  A    
O14   Zn4   S    
C5    C10   T    
C141  C142  A    
C52   C168  S    
C173  H10   S    
C183  C184  A    
C126  C131  A    
C152  C272  S    
C280  C315  A    
C169  H7    S    
C46   C331  A    
O4    Zn5   S    
C37   C190  A    
C199  C200  A    
C95   H104  S    
C265  C268  A    
C1    C325  A    
O13   Zn12  S    
C170  H8    S    
C184  H20   S    
C78   C84   A    
C223  C275  A    
C302  O4    A    
C65   C66   A    
O12   Zn7   S    
C17   O49   S    
C319  O25   A    
C301  O66   A    
C153  C154  A    
C51   C272  A    
C115  H119  S    
C43   C124  A    
C178  C184  A    
C274  H158  S    
C182  H18   S    
C72   C201  S    
C49   C269  A    
