data_mof_unit_61211.cif
_audit_creation_date              2012-12-10T19:55:03-0500
_audit_creation_method            fapswitch 2.2
_symmetry_space_group_name_H-M    P1
_symmetry_Int_Tables_number       1
_space_group_crystal_system       triclinic
_cell_length_a                    14.151894
_cell_length_b                    15.006
_cell_length_c                    16.67695
_cell_angle_alpha                 89.977294
_cell_angle_beta                  84.730425
_cell_angle_gamma                 89.693631
_cell_volume                      3526.55398673

loop_
_atom_site_label
_atom_site_type_symbol
_atom_type_description
_atom_site_fract_x
_atom_site_fract_y
_atom_site_fract_z
_atom_type_partial_charge
C1    C     C_R   0.499703 0.672368 0.499929 0.915674
C2    C     C_R   0.500331 0.327683 0.499851 0.926980
C3    C     C_R   0.417971 0.908479 0.517865 -0.239748
C4    C     C_R   0.576958 0.091763 0.520332 -0.241588
C5    C     C_R   0.417059 0.816601 0.522539 0.631324
C6    C     C_R   0.576705 0.183632 0.524886 0.621861
C7    C     C_R   0.499419 0.768293 0.496552 -0.165269
C8    C     C_R   0.501476 0.231866 0.496334 -0.169042
C9    C     C_R   0.581893 0.812228 0.465544 -0.255039
C10   C     C_R   0.427493 0.188002 0.462673 -0.230121
C11   C     C_R   0.582350 0.904053 0.460629 -0.161342
C12   C     C_R   0.428249 0.096153 0.457871 -0.165275
C13   C     C_R   0.500572 0.952078 0.487201 0.050382
C14   C     C_R   0.502668 0.048138 0.487159 0.048144
C15   C     C_R   0.891137 0.572954 0.530292 -0.256080
C16   C     C_R   0.111800 0.454807 0.440328 -0.263298
C17   C     C_R   0.791896 0.571510 0.529815 0.074291
C18   C     C_R   0.210938 0.455389 0.441489 0.034301
C19   C     C_R   0.799126 0.428407 0.470469 0.085081
C20   C     C_R   0.198068 0.544338 0.558869 0.113114
C21   C     C_R   0.898443 0.426805 0.470394 -0.251833
C22   C     C_R   0.098572 0.544921 0.560343 -0.251308
C23   C     C_R   0.486468 0.498576 0.653681 0.972309
C24   C     C_R   0.513630 0.495966 0.346607 0.964436
C25   C     C_R   0.946623 0.499860 0.500410 0.130865
C26   C     C_R   0.053339 0.499874 0.500386 0.127919
C27   C     C_R   0.477965 0.482363 0.740118 -0.326949
C28   C     C_R   0.524262 0.468073 0.262794 -0.314897
C29   C     C_R   0.552673 0.506168 0.785392 0.578376
C30   C     C_R   0.461864 0.404138 0.236269 0.542906
C31   C     C_R   0.552458 0.477804 0.864422 -0.224191
C32   C     C_R   0.476111 0.370901 0.158563 -0.227478
C33   C     C_R   0.478217 0.424587 0.899057 -0.005679
C34   C     C_R   0.551965 0.401776 0.106346 -0.007340
C35   C     C_R   0.401118 0.405091 0.855629 -0.238409
C36   C     C_R   0.617243 0.461569 0.133908 -0.241299
C37   C     C_R   0.400798 0.433373 0.776284 0.574236
C38   C     C_R   0.603585 0.494836 0.211926 0.571575
C39   C     C_2   0.475412 0.397041 0.983239 -0.137201
C40   C     C_2   0.554913 0.385845 0.019944 -0.142769
H1    H     H_    0.923923 0.631652 0.552930 0.148280
H2    H     H_    0.081603 0.420205 0.391900 0.151770
H3    H     H_    0.750349 0.627997 0.553219 0.146896
H4    H     H_    0.254752 0.420190 0.395258 0.196869
H5    H     H_    0.763266 0.371933 0.447055 0.152527
H6    H     H_    0.231882 0.579194 0.605198 0.163545
H7    H     H_    0.936763 0.368019 0.447930 0.147024
H8    H     H_    0.057649 0.579436 0.608908 0.153100
H9    H     H_    0.623800 0.385598 0.985332 0.161065
H10   H     H_    0.406393 0.397869 0.017698 0.158925
H11   H     H_    0.342079 0.366448 0.882748 0.182589
H12   H     H_    0.675789 0.486163 0.093646 0.180621
H13   H     H_    0.426396 0.323025 0.138390 0.178722
H14   H     H_    0.609892 0.498830 0.898510 0.177090
H15   H     H_    0.355088 0.945721 0.539929 0.172057
H16   H     H_    0.633782 0.054553 0.544429 0.171542
H17   H     H_    0.645598 0.775652 0.444471 0.192093
H18   H     H_    0.369708 0.224680 0.439477 0.204864
H19   H     H_    0.646286 0.937674 0.436384 0.159630
H20   H     H_    0.370935 0.062512 0.431623 0.161599
N1    N     N_R   0.747530 0.500020 0.500000 -0.101225
N2    N     N_R   0.252470 0.499980 0.500000 -0.106800
O1    O     O_R   0.420520 0.630930 0.499990 -0.573286
O2    O     O_R   0.579480 0.369070 0.500010 -0.592924
O3    O     O_R   0.579480 0.630940 0.499990 -0.643004
O4    O     O_R   0.420520 0.369060 0.500010 -0.611345
O5    O     O_R   0.411130 0.500010 0.615800 -0.579840
O6    O     O_R   0.588870 0.499990 0.384200 -0.588161
O7    O     O_R   0.570080 0.500020 0.615800 -0.563099
O8    O     O_R   0.429920 0.499980 0.384200 -0.592307
Zn1   Zn    Zn3+2 0.393860 0.499990 0.500000 1.034960
Zn2   Zn    Zn3+2 0.606140 0.500010 0.500000 1.027565
F1    F     F_    0.626211 0.556381 0.753144 -0.640975
F2    F     F_    0.388676 0.371827 0.285958 -0.681724
F3    F     F_    0.666182 0.554737 0.236960 -0.642307
F4    F     F_    0.327510 0.408865 0.734109 -0.638148
F5    F     F_    0.336888 0.775552 0.554362 -0.660452
F6    F     F_    0.648195 0.224792 0.559160 -0.655355

loop_
_geom_bond_atom_site_label_1
_geom_bond_atom_site_label_2
_ccdc_geom_bond_type
C22   H8    S    
C27   C29   A    
C23   O7    A    
C24   O8    A    
C33   C39   S    
C34   C40   S    
C35   C37   A    
C19   N1    A    
C30   F2    S    
C6    F6    S    
C29   F1    S    
C40   H9    S    
C15   C17   A    
C23   O5    A    
C17   N1    A    
C3    H15   S    
C1    O3    A    
C31   C33   A    
O8    Zn1   S    
C23   C27   S    
C9    H17   S    
C3    C13   A    
C13   C14   S    
C4    H16   S    
C20   N2    A    
C11   H19   S    
C1    O1    A    
C2    O2    A    
C38   F3    S    
C16   C26   A    
C15   H1    S    
C4    C6    A    
C39   C40   D    
C5    C7    A    
C18   N2    A    
C6    C8    A    
C3    C5    A    
C25   C26   S    
C32   C34   A    
O7    Zn2   S    
C17   H3    S    
C18   H4    S    
O4    Zn1   S    
C28   C38   A    
O6    Zn2   S    
C9    C11   A    
C10   C12   A    
N1    Zn2   S    
C16   C18   A    
C37   F4    S    
C12   C14   A    
C35   H11   S    
C20   C22   A    
C5    F5    S    
C16   H2    S    
C32   H13   S    
C7    C9    A    
C21   C25   A    
C10   H18   S    
C1    C7    S    
C2    C8    S    
C24   C28   S    
O1    Zn1   S    
C2    O4    A    
C36   H12   S    
C19   H5    S    
O3    Zn2   S    
C36   C38   A    
C29   C31   A    
C30   C32   A    
C11   C13   A    
C27   C37   A    
C28   C30   A    
C33   C35   A    
C34   C36   A    
N2    Zn1   S    
O5    Zn1   S    
O2    Zn2   S    
C31   H14   S    
C4    C14   A    
C15   C25   A    
C24   O6    A    
C12   H20   S    
C39   H10   S    
C8    C10   A    
C22   C26   A    
C21   H7    S    
C20   H6    S    
C19   C21   A    
