data_mof_unit_64760.cif
_audit_creation_date              2012-12-10T18:52:15-0500
_audit_creation_method            fapswitch 2.2
_symmetry_space_group_name_H-M    P1
_symmetry_Int_Tables_number       1
_space_group_crystal_system       triclinic
_cell_length_a                    37.363352
_cell_length_b                    30.232635
_cell_length_c                    21.617922
_cell_angle_alpha                 90.259604
_cell_angle_beta                  53.985384
_cell_angle_gamma                 90.189445
_cell_volume                      19751.8743496

loop_
_atom_site_label
_atom_site_type_symbol
_atom_type_description
_atom_site_fract_x
_atom_site_fract_y
_atom_site_fract_z
_atom_type_partial_charge
Br1   Br    Br    0.946532 0.626883 0.941307 -0.466632
Br2   Br    Br    0.625881 0.576928 0.789960 -0.445088
Br3   Br    Br    0.874455 0.077828 0.209057 -0.447218
Br4   Br    Br    0.125747 0.077751 0.791699 -0.443466
Br5   Br    Br    0.417841 0.626886 0.011739 -0.429086
Br6   Br    Br    0.581452 0.628021 0.989867 -0.426344
Br7   Br    Br    0.919185 0.127290 0.007761 -0.426226
Br8   Br    Br    0.080489 0.127916 0.993441 -0.424403
Br9   Br    Br    0.053615 0.628131 0.058026 -0.466762
Br10  Br    Br    0.442903 0.126736 0.947887 -0.459935
Br11  Br    Br    0.558541 0.129018 0.047935 -0.483235
Br12  Br    Br    0.131914 0.582923 0.292742 -0.430036
Br13  Br    Br    0.868196 0.583103 0.707648 -0.428743
Br14  Br    Br    0.631658 0.081698 0.290472 -0.456094
Br15  Br    Br    0.368293 0.081137 0.711100 -0.421536
Br16  Br    Br    0.374292 0.576894 0.210991 -0.448575
C1    C     C_R   0.086363 0.500080 0.411976 0.887881
C2    C     C_R   0.994985 0.500248 0.318826 -0.104567
C3    C     C_R   0.019763 0.797002 0.929507 0.447251
C4    C     C_R   0.000018 0.586114 0.999947 0.931146
C5    C     C_R   0.500037 0.086143 0.999796 0.949925
C6    C     C_R   0.499985 0.413736 0.999865 0.893379
C7    C     C_R   0.999981 0.913736 0.999893 0.892046
C8    C     C_R   0.413818 0.500938 0.086586 0.940921
C9    C     C_R   0.586184 0.500930 0.913424 0.940631
C10   C     C_R   0.913819 0.000919 0.086576 0.939960
C11   C     C_R   0.086187 0.000901 0.913422 0.939671
C12   C     C_R   0.482413 0.342835 0.067527 -0.181021
C13   C     C_R   0.504764 0.000754 0.681458 -0.103655
C14   C     C_R   0.517080 0.342987 0.931163 -0.180883
C15   C     C_R   0.981451 0.842962 0.068139 -0.181399
C16   C     C_R   0.018356 0.842858 0.931073 -0.181995
C17   C     C_R   0.499939 0.586137 0.000192 0.992616
C18   C     C_R   0.999978 0.086156 0.000148 0.992594
C19   C     C_R   0.006911 0.297446 0.048521 -0.141003
C20   C     C_R   0.992786 0.296932 0.952462 -0.140422
C21   C     C_R   0.508198 0.797442 0.047206 -0.141838
C22   C     C_R   0.490081 0.796909 0.956363 -0.143688
C23   C     C_R   0.499624 0.633897 0.000845 -0.167740
C24   C     C_R   0.495520 0.999275 0.318421 -0.112046
C25   C     C_R   0.999857 0.133950 0.000548 -0.168337
C26   C     C_R   0.007007 0.343333 0.049209 0.418459
C27   C     C_R   0.992797 0.342811 0.951392 0.418009
C28   C     C_R   0.509057 0.843312 0.046873 0.405626
C29   C     C_R   0.490476 0.842778 0.954757 0.421717
C30   C     C_R   0.999935 0.366276 0.000196 -0.258242
C31   C     C_R   0.499977 0.866261 0.000455 -0.256252
C32   C     C_R   0.499564 0.273732 0.998754 -0.126174
C33   C     C_R   0.999970 0.773694 0.999343 -0.125079
C34   C     C_R   0.499870 0.365798 0.999520 -0.225895
C35   C     C_R   0.976049 0.472861 0.742494 -0.165352
C36   C     C_R   0.999921 0.865795 0.999687 -0.224377
C37   C     C_R   0.999818 0.274212 0.000592 -0.058430
C38   C     C_R   0.498927 0.774177 0.002140 -0.057447
C39   C     C_R   0.465413 0.702610 0.005669 -0.172420
C40   C     C_R   0.532839 0.703071 0.998167 -0.169892
C41   C     C_R   0.966671 0.202792 0.002640 -0.170318
C42   C     C_R   0.032880 0.203061 0.998909 -0.169549
C43   C     C_R   0.465642 0.656721 0.004624 0.247751
C44   C     C_R   0.533240 0.657188 0.997880 0.246587
C45   C     C_R   0.966573 0.156901 0.002304 0.248510
C46   C     C_R   0.023814 0.472538 0.257303 -0.165325
C47   C     C_R   0.033057 0.157167 0.999035 0.248132
C48   C     C_R   0.064883 0.556732 0.620905 -0.157590
C49   C     C_R   0.934596 0.555821 0.380419 -0.157270
C50   C     C_R   0.564844 0.056778 0.620963 -0.158055
C51   C     C_R   0.432430 0.946851 0.382685 -0.161885
C52   C     C_R   0.090256 0.587688 0.627393 -0.106027
C53   C     C_R   0.909155 0.586726 0.374481 -0.105770
C54   C     C_R   0.590183 0.087759 0.627493 -0.105492
C55   C     C_R   0.405004 0.917549 0.378612 -0.128826
C56   C     C_R   0.084582 0.593070 0.696581 -0.117527
C57   C     C_R   0.476060 0.972847 0.742481 -0.165857
C58   C     C_R   0.914951 0.592348 0.305300 -0.117439
C59   C     C_R   0.584483 0.093148 0.696701 -0.117745
C60   C     C_R   0.409917 0.911929 0.310125 -0.099650
C61   C     C_R   0.054684 0.566394 0.758748 -0.130625
C62   C     C_R   0.945036 0.565951 0.242570 -0.131067
C63   C     C_R   0.554597 0.066453 0.758847 -0.133835
C64   C     C_R   0.441221 0.936721 0.246164 -0.139345
C65   C     C_R   0.029764 0.533687 0.752478 0.108608
C66   C     C_R   0.970004 0.533264 0.248272 0.108054
C67   C     C_R   0.529722 0.033715 0.752526 0.107987
C68   C     C_R   0.525869 0.025286 0.255678 -0.172048
C69   C     C_R   0.468331 0.967847 0.249852 0.093844
C70   C     C_R   0.974348 0.474486 0.807680 -0.174071
C71   C     C_R   0.025616 0.474330 0.192030 -0.173506
C72   C     C_R   0.474355 0.974470 0.807671 -0.174235
C73   C     C_R   0.913640 0.500056 0.588035 0.887545
C74   C     C_R   0.527428 0.023443 0.190654 -0.150666
C75   C     C_R   0.001058 0.504289 0.812744 -0.086528
C76   C     C_R   0.998892 0.504118 0.187398 -0.087728
C77   C     C_R   0.501046 0.004288 0.812758 -0.087136
C78   C     C_R   0.498802 0.995412 0.187559 -0.117379
C79   C     C_R   0.202813 0.464285 0.322020 -0.156756
C80   C     C_R   0.797156 0.464061 0.677873 -0.157887
C81   C     C_R   0.702827 0.964802 0.322975 -0.156727
C82   C     C_R   0.297247 0.964663 0.675666 -0.154479
C83   C     C_R   0.156953 0.464687 0.366810 -0.227914
C84   C     C_R   0.586355 0.000075 0.411977 0.886296
C85   C     C_R   0.843018 0.464486 0.633098 -0.228363
C86   C     C_R   0.656962 0.965125 0.367775 -0.226691
C87   C     C_R   0.343119 0.965083 0.630952 -0.235429
C88   C     C_R   0.134517 0.500205 0.362204 -0.116271
C89   C     C_R   0.865489 0.500124 0.637842 -0.116156
C90   C     C_R   0.634496 0.000202 0.362190 -0.111930
C91   C     C_R   0.365519 0.000041 0.637529 -0.105791
C92   C     C_R   0.158678 0.535097 0.310374 0.247752
C93   C     C_R   0.841368 0.535104 0.689821 0.247674
C94   C     C_R   0.658599 0.034696 0.309390 0.246559
C95   C     C_R   0.413649 0.000036 0.587936 0.889228
C96   C     C_R   0.341373 0.034313 0.691126 0.251226
C97   C     C_R   0.204563 0.534570 0.266518 -0.106488
C98   C     C_R   0.795485 0.534550 0.733664 -0.105648
C99   C     C_R   0.704493 0.034276 0.265522 -0.103780
C100  C     C_R   0.295484 0.033791 0.734930 -0.104834
C101  C     C_R   0.002048 0.500139 0.618011 0.866457
C102  C     C_R   0.997921 0.499961 0.382028 0.866538
C103  C     C_R   0.502051 0.000139 0.618009 0.865812
C104  C     C_R   0.498208 0.999866 0.381774 0.868362
C105  C     C_R   0.226423 0.499519 0.272811 0.118649
C106  C     C_R   0.033085 0.530536 0.684264 0.091693
C107  C     C_R   0.773582 0.499390 0.727206 0.118636
C108  C     C_R   0.726403 0.999678 0.272772 0.118247
C109  C     C_R   0.273620 0.999316 0.726769 0.120484
C110  C     C_R   0.295834 0.531163 0.243578 0.438471
C111  C     C_R   0.704235 0.531073 0.756763 0.438004
C112  C     C_R   0.795870 0.031795 0.242666 0.438775
C113  C     C_R   0.204214 0.031461 0.757269 0.438665
C114  C     C_R   0.342529 0.532262 0.196566 0.155260
C115  C     C_R   0.657543 0.532217 0.803808 0.154837
C116  C     C_R   0.842574 0.032786 0.195705 0.153864
C117  C     C_R   0.966564 0.529902 0.316524 0.091797
C118  C     C_R   0.157513 0.032599 0.804445 0.152729
C119  C     C_R   0.365961 0.501765 0.135548 -0.114749
C120  C     C_R   0.634042 0.501713 0.864467 -0.115364
C121  C     C_R   0.865965 0.001801 0.135494 -0.114614
C122  C     C_R   0.134052 0.001694 0.864442 -0.114735
C123  C     C_R   0.343670 0.471181 0.120915 -0.220678
C124  C     C_R   0.656262 0.471071 0.878717 -0.221430
C125  C     C_R   0.843644 0.970833 0.121564 -0.221509
C126  C     C_R   0.156312 0.970643 0.877924 -0.221633
C127  C     C_R   0.297975 0.470155 0.167023 -0.237723
C128  C     C_R   0.533058 0.030560 0.684300 0.091756
C129  C     C_R   0.701956 0.470007 0.832589 -0.238321
C130  C     C_R   0.797942 0.969888 0.167647 -0.237717
C131  C     C_R   0.202017 0.969555 0.831623 -0.239383
C132  C     C_R   0.274293 0.500042 0.227524 0.016462
C133  C     C_R   0.725710 0.499910 0.772447 0.016717
C134  C     C_R   0.774287 0.000249 0.227387 0.015988
C135  C     C_R   0.225735 0.999850 0.772111 0.014884
C136  C     C_R   0.000067 0.633860 0.999664 -0.183651
C137  C     C_R   0.500160 0.133940 0.998958 -0.185407
C138  C     C_R   0.976552 0.702547 0.977730 -0.166904
C139  C     C_R   0.465467 0.971184 0.317634 0.105281
C140  C     C_R   0.023700 0.703052 0.020820 -0.166148
C141  C     C_R   0.474855 0.202491 0.980185 -0.164053
C142  C     C_R   0.525341 0.203346 0.016270 -0.165065
C143  C     C_R   0.498987 0.725906 0.002193 0.043470
C144  C     C_R   0.999777 0.225967 0.000759 0.043310
C145  C     C_R   0.976715 0.656668 0.977105 0.219965
C146  C     C_R   0.023486 0.657182 0.021904 0.220185
C147  C     C_R   0.475143 0.156611 0.979612 0.219553
C148  C     C_R   0.525372 0.157501 0.017306 0.235524
C149  C     C_R   0.000119 0.725584 0.999200 -0.052547
C150  C     C_R   0.004766 0.500751 0.681455 -0.103990
C151  C     C_R   0.499933 0.225668 0.998324 -0.054549
C152  C     C_R   0.999982 0.413966 0.000014 0.837367
C153  C     C_R   0.499987 0.913959 0.000235 0.820372
C154  C     C_R   0.000246 0.501827 0.879687 0.862922
C155  C     C_R   0.999752 0.501807 0.120351 0.862350
C156  C     C_R   0.500244 0.001821 0.879689 0.860808
C157  C     C_R   0.499716 0.997926 0.120398 0.864242
C158  C     C_R   0.480934 0.296996 0.068573 0.448084
C159  C     C_R   0.518239 0.297142 0.929343 0.447843
C160  C     C_R   0.980084 0.797113 0.069358 0.447132
H1    H     H_    0.223350 0.561296 0.226884 0.182749
H2    H     H_    0.718937 0.446229 0.844211 0.177132
H3    H     H_    0.780880 0.945815 0.156334 0.177760
H4    H     H_    0.219033 0.945448 0.842628 0.176791
H5    H     H_    0.468494 0.360588 0.120753 0.196879
H6    H     H_    0.531099 0.360861 0.878219 0.196372
H7    H     H_    0.966602 0.860835 0.121527 0.195480
H8    H     H_    0.033190 0.860658 0.877827 0.195080
H9    H     H_    0.958558 0.720349 0.960644 0.197925
H10   H     H_    0.041667 0.721248 0.037825 0.197604
H11   H     H_    0.455570 0.220185 0.965653 0.197488
H12   H     H_    0.776732 0.561347 0.773406 0.183113
H13   H     H_    0.544583 0.221702 0.030472 0.197005
H14   H     H_    0.011756 0.279824 0.086618 0.182062
H15   H     H_    0.987903 0.278910 0.914504 0.182297
H16   H     H_    0.514451 0.779867 0.083551 0.181867
H17   H     H_    0.483592 0.778915 0.920437 0.181813
H18   H     H_    0.954357 0.450173 0.740086 0.169838
H19   H     H_    0.045578 0.449953 0.259344 0.169779
H20   H     H_    0.454383 0.950147 0.740056 0.169884
H21   H     H_    0.548911 0.046625 0.256686 0.195120
H22   H     H_    0.438729 0.720091 0.010081 0.178490
H23   H     H_    0.723240 0.060701 0.225122 0.183028
H24   H     H_    0.559354 0.720905 0.994060 0.179858
H25   H     H_    0.940552 0.220391 0.005396 0.179414
H26   H     H_    0.058982 0.220865 0.996192 0.179689
H27   H     H_    0.070969 0.553269 0.565671 0.155468
H28   H     H_    0.928449 0.552167 0.435634 0.154962
H29   H     H_    0.570946 0.053311 0.565717 0.155514
H30   H     H_    0.427060 0.950505 0.437332 0.144059
H31   H     H_    0.114179 0.607785 0.578701 0.162001
H32   H     H_    0.885098 0.606607 0.423589 0.162726
H33   H     H_    0.614097 0.107871 0.578817 0.162415
H34   H     H_    0.276703 0.060054 0.775960 0.182291
H35   H     H_    0.380097 0.898890 0.428621 0.143821
H36   H     H_    0.103683 0.617737 0.701940 0.154804
H37   H     H_    0.895809 0.616991 0.300370 0.155559
H38   H     H_    0.603556 0.117836 0.702092 0.155105
H39   H     H_    0.389190 0.888490 0.306646 0.150225
H40   H     H_    0.051008 0.572132 0.811608 0.159233
H41   H     H_    0.948820 0.571897 0.189737 0.159440
H42   H     H_    0.550897 0.072194 0.811728 0.157182
H43   H     H_    0.444173 0.930649 0.194059 0.153841
H44   H     H_    0.952447 0.452006 0.854117 0.173133
H45   H     H_    0.361765 0.447774 0.074071 0.174472
H46   H     H_    0.047640 0.452026 0.145153 0.173905
H47   H     H_    0.452465 0.951978 0.854093 0.173639
H48   H     H_    0.550743 0.044441 0.142802 0.206775
H49   H     H_    0.219892 0.437016 0.326542 0.157438
H50   H     H_    0.780048 0.436704 0.673225 0.156710
H51   H     H_    0.719938 0.937879 0.328235 0.156842
H52   H     H_    0.280175 0.937847 0.669662 0.152779
H53   H     H_    0.138995 0.437580 0.406006 0.178064
H54   H     H_    0.860953 0.437310 0.593788 0.177592
H55   H     H_    0.639017 0.938327 0.407739 0.176973
H56   H     H_    0.638112 0.447655 0.925284 0.174232
H57   H     H_    0.361120 0.938472 0.590295 0.163629
H58   H     H_    0.288684 0.576756 0.314741 0.378594
H59   H     H_    0.711481 0.576671 0.686093 0.379056
H60   H     H_    0.788792 0.078305 0.312464 0.379114
H61   H     H_    0.211375 0.077975 0.687985 0.380890
H62   H     H_    0.453896 0.245529 0.135507 0.356373
H63   H     H_    0.544741 0.245699 0.861551 0.351503
H64   H     H_    0.951837 0.745851 0.136340 0.351919
H65   H     H_    0.047900 0.745641 0.862174 0.351464
H66   H     H_    0.010999 0.396311 0.097693 0.326764
H67   H     H_    0.861720 0.947067 0.075304 0.173810
H68   H     H_    0.988834 0.395303 0.902586 0.326934
H69   H     H_    0.518315 0.896288 0.088705 0.325362
H70   H     H_    0.486130 0.895127 0.906146 0.328841
H71   H     H_    0.138184 0.946925 0.923997 0.173500
H72   H     H_    0.280938 0.446410 0.155126 0.177513
O1    O     O_R   0.065470 0.536950 0.434540 -0.581848
O2    O     O_R   0.565480 0.500010 0.986250 -0.608432
O3    O     O_R   0.934520 0.000010 0.013750 -0.607728
O4    O     O_R   0.065480 0.000010 0.986250 -0.607694
O5    O     O_R   0.500010 0.565480 0.051720 -0.578190
O6    O     O_R   0.499990 0.565480 0.948280 -0.577503
O7    O     O_R   0.000010 0.065480 0.051720 -0.577451
O8    O     O_R   0.999990 0.065480 0.948280 -0.577110
O9    O     O_R   0.065460 0.463040 0.434540 -0.627946
O10   O     O_R   0.934540 0.463040 0.565460 -0.628097
O11   O     O_R   0.565460 0.963040 0.434540 -0.624323
O12   O     O_R   0.934530 0.536950 0.565460 -0.581983
O13   O     O_R   0.434540 0.963040 0.565460 -0.639697
O14   O     O_R   0.000010 0.536950 0.591610 -0.600663
O15   O     O_R   0.999990 0.536950 0.408390 -0.599928
O16   O     O_R   0.500010 0.036950 0.591610 -0.601352
O17   O     O_R   0.499990 0.036950 0.408390 -0.595381
O18   O     O_R   1.000000 0.463040 0.591610 -0.621927
O19   O     O_R   1.000000 0.463040 0.408390 -0.622161
O20   O     O_R   0.500000 0.963040 0.591610 -0.622212
O21   O     O_R   0.500000 0.963040 0.408390 -0.623929
O22   O     O_R   0.963040 0.434520 0.036950 -0.605271
O23   O     O_R   0.565470 0.036950 0.434540 -0.585349
O24   O     O_R   0.036960 0.434520 0.963050 -0.604765
O25   O     O_R   0.463040 0.934520 0.036950 -0.620531
O26   O     O_R   0.536960 0.934520 0.963050 -0.603056
O27   O     O_R   0.963030 0.499980 0.945350 -0.593547
O28   O     O_R   0.036970 0.499980 0.054650 -0.593793
O29   O     O_R   0.463030 0.999980 0.945350 -0.593711
O30   O     O_R   0.536970 0.999980 0.054650 -0.599769
O31   O     O_R   0.036950 0.500000 0.871430 -0.633575
O32   O     O_R   0.963050 0.500000 0.128570 -0.633410
O33   O     O_R   0.536950 0.000000 0.871430 -0.632854
O34   O     O_R   0.434530 0.036950 0.565460 -0.567372
O35   O     O_R   0.463050 0.000000 0.128570 -0.625331
O36   O     O_R   0.963030 0.565450 0.036970 -0.596245
O37   O     O_R   0.036970 0.565450 0.963030 -0.596777
O38   O     O_R   0.463030 0.065450 0.036970 -0.577659
O39   O     O_R   0.536970 0.065450 0.963030 -0.599673
O40   O     O_R   0.499990 0.434540 0.051720 -0.627947
O41   O     O_R   0.500010 0.434540 0.948280 -0.628782
O42   O     O_R   0.999990 0.934540 0.051720 -0.627875
O43   O     O_R   0.000010 0.934540 0.948280 -0.628252
O44   O     O_3   0.270010 0.559468 0.305010 -0.745969
O45   O     O_R   0.434530 0.500010 0.117180 -0.594183
O46   O     O_3   0.730118 0.559379 0.695650 -0.745560
O47   O     O_3   0.770082 0.060584 0.303335 -0.745150
O48   O     O_3   0.230060 0.060201 0.696844 -0.738209
O49   O     O_3   0.460752 0.276677 0.138840 -0.736439
O50   O     O_3   0.538333 0.277013 0.858708 -0.742255
O51   O     O_3   0.958696 0.776946 0.139979 -0.742365
O52   O     O_3   0.041158 0.776737 0.858734 -0.743371
O53   O     O_3   0.013697 0.363883 0.098972 -0.749562
O54   O     O_3   0.986139 0.362833 0.901480 -0.749023
O55   O     O_3   0.518384 0.863804 0.093260 -0.748916
O56   O     O_R   0.565470 0.500010 0.882820 -0.594498
O57   O     O_3   0.481965 0.862776 0.907201 -0.749801
O58   O     O_R   0.934530 0.000010 0.117180 -0.594894
O59   O     O_R   0.065470 0.000010 0.882820 -0.595146
O60   O     O_R   0.434520 0.500010 0.013750 -0.608317
Zn1   Zn    Zn3+2 1.000000 0.549350 0.500000 1.077241
Zn2   Zn    Zn3+2 0.500000 0.500010 0.930940 1.062418
Zn3   Zn    Zn3+2 1.000000 0.000010 0.069060 1.062816
Zn4   Zn    Zn3+2 0.000000 0.000010 0.930940 1.062625
Zn5   Zn    Zn3+2 0.500000 0.049350 0.500000 1.085431
Zn6   Zn    Zn3+2 0.000000 0.450640 0.500000 0.990256
Zn7   Zn    Zn3+2 0.500000 0.950640 0.500000 0.987021
Zn8   Zn    Zn3+2 0.950640 0.499980 0.049350 1.029738
Zn9   Zn    Zn3+2 0.049360 0.499980 0.950650 1.030099
Zn10  Zn    Zn3+2 0.450640 0.999980 0.049350 1.034766
Zn11  Zn    Zn3+2 0.549360 0.999980 0.950650 1.028842
Zn12  Zn    Zn3+2 0.500000 0.500010 0.069060 1.062777

loop_
_geom_bond_atom_site_label_1
_geom_bond_atom_site_label_2
_ccdc_geom_bond_type
C97   H1    S    
C39   C43   A    
C19   C37   A    
C20   H15   S    
C91   C96   A    
C138  C145  A    
C25   C45   A    
C15   C36   A    
C120  C124  A    
C7    O42   A    
C119  C123  A    
C13   C103  S    
Br10  C147  S    
C81   C108  A    
C79   C83   A    
C67   C77   A    
C2    C117  A    
C69   C139  A    
C19   C26   A    
C16   C36   A    
C22   C29   A    
C121  C125  A    
C20   C37   A    
C31   C153  S    
C130  C134  A    
C29   O57   S    
C2    C102  S    
C101  O18   A    
C32   C159  A    
O42   Zn3   S    
C14   H6    S    
C3    C16   A    
C142  C151  A    
C29   C31   A    
C11   C122  S    
O13   Zn7   S    
Br12  C92   S    
C116  C121  A    
C13   C128  A    
C80   H50   S    
C92   C97   A    
O56   Zn2   S    
C57   C72   A    
O25   Zn10  S    
C3    C33   A    
C101  C150  S    
C52   C56   A    
C52   H31   S    
Br2   C115  S    
C53   C58   A    
C70   H44   S    
C101  O14   A    
C112  C134  A    
C19   H14   S    
C55   H35   S    
C95   O34   A    
O6    Zn2   S    
C25   C47   A    
C157  O30   A    
C53   H32   S    
C153  O26   A    
C124  C129  A    
O10   Zn6   S    
C41   C45   A    
C68   H21   S    
C84   C90   S    
C22   H17   S    
C21   C28   A    
C28   O55   S    
C60   H39   S    
C50   C54   A    
C23   C44   A    
C111  C115  A    
C102  O19   A    
H70   O57   S    
C42   H26   S    
C57   H20   S    
C5    C137  S    
C87   C91   A    
C59   C63   A    
C61   H40   S    
C40   H24   S    
C84   O23   A    
C77   C156  S    
C160  O51   S    
C10   C121  S    
C66   C76   A    
C137  C147  A    
C48   C52   A    
C7    O43   A    
C62   H41   S    
O26   Zn11  S    
H64   O51   S    
C127  H72   S    
C18   O8    A    
O59   Zn4   S    
O33   Zn11  S    
Br13  C93   S    
C109  C135  S    
C38   C143  S    
C123  C127  A    
C82   C109  A    
C95   O13   A    
C102  O15   A    
C138  C149  A    
C85   H54   S    
C5    O38   A    
C156  O29   A    
C123  H45   S    
C84   O11   A    
C68   C74   A    
C154  O27   A    
C83   H53   S    
O60   Zn2   S    
H65   O52   S    
C32   C158  A    
C15   C160  A    
C127  C132  A    
C27   O54   S    
C115  C120  A    
C50   H29   S    
C2    C46   A    
C99   H23   S    
C131  C135  A    
C79   H49   S    
O7    Zn3   S    
C103  O16   A    
O8    Zn4   S    
O32   Zn8   S    
O29   Zn10  S    
C41   C144  A    
C93   C98   A    
C110  O44   S    
C98   C107  A    
C100  C109  A    
C10   O58   A    
H69   O55   S    
O15   Zn1   S    
C1    O9    A    
C96   C100  A    
Br4   C118  S    
Br14  C94   S    
C89   C93   A    
C80   C107  A    
C91   C95   S    
Br15  C96   S    
C73   O10   A    
C60   C64   A    
O2    Zn12  S    
C157  O35   A    
C140  H10   S    
O27   Zn8   S    
O58   Zn3   S    
O9    Zn6   S    
C111  C133  A    
C12   C158  A    
C7    C36   S    
C32   C151  S    
C103  O20   A    
C1    O1    A    
O17   Zn5   S    
C4    O37   A    
C129  C133  A    
C141  H11   S    
C78   C157  S    
H62   O49   S    
C21   H16   S    
C97   C105  A    
C126  H71   S    
C41   H25   S    
C54   C59   A    
C80   C85   A    
C155  O32   A    
C26   O53   S    
O11   Zn7   S    
O3    Zn4   S    
O23   Zn5   S    
C24   C68   A    
C114  C119  A    
C141  C151  A    
C64   H43   S    
C18   C25   S    
C9    O56   A    
C30   C152  S    
C17   O6    A    
C1    C88   S    
C113  C135  A    
C40   C143  A    
C70   C75   A    
C55   C60   A    
C50   C128  A    
C110  C114  A    
C82   C87   A    
O41   Zn2   S    
C98   H12   S    
C3    O52   S    
C51   C139  A    
C26   C30   A    
O28   Zn9   S    
C6    O41   A    
Br7   C45   S    
C100  H34   S    
O30   Zn11  S    
C129  H2    S    
C24   C139  A    
H58   O44   S    
Br16  C114  S    
C81   C86   A    
H68   O54   S    
C6    C34   S    
C15   H7    S    
C79   C105  A    
C39   C143  A    
C83   C88   A    
C14   C34   A    
Br1   C145  S    
C87   H57   S    
C71   C76   A    
C73   O12   A    
C46   H19   S    
C126  C131  A    
C35   C70   A    
C74   C78   A    
O37   Zn9   S    
Br3   C116  S    
O39   Zn11  S    
C153  O25   A    
O40   Zn12  S    
C122  C126  A    
C110  C132  A    
C104  O21   A    
C40   C44   A    
C11   O4    A    
C74   H48   S    
C64   C69   A    
H61   O48   S    
C152  O22   A    
O16   Zn5   S    
C9    O2    A    
C22   C38   A    
C61   C65   A    
C23   C43   A    
C105  C132  S    
C125  H67   S    
C154  O31   A    
C51   H30   S    
C125  C130  A    
C81   H51   S    
C48   H27   S    
C124  H56   S    
C58   H37   S    
C86   H55   S    
C14   C159  A    
C88   C92   A    
O1    Zn1   S    
C108  C134  S    
C37   C144  S    
C99   C108  A    
O21   Zn7   S    
O22   Zn8   S    
C46   C71   A    
C65   C106  A    
C66   C117  A    
H59   O46   S    
C42   C144  A    
C63   C67   A    
C49   H28   S    
C140  C149  A    
C49   C53   A    
C11   O59   A    
C130  H3    S    
C51   C55   A    
O34   Zn5   S    
C113  C118  A    
C65   C75   A    
C4    C136  S    
O4    Zn3   S    
C58   C62   A    
C20   C27   A    
C4    O36   A    
C94   C99   A    
C33   C160  A    
C136  C146  A    
C112  O47   S    
C107  C133  S    
C106  C150  A    
O12   Zn1   S    
C8    O45   A    
C33   C149  S    
C17   C23   S    
O18   Zn6   S    
H60   O47   S    
C152  O24   A    
C67   C128  A    
C39   H22   S    
C13   C57   A    
C76   C155  S    
C159  O50   S    
C9    C120  S    
C62   C66   A    
C155  O28   A    
O20   Zn7   S    
C12   C34   A    
C131  H4    S    
H66   O53   S    
O19   Zn6   S    
C141  C147  A    
C28   C31   A    
C142  C148  A    
H63   O50   S    
C140  C146  A    
C112  C116  A    
C82   H52   S    
O36   Zn8   S    
C85   C89   A    
C138  H9    S    
Br5   C43   S    
C137  C148  A    
C71   H46   S    
Br6   C44   S    
C142  H13   S    
C63   H42   S    
C113  O48   S    
C18   O7    A    
C8    O60   A    
C12   H5    S    
C56   C61   A    
O35   Zn10  S    
C69   C78   A    
C72   H47   S    
C5    O39   A    
C6    O40   A    
C111  O46   S    
C21   C38   A    
C8    C119  S    
O38   Zn10  S    
O24   Zn9   S    
O14   Zn1   S    
C73   C89   S    
O45   Zn12  S    
C90   C94   A    
C42   C47   A    
C72   C77   A    
C104  O17   A    
C75   C154  S    
C24   C104  S    
O43   Zn4   S    
C16   H8    S    
C136  C145  A    
C35   C150  A    
C35   H18   S    
C118  C122  A    
C59   H38   S    
C158  O49   S    
C17   O5    A    
C56   H36   S    
C48   C106  A    
Br11  C148  S    
C86   C90   A    
O5    Zn12  S    
Br9   C146  S    
C27   C30   A    
C10   O3    A    
Br8   C47   S    
O31   Zn9   S    
C54   H33   S    
C156  O33   A    
C49   C117  A    
