data_mof_unit_29555.cif
_audit_creation_date              2013-03-05T16:12:21-0500
_audit_creation_method            fapswitch 2.2
_symmetry_space_group_name_H-M    P1
_symmetry_Int_Tables_number       1
_space_group_crystal_system       triclinic
_cell_length_a                    6.938734
_cell_length_b                    21.782084
_cell_length_c                    22.179665
_cell_angle_alpha                 107.725093
_cell_angle_beta                  90.819491
_cell_angle_gamma                 90.800836
_cell_volume                      3192.18190526

loop_
_atom_site_label
_atom_site_type_symbol
_atom_site_description
_atom_site_fract_x
_atom_site_fract_y
_atom_site_fract_z
_atom_type_partial_charge
O1    O     O_R   0.505730 0.449200 0.552060 -0.542809
O2    O     O_R   0.171560 0.427840 0.423150 -0.588602
O3    O     O_R   0.005630 0.550800 0.447940 -0.609550
C1    C     C_R   0.338011 0.409411 0.398769 0.986098
O4    O     O_R   0.175730 0.441570 0.550050 -0.561565
O5    O     O_R   0.009820 0.564620 0.575740 -0.598365
C2    C     C_R   0.345072 0.427530 0.567835 1.085824
O6    O     O_R   0.501530 0.435380 0.424260 -0.600300
O7    O     O_3   0.340640 0.540360 0.508280 -0.292960
V1    V     V_3+5 0.064080 0.492510 0.498460 1.240305
O8    O     O_R   0.680360 0.572160 0.576850 -0.584930
C3    C     C_R   0.851371 0.589902 0.601191 1.016473
O9    O     O_R   0.676190 0.558430 0.449950 -0.603290
C4    C     C_R   0.845146 0.571390 0.431180 0.988389
V2    V     V_3+5 0.564610 0.507490 0.501540 1.226364
O10   O     O_3   0.837920 0.459640 0.491720 -0.243061
C5    C     C_R   0.072167 0.801366 0.148628 0.839247
C6    C     C_R   0.080441 0.841174 0.109383 -0.221439
H1    H     H_    0.197456 0.835290 0.076425 0.225710
C7    C     C_R   0.938174 0.887332 0.111768 -0.387787
C8    C     C_R   0.786859 0.893146 0.155566 0.391267
C9    C     C_R   0.780542 0.853235 0.194797 -0.239926
H2    H     H_    0.664425 0.858366 0.228067 0.203614
C10   C     C_R   0.921448 0.807069 0.191414 -0.181488
C11   C     C_1   0.910312 0.766144 0.232251 0.201738
C12   C     C_1   0.900998 0.732213 0.266614 0.225609
C13   C     C_R   0.043100 0.649357 0.311407 0.335925
C14   C     C_R   0.023940 0.610811 0.351971 -0.243645
H3    H     H_    0.139406 0.578853 0.354946 0.185788
C15   C     C_R   0.858621 0.612613 0.388495 -0.252513
C16   C     C_R   0.709910 0.654076 0.383987 -0.287873
H4    H     H_    0.581142 0.656759 0.411637 0.171914
C17   C     C_R   0.727249 0.693572 0.344752 0.846422
C18   C     C_R   0.892033 0.691564 0.307963 -0.292167
C19   C     C_R   0.868652 0.641982 0.662126 -0.213133
C20   C     C_R   0.926826 0.857817 0.837440 -0.475280
C21   C     C_R   0.856817 0.820725 0.723906 -0.211258
C22   C     C_R   0.883333 0.871621 0.780290 0.313900
C23   C     C_R   0.946708 0.792874 0.836602 0.312253
C24   C     C_R   0.922147 0.741691 0.778864 -0.190706
C25   C     C_R   0.873456 0.756384 0.722573 0.069087
C26   C     C_R   0.844334 0.706555 0.665013 -0.200150
C27   C     C_R   0.922005 0.627366 0.717208 -0.297306
C28   C     C_R   0.947245 0.676152 0.775045 0.846503
H5    H     H_    0.807099 0.718013 0.622059 0.125454
H6    H     H_    0.944654 0.577706 0.715357 0.188881
H7    H     H_    0.821486 0.831573 0.680518 0.172790
C29   C     C_R   0.337443 0.354629 0.338799 -0.169475
C30   C     C_R   0.456123 0.145787 0.160785 -0.180185
C31   C     C_R   0.610232 0.205990 0.261262 -0.083450
C32   C     C_R   0.604016 0.152980 0.206384 0.002548
C33   C     C_R   0.312827 0.192831 0.171378 -0.180800
C34   C     C_R   0.315581 0.246677 0.227084 0.030488
C35   C     C_R   0.468807 0.253393 0.271955 0.156524
C36   C     C_R   0.479739 0.307419 0.326818 -0.203410
C37   C     C_R   0.186201 0.347833 0.294376 -0.241865
C38   C     C_R   0.173499 0.295065 0.238732 0.334520
H8    H     H_    0.596535 0.311925 0.360989 0.152191
H9    H     H_    0.075478 0.383947 0.303244 0.172293
H10   H     H_    0.727679 0.210298 0.295127 0.131672
H11   H     H_    0.716498 0.117626 0.199292 0.148310
H12   H     H_    0.204654 0.187855 0.134638 0.180098
C39   C     C_R   0.585011 0.191637 0.843946 -0.087720
H13   H     H_    0.708959 0.221234 0.840983 0.189191
C40   C     C_R   0.596972 0.151500 0.882585 -0.114328
H14   H     H_    0.730312 0.151177 0.908464 0.195263
C41   C     C_R   0.438314 0.113099 0.888558 -0.392394
C42   C     C_R   0.267230 0.115196 0.853799 0.673018
C43   C     C_R   0.254495 0.155030 0.814123 0.191848
C44   C     C_R   0.415713 0.193769 0.809424 -0.118696
C45   C     C_1   0.411501 0.234472 0.768179 0.153968
C46   C     C_1   0.402415 0.267992 0.733460 0.101768
C47   C     C_R   0.526568 0.355128 0.693801 -0.230565
H15   H     H_    0.646743 0.362897 0.727181 0.174231
C48   C     C_R   0.512385 0.393392 0.653403 0.809787
C49   C     C_R   0.357678 0.384602 0.609119 -0.530806
C50   C     C_R   0.217231 0.335523 0.606281 0.322253
C51   C     C_R   0.232363 0.298402 0.648265 -0.186609
H16   H     H_    0.125640 0.260881 0.645899 0.197203
C52   C     C_R   0.386905 0.307654 0.691611 -0.019951
O11   O     O_R   0.294110 0.064720 0.075690 -0.601863
O12   O     O_R   0.619980 0.058360 0.949870 -0.575435
O13   O     O_R   0.785810 0.935300 0.924300 -0.575013
C53   C     C_R   0.450603 0.071304 0.930948 1.043782
O14   O     O_R   0.624080 0.072230 0.076800 -0.597130
O15   O     O_R   0.789930 0.949270 0.052130 -0.571201
C54   C     C_R   0.457501 0.090695 0.101137 0.972904
O16   O     O_R   0.289980 0.050750 0.947860 -0.558402
O17   O     O_3   0.454970 0.959660 0.991750 -0.242155
V3    V     V_3+5 0.731560 0.007480 0.001530 1.292067
O18   O     O_R   0.119360 0.941610 0.050140 -0.564421
C55   C     C_R   0.950337 0.929001 0.069280 1.038903
O19   O     O_R   0.115260 0.927740 0.923220 -0.575055
C56   C     C_R   0.944387 0.910543 0.898420 1.119511
V4    V     V_3+5 0.231020 0.992470 0.998490 1.303880
O20   O     O_3   0.957740 0.040330 0.008250 -0.280565
F1    F     F_    0.211312 0.757202 0.144684 -0.629460
F2    F     F_    0.001133 0.658460 0.826325 -0.616473
N1    N     N_R   0.869271 0.936775 0.777855 0.254292
O21   O     O_R   0.920544 0.950568 0.727186 -0.313901
O22   O     O_R   0.785491 0.980790 0.822465 -0.342802
N2    N     N_R   0.984700 0.779430 0.894971 0.257435
O23   O     O_R   0.152451 0.793702 0.923112 -0.352082
O24   O     O_R   0.845892 0.758773 0.923004 -0.308579
N3    N     N_R   0.015766 0.292195 0.195116 0.231621
O25   O     O_R   0.955483 0.344908 0.185683 -0.353358
O26   O     O_R   0.912225 0.239670 0.173069 -0.436583
F3    F     F_    0.111122 0.078805 0.858661 -0.631084
N4    N     N_R   0.078259 0.155300 0.778885 0.247842
O27   O     O_R   0.970769 0.103398 0.758727 -0.254836
O28   O     O_R   0.019718 0.207862 0.768763 -0.435761
F4    F     F_    0.649072 0.440082 0.658753 -0.681405
N5    N     N_R   0.064202 0.320480 0.559473 0.260362
O29   O     O_R   0.101965 0.312943 0.500374 -0.393730
O30   O     O_R   0.894596 0.303379 0.573713 -0.371603
N6    N     N_R   0.641969 0.940768 0.162666 0.228249
O31   O     O_R   0.636505 0.988435 0.214906 -0.414042
O32   O     O_R   0.492565 0.928571 0.124540 -0.385052
N7    N     N_R   0.215201 0.644158 0.274340 0.267265
O33   O     O_R   0.325183 0.594397 0.265676 -0.367140
O34   O     O_R   0.270133 0.690133 0.251961 -0.289081
F5    F     F_    0.582608 0.734340 0.342990 -0.656272

loop_
_geom_bond_atom_site_label_1
_geom_bond_atom_site_label_2
_geom_bond_distance
_ccdc_geom_bond_type
C29   C36   1.404424 A    
C38   N3    1.438253 S    
C39   C40   1.400659 A    
O19   C56   1.300801 A    
C47   H15   1.083620 S    
C30   C54   1.491446 S    
V4    O20   2.158443 S    
C32   H11   1.083285 S    
C1    O6    1.302290 A    
V1    O10   1.701257 S    
C34   C35   1.420904 A    
N6    O31   1.300690 A    
N3    O26   1.300206 A    
C48   F4    1.358032 S    
C31   C35   1.403998 A    
C14   H3    1.082993 S    
N4    O28   1.301197 A    
O5    C3    1.294634 A    
C15   C16   1.403044 A    
O11   V4    1.979574 S    
C51   C52   1.400454 A    
C40   C41   1.405378 A    
V2    O10   2.158481 S    
C37   C38   1.407966 A    
C6    H1    1.082997 S    
C25   C26   1.411211 A    
C19   C26   1.401064 A    
O8    V2    1.979071 S    
C12   C18   1.457198 S    
N1    O21   1.301477 A    
C42   C43   1.414174 A    
C30   C32   1.403503 A    
C16   C17   1.402795 A    
C44   C45   1.455201 S    
O1    V2    1.974697 S    
C21   H7    1.084120 S    
C19   C27   1.399332 A    
O7    V1    2.147125 S    
O14   C54   1.299140 A    
O16   V4    1.976504 S    
C41   C53   1.497035 S    
O19   V4    1.979131 S    
C8    C9    1.405483 A    
C47   C48   1.400594 A    
N2    O23   1.300783 A    
C43   N4    1.442888 S    
C4    C15   1.493012 S    
C8    N6    1.430307 S    
C50   N5    1.436772 S    
C17   C18   1.407627 A    
N7    O34   1.300740 A    
C13   C18   1.420277 A    
C5    C10   1.403536 A    
C41   C42   1.415083 A    
C49   C50   1.422896 A    
O15   V3    1.974598 S    
C23   C24   1.425160 A    
O4    C2    1.303855 A    
C34   C38   1.421301 A    
C51   H16   1.083933 S    
C31   C32   1.399270 A    
C11   C12   1.214274 T    
C50   C51   1.410668 A    
O13   C56   1.295054 A    
O18   V4    1.978410 S    
C26   H5    1.084544 S    
O17   V4    1.708928 S    
O2    C1    1.298523 A    
C48   C49   1.415382 A    
C21   C22   1.403699 A    
C7    C55   1.496644 S    
C16   H4    1.083116 S    
C39   C44   1.402081 A    
C24   C28   1.417476 A    
O14   V3    1.990928 S    
C30   C33   1.407992 A    
C5    C6    1.404434 A    
C10   C11   1.453505 S    
C3    C19   1.478476 S    
N2    O24   1.300793 A    
O11   C54   1.301283 A    
O3    C4    1.297295 A    
C24   C25   1.417600 A    
N1    O22   1.300210 A    
O6    V2    1.979051 S    
O12   C53   1.305395 A    
O9    V2    1.978460 S    
C27   C28   1.401370 A    
C17   F5    1.357301 S    
C9    C10   1.398720 A    
O2    V1    1.990689 S    
O18   C55   1.306657 A    
C33   C34   1.420878 A    
C23   N2    1.433335 S    
N5    O29   1.301454 A    
C1    C29   1.492102 S    
C29   C37   1.404020 A    
O13   V3    1.985671 S    
C35   C36   1.412191 A    
O1    C2    1.298042 A    
C20   C23   1.417734 A    
C53   O16   1.297518 A    
C22   N1    1.441165 S    
O5    V1    1.985570 S    
N7    O33   1.301780 A    
V3    O20   1.701240 S    
C2    C49   1.497267 S    
C13   N7    1.445656 S    
N3    O25   1.301659 A    
O12   V3    1.977974 S    
C37   H9    1.083845 S    
C31   H10   1.083747 S    
C20   C22   1.418397 A    
O7    V2    1.709583 S    
O4    V1    1.977980 S    
C46   C52   1.451710 S    
O3    V1    1.974791 S    
C33   H12   1.079632 S    
N4    O27   1.301304 A    
C14   C15   1.407883 A    
C47   C52   1.396738 A    
N6    O32   1.300295 A    
C6    C7    1.408895 A    
C21   C25   1.399202 A    
C43   C44   1.415898 A    
C27   H6    1.083673 S    
C28   F2    1.356726 S    
C39   H13   1.082384 S    
C20   C56   1.486173 S    
C45   C46   1.213392 T    
C7    C8    1.421279 A    
C40   H14   1.083043 S    
C36   H8    1.084317 S    
C13   C14   1.411502 A    
C9    H2    1.084204 S    
O15   C55   1.297047 A    
C42   F3    1.358181 S    
O17   V3    2.147074 S    
O9    C4    1.305244 A    
C5    F1    1.357348 S    
O8    C3    1.300249 A    
N5    O30   1.301347 A    
