data_mof_unit_65012.cif
_audit_creation_date              2012-12-10T19:07:50-0500
_audit_creation_method            fapswitch 2.2
_symmetry_space_group_name_H-M    P1
_symmetry_Int_Tables_number       1
_space_group_crystal_system       triclinic
_cell_length_a                    25.521113
_cell_length_b                    34.597713
_cell_length_c                    21.527378
_cell_angle_alpha                 89.999261
_cell_angle_beta                  126.294003
_cell_angle_gamma                 90.001452
_cell_volume                      15320.3230396

loop_
_atom_site_label
_atom_site_type_symbol
_atom_type_description
_atom_site_fract_x
_atom_site_fract_y
_atom_site_fract_z
_atom_type_partial_charge
C1    C     C_R   0.141578 0.249975 0.999912 0.778331
C2    C     C_3   0.758019 0.214610 0.981044 -0.173186
C3    C     C_R   0.040321 0.918466 0.986654 0.348282
C4    C     C_R   0.540448 0.581556 0.986790 0.348435
C5    C     C_R   0.523355 0.418652 0.068576 0.349603
C6    C     C_R   0.459653 0.581540 0.013307 0.348256
C7    C     C_R   0.476716 0.418659 0.931468 0.349799
C8    C     C_R   0.999976 0.102142 0.999984 -0.211581
C9    C     C_R   0.999964 0.897737 0.999966 -0.205490
C10   C     C_R   0.500034 0.602268 0.000032 -0.205053
C11   C     C_R   0.500022 0.397863 0.000015 -0.211552
C12   C     C_R   0.999926 0.021006 0.999954 -0.000463
C13   C     C_3   0.758138 0.785385 0.981258 -0.156772
C14   C     C_R   0.999929 0.978808 0.999946 0.005542
C15   C     C_R   0.500067 0.521199 0.000049 0.005756
C16   C     C_R   0.500069 0.479001 0.000042 -0.000440
C17   C     C_R   0.999997 0.144781 0.999998 0.892766
C18   C     C_R   0.999993 0.855175 0.999993 0.897308
C19   C     C_R   0.500007 0.644826 0.000007 0.897542
C20   C     C_R   0.500003 0.355220 0.000002 0.892485
C21   C     C_R   0.000001 0.355186 0.999998 0.826293
C22   C     C_R   0.000000 0.644818 0.999995 0.827342
C23   C     C_R   0.500000 0.855189 0.000003 0.826561
C24   C     C_3   0.267676 0.240332 0.070457 -0.174224
C25   C     C_R   0.499999 0.144821 0.000004 0.827532
C26   C     C_R   0.048516 0.458734 0.065797 -0.222841
C27   C     C_R   0.943814 0.541286 0.977146 -0.221665
C28   C     C_R   0.951509 0.458728 0.934140 -0.222857
C29   C     C_R   0.056196 0.541294 0.022770 -0.221576
C30   C     C_R   0.548631 0.958740 0.065771 -0.221892
C31   C     C_R   0.443886 0.041305 0.977560 -0.222104
C32   C     C_R   0.451341 0.958747 0.934318 -0.221877
C33   C     C_R   0.556099 0.041298 0.022551 -0.222145
C34   C     C_R   0.048713 0.418395 0.066691 0.058199
C35   C     C_3   0.741962 0.285360 0.018926 -0.172700
C36   C     C_R   0.943392 0.581625 0.977509 0.060354
C37   C     C_R   0.951303 0.418388 0.933269 0.058305
C38   C     C_R   0.056610 0.581635 0.022421 0.060054
C39   C     C_R   0.548841 0.918400 0.066642 0.059283
C40   C     C_R   0.443477 0.081646 0.977898 0.061087
C41   C     C_R   0.451144 0.918407 0.933414 0.059190
C42   C     C_R   0.556515 0.081638 0.022183 0.061344
C43   C     C_R   0.000005 0.397774 0.999987 -0.010826
C44   C     C_R   0.000001 0.602240 0.999976 -0.008829
C45   C     C_R   0.499996 0.897782 0.000019 -0.010028
C46   C     C_3   0.232291 0.740429 0.929488 -0.176776
C47   C     C_R   0.499996 0.102248 0.000024 -0.009218
C48   C     C_R   0.000013 0.478876 0.999963 0.089820
C49   C     C_R   0.000008 0.521145 0.999958 0.090958
C50   C     C_R   0.499983 0.978888 0.000052 0.089902
C51   C     C_R   0.499990 0.021156 0.000059 0.090915
C52   C     C_3   0.741152 0.275936 0.948155 -0.124312
C53   C     C_3   0.223018 0.714616 0.980991 -0.165058
C54   C     C_3   0.223141 0.285378 0.981210 -0.174682
C55   C     C_3   0.741103 0.724100 0.948053 -0.120074
C56   C     C_3   0.276960 0.785351 0.018983 -0.165155
C57   C     C_3   0.232344 0.259635 0.929571 -0.173989
C58   C     C_3   0.758825 0.224034 0.051813 -0.124451
C59   C     C_3   0.758920 0.775869 0.051979 -0.119749
C60   C     C_3   0.276881 0.214590 0.018817 -0.174412
C61   C     C_3   0.741881 0.714585 0.018772 -0.157504
C62   C     C_3   0.198772 0.750116 0.999708 0.036216
C63   C     C_3   0.800971 0.250103 0.999785 0.047248
C64   C     C_3   0.800990 0.749868 0.999816 0.037589
C65   C     C_R   0.858379 0.749965 1.000000 0.790395
C66   C     C_3   0.198787 0.249858 0.999728 0.047364
C67   C     C_3   0.699010 0.249869 0.000185 0.046774
C68   C     C_3   0.301209 0.749855 0.000264 0.036342
C69   C     C_3   0.301232 0.250112 0.000300 0.047261
C70   C     C_3   0.699029 0.750105 0.000214 0.038127
C71   C     C_3   0.207109 0.775953 0.948155 -0.112738
C72   C     C_3   0.802659 0.259554 0.070501 -0.175247
C73   C     C_3   0.802654 0.740323 0.070482 -0.183929
C74   C     C_3   0.207056 0.224089 0.948037 -0.125056
C75   C     C_3   0.697320 0.240416 0.929470 -0.174856
C76   C     C_R   0.858372 0.250026 0.999987 0.778245
C77   C     C_3   0.292872 0.724015 0.051818 -0.113162
C78   C     C_3   0.292963 0.275879 0.051991 -0.124663
C79   C     C_3   0.697367 0.759647 0.929547 -0.184092
C80   C     C_R   0.236102 0.277372 0.414411 -0.131554
C81   C     C_R   0.762859 0.723383 0.585435 -0.131015
C82   C     C_R   0.763907 0.277376 0.585592 -0.131382
C83   C     C_R   0.237135 0.723382 0.414564 -0.131167
C84   C     C_R   0.736203 0.777327 0.414393 -0.132536
C85   C     C_R   0.263177 0.223167 0.585452 -0.130216
C86   C     C_R   0.263796 0.777325 0.585607 -0.132681
C87   C     C_R   0.141573 0.750020 0.999906 0.791863
C88   C     C_R   0.736814 0.223165 0.414548 -0.130041
C89   C     C_R   0.194042 0.277957 0.334670 -0.235161
C90   C     C_R   0.805023 0.722611 0.665171 -0.233629
C91   C     C_R   0.805969 0.277961 0.665332 -0.234949
C92   C     C_R   0.194972 0.722610 0.334828 -0.233845
C93   C     C_R   0.694179 0.777889 0.334653 -0.235675
C94   C     C_R   0.305342 0.222423 0.665191 -0.233329
C95   C     C_R   0.305821 0.777888 0.665347 -0.235879
C96   C     C_R   0.694651 0.222422 0.334809 -0.233118
C97   C     C_R   0.151143 0.247369 0.294579 -0.060667
C98   C     C_R   0.641629 0.750025 0.000015 0.789618
C99   C     C_R   0.848648 0.752882 0.705434 -0.060751
C100  C     C_R   0.848859 0.247371 0.705422 -0.060349
C101  C     C_R   0.151352 0.752881 0.294566 -0.061060
C102  C     C_R   0.651129 0.747361 0.294579 -0.060149
C103  C     C_R   0.348684 0.252814 0.705427 -0.061070
C104  C     C_R   0.348869 0.747360 0.705422 -0.060463
C105  C     C_R   0.651313 0.252814 0.294573 -0.060755
C106  C     C_R   0.157483 0.213616 0.335073 0.021032
C107  C     C_R   0.842897 0.786606 0.665156 0.035666
C108  C     C_R   0.842508 0.213617 0.664927 0.021215
C109  C     C_R   0.358431 0.250015 0.000102 0.779242
C110  C     C_R   0.157106 0.786606 0.334845 0.035494
C111  C     C_R   0.657265 0.713659 0.335096 0.035132
C112  C     C_R   0.342642 0.286583 0.665113 0.021497
C113  C     C_R   0.342731 0.713658 0.664905 0.034963
C114  C     C_R   0.657360 0.286583 0.334886 0.021686
C115  C     C_R   0.202068 0.212821 0.416112 0.321831
C116  C     C_R   0.798199 0.787598 0.584135 0.325170
C117  C     C_R   0.797922 0.212822 0.583887 0.321959
C118  C     C_R   0.201803 0.787597 0.415866 0.325032
C119  C     C_R   0.701817 0.712886 0.416149 0.325200
C120  C     C_R   0.358418 0.749970 0.000080 0.791020
C121  C     C_R   0.297945 0.287545 0.584098 0.321836
C122  C     C_R   0.298178 0.712884 0.583851 0.325062
C123  C     C_R   0.702056 0.287545 0.415901 0.321970
C124  C     C_R   0.233454 0.247694 0.457227 0.039808
C125  C     C_R   0.766115 0.752893 0.542801 0.038762
C126  C     C_R   0.766545 0.247696 0.542774 0.039842
C127  C     C_R   0.233883 0.752891 0.457199 0.038751
C128  C     C_R   0.733385 0.747741 0.457234 0.038632
C129  C     C_R   0.266164 0.252786 0.542794 0.039778
C130  C     C_R   0.266612 0.747739 0.542766 0.038623
C131  C     C_R   0.641619 0.249964 0.999999 0.779107
C132  C     C_R   0.733832 0.252786 0.457206 0.039817
C133  C     C_R   0.977412 0.041095 0.932266 -0.192132
C134  C     C_R   0.960536 0.958713 0.014034 -0.191272
C135  C     C_R   0.022463 0.041087 0.067656 -0.192005
C136  C     C_R   0.039328 0.958728 0.985854 -0.191547
C137  C     C_R   0.539485 0.541294 0.986000 -0.191425
C138  C     C_R   0.522400 0.458914 0.067673 -0.192041
C139  C     C_R   0.460643 0.541279 0.014104 -0.191693
C140  C     C_R   0.477717 0.458921 0.932399 -0.191917
C141  C     C_R   0.894222 0.249455 0.789847 0.838589
C142  C     C_3   0.267690 0.759538 0.070485 -0.176656
C143  C     C_R   0.105816 0.750583 0.210158 0.831468
C144  C     C_R   0.105779 0.249455 0.210153 0.837061
C145  C     C_R   0.894184 0.750583 0.789841 0.832733
C146  C     C_R   0.394222 0.749452 0.789847 0.832143
C147  C     C_R   0.605808 0.250572 0.210158 0.837812
C148  C     C_R   0.605778 0.749452 0.210153 0.833395
C149  C     C_R   0.394191 0.250572 0.789841 0.836279
C150  C     C_R   0.976458 0.081358 0.931368 0.349248
C151  C     C_R   0.959573 0.918450 0.013245 0.348459
C152  C     C_R   0.023466 0.081350 0.068583 0.349446
Cl1   Cl    Cl    0.942204 0.103959 0.841604 -0.588193
Cl2   Cl    Cl    0.772075 0.834112 0.541789 -0.646082
Cl3   Cl    Cl    0.771044 0.166442 0.541075 -0.635120
Cl4   Cl    Cl    0.227931 0.834111 0.458214 -0.645946
Cl5   Cl    Cl    0.728379 0.666505 0.459047 -0.643901
Cl6   Cl    Cl    0.271414 0.334029 0.541708 -0.637252
Cl7   Cl    Cl    0.271613 0.666503 0.540953 -0.643761
Cl8   Cl    Cl    0.728595 0.334029 0.458287 -0.637271
Cl9   Cl    Cl    0.904321 0.895634 0.025324 -0.590102
Cl10  Cl    Cl    0.057752 0.103940 0.158365 -0.586969
Cl11  Cl    Cl    0.095554 0.895676 0.974517 -0.586246
Cl12  Cl    Cl    0.595724 0.604373 0.974755 -0.592036
Cl13  Cl    Cl    0.557373 0.396066 0.158299 -0.588143
Cl14  Cl    Cl    0.404400 0.604333 0.025403 -0.588183
Cl15  Cl    Cl    0.442666 0.396083 0.841729 -0.586907
Cl16  Cl    Cl    0.228930 0.166439 0.458924 -0.635099
H1    H     H_    0.085719 0.474382 0.117197 0.149128
H2    H     H_    0.929497 0.974462 0.024114 0.190190
H3    H     H_    0.040548 0.025317 0.120279 0.194894
H4    H     H_    0.070351 0.974490 0.975761 0.190223
H5    H     H_    0.570542 0.525545 0.975951 0.190129
H6    H     H_    0.540356 0.474678 0.120264 0.194754
H7    H     H_    0.429602 0.525518 0.024166 0.190164
H8    H     H_    0.459771 0.474690 0.879815 0.194852
H9    H     H_    0.281008 0.767363 0.128197 0.152317
H10   H     H_    0.765763 0.185647 0.965551 0.148586
H11   H     H_    0.765994 0.814367 0.965940 0.172425
H12   H     H_    0.900436 0.525639 0.960322 0.147390
H13   H     H_    0.280969 0.232430 0.128126 0.148266
H14   H     H_    0.734216 0.314322 0.034420 0.149436
H15   H     H_    0.218972 0.732604 0.871775 0.152322
H16   H     H_    0.219051 0.267537 0.871901 0.148230
H17   H     H_    0.734027 0.685602 0.034089 0.171641
H18   H     H_    0.734826 0.297234 0.905620 0.158717
H19   H     H_    0.199774 0.685659 0.965456 0.152480
H20   H     H_    0.199978 0.314354 0.965815 0.145994
H21   H     H_    0.734728 0.702851 0.905419 0.163454
H22   H     H_    0.300200 0.814308 0.034534 0.153504
H23   H     H_    0.914307 0.474370 0.882732 0.149055
H24   H     H_    0.765140 0.202732 0.094338 0.158680
H25   H     H_    0.765306 0.797115 0.094624 0.163621
H26   H     H_    0.300048 0.185613 0.034196 0.145249
H27   H     H_    0.170990 0.797270 0.905639 0.173554
H28   H     H_    0.846944 0.267383 0.128232 0.147207
H29   H     H_    0.846920 0.732419 0.128173 0.150306
H30   H     H_    0.170877 0.202838 0.905382 0.162082
H31   H     H_    0.653033 0.232586 0.871740 0.147211
H32   H     H_    0.328990 0.702697 0.094333 0.173161
H33   H     H_    0.329143 0.297129 0.094647 0.162500
H34   H     H_    0.099578 0.525654 0.039588 0.147398
H35   H     H_    0.653103 0.767550 0.871855 0.150322
H36   H     H_    0.271791 0.299997 0.441151 0.211927
H37   H     H_    0.726685 0.701012 0.558472 0.211688
H38   H     H_    0.728223 0.300003 0.558854 0.211823
H39   H     H_    0.273306 0.701009 0.441527 0.211796
H40   H     H_    0.772001 0.799891 0.441106 0.212482
H41   H     H_    0.227200 0.200688 0.558519 0.211383
H42   H     H_    0.227999 0.799889 0.558894 0.212582
H43   H     H_    0.772788 0.200686 0.441482 0.211267
H44   H     H_    0.195195 0.302590 0.304411 0.188508
H45   H     H_    0.585947 0.974383 0.117104 0.148959
H46   H     H_    0.803400 0.698077 0.695277 0.188876
H47   H     H_    0.804824 0.302595 0.695593 0.188085
H48   H     H_    0.196592 0.698075 0.304722 0.189301
H49   H     H_    0.695477 0.802462 0.304382 0.188842
H50   H     H_    0.303935 0.197823 0.695323 0.188594
H51   H     H_    0.304524 0.802462 0.695618 0.189244
H52   H     H_    0.696055 0.197821 0.304678 0.188145
H53   H     H_    0.094290 0.407723 0.180059 0.192278
H54   H     H_    0.143114 0.406926 0.151145 0.198533
H55   H     H_    0.847591 0.593105 0.900930 0.199855
H56   H     H_    0.400576 0.025665 0.960996 0.147353
H57   H     H_    0.874620 0.592313 0.994061 0.189315
H58   H     H_    0.905725 0.407697 0.819908 0.192206
H59   H     H_    0.856899 0.406919 0.848820 0.198076
H60   H     H_    0.152408 0.593127 0.098991 0.200928
H61   H     H_    0.125374 0.592341 0.005858 0.188061
H62   H     H_    0.594791 0.907715 0.180075 0.192236
H63   H     H_    0.643328 0.906941 0.150757 0.199398
H64   H     H_    0.347638 0.093131 0.901753 0.199483
H65   H     H_    0.375069 0.092377 0.995029 0.184147
H66   H     H_    0.405199 0.907752 0.819972 0.192321
H67   H     H_    0.414023 0.974396 0.882995 0.149032
H68   H     H_    0.356661 0.906943 0.849288 0.199824
H69   H     H_    0.652347 0.093130 0.098358 0.198423
H70   H     H_    0.624962 0.092334 0.005102 0.185460
H71   H     H_    0.154422 0.158151 0.302058 0.267652
H72   H     H_    0.096729 0.169663 0.315047 0.238573
H73   H     H_    0.847331 0.842144 0.698827 0.239824
H74   H     H_    0.904464 0.830055 0.685212 0.229721
H75   H     H_    0.845543 0.158156 0.697944 0.267803
H76   H     H_    0.903238 0.169651 0.684948 0.238128
H77   H     H_    0.152679 0.842144 0.301178 0.239804
H78   H     H_    0.599407 0.025652 0.039128 0.147349
H79   H     H_    0.095542 0.830055 0.314787 0.230371
H80   H     H_    0.653754 0.658110 0.302037 0.239715
H81   H     H_    0.596218 0.669902 0.315142 0.229812
H82   H     H_    0.346401 0.342042 0.698579 0.268056
H83   H     H_    0.403796 0.330301 0.685215 0.238426
H84   H     H_    0.346239 0.658108 0.697961 0.239693
H85   H     H_    0.403778 0.669902 0.684862 0.230452
H86   H     H_    0.653618 0.342038 0.301415 0.268211
H87   H     H_    0.596220 0.330308 0.314784 0.237969
H88   H     H_    0.959316 0.025331 0.879634 0.194796
N1    N     N_3   0.097597 0.398590 0.136185 -0.423604
N2    N     N_3   0.879445 0.820496 0.707045 -0.400761
N3    N     N_3   0.878237 0.179506 0.706614 -0.365332
N4    N     N_3   0.120563 0.820496 0.292956 -0.399993
N5    N     N_3   0.621267 0.679593 0.293430 -0.401409
N6    N     N_3   0.378806 0.320558 0.706968 -0.364521
N7    N     N_3   0.378727 0.679592 0.706571 -0.400655
N8    N     N_3   0.621206 0.320559 0.293029 -0.364977
N9    N     N_3   0.885796 0.601440 0.956847 -0.424176
N10   N     N_3   0.902415 0.398576 0.863787 -0.424094
N11   N     N_3   0.114198 0.601460 0.043076 -0.424318
N12   N     N_3   0.597892 0.898594 0.136038 -0.423355
N13   N     N_3   0.386000 0.101480 0.957577 -0.426281
N14   N     N_3   0.402099 0.898610 0.864001 -0.422854
N15   N     N_3   0.614004 0.101462 0.042513 -0.426257
N16   N     N_3   0.121739 0.179508 0.293385 -0.364887
O1    O     O_3   0.000000 0.250010 0.000000 -0.506395
O2    O     O_R   0.359980 0.227250 0.954550 -0.638272
O3    O     O_R   0.359980 0.772750 0.954550 -0.643625
O4    O     O_R   0.640020 0.227250 0.045450 -0.644776
O5    O     O_R   0.944020 0.227270 0.826530 -0.604686
O6    O     O_R   0.055980 0.772730 0.173470 -0.616007
O7    O     O_R   0.055980 0.227270 0.173470 -0.604539
O8    O     O_R   0.944020 0.772730 0.826530 -0.616509
O9    O     O_R   0.444020 0.727270 0.826530 -0.616369
O10   O     O_R   0.555980 0.272730 0.173470 -0.604379
O11   O     O_R   0.555980 0.727270 0.173470 -0.616873
O12   O     O_3   0.000000 0.749990 0.000000 -0.508727
O13   O     O_R   0.444020 0.272730 0.826530 -0.604230
O14   O     O_R   0.008020 0.163280 0.954510 -0.594151
O15   O     O_R   0.991980 0.836720 0.045490 -0.593673
O16   O     O_R   0.991980 0.163280 0.045490 -0.594212
O17   O     O_R   0.008020 0.836720 0.954510 -0.594012
O18   O     O_R   0.508020 0.663280 0.954510 -0.593628
O19   O     O_R   0.491980 0.336720 0.045490 -0.594020
O20   O     O_R   0.491980 0.663280 0.045490 -0.593970
O21   O     O_R   0.508020 0.336720 0.954510 -0.594087
O22   O     O_R   0.053480 0.336740 0.045470 -0.624744
O23   O     O_3   0.500000 0.750010 0.000000 -0.508596
O24   O     O_R   0.946520 0.663260 0.954530 -0.624394
O25   O     O_R   0.946520 0.336740 0.954530 -0.624773
O26   O     O_R   0.053480 0.663260 0.045470 -0.624279
O27   O     O_R   0.553480 0.836740 0.045470 -0.624350
O28   O     O_R   0.446520 0.163260 0.954530 -0.624337
O29   O     O_R   0.446520 0.836740 0.954530 -0.624442
O30   O     O_R   0.553480 0.163260 0.045470 -0.624559
O31   O     O_R   0.882520 0.272750 0.826550 -0.652190
O32   O     O_R   0.117480 0.727250 0.173450 -0.653075
O33   O     O_R   0.117480 0.272750 0.173450 -0.652077
O34   O     O_3   0.500000 0.249990 0.000000 -0.506690
O35   O     O_R   0.882520 0.727250 0.826550 -0.653246
O36   O     O_R   0.382520 0.772750 0.826550 -0.650499
O37   O     O_R   0.617480 0.227250 0.173450 -0.654818
O38   O     O_R   0.617480 0.772750 0.173450 -0.650665
O39   O     O_R   0.382520 0.227250 0.826550 -0.654695
O40   O     O_R   0.094550 0.227270 0.954490 -0.642690
O41   O     O_R   0.905450 0.772730 0.045510 -0.618712
O42   O     O_R   0.905450 0.227270 0.045510 -0.635985
O43   O     O_R   0.094550 0.772730 0.954490 -0.626064
O44   O     O_R   0.594550 0.727270 0.954490 -0.618521
O45   O     O_R   0.140020 0.272750 0.045450 -0.641071
O46   O     O_R   0.405450 0.272730 0.045510 -0.642871
O47   O     O_R   0.405450 0.727270 0.045510 -0.625839
O48   O     O_R   0.594550 0.272730 0.954490 -0.636131
O49   O     O_R   0.859980 0.727250 0.954550 -0.647428
O50   O     O_R   0.859980 0.272750 0.954550 -0.647552
O51   O     O_R   0.140020 0.727250 0.045450 -0.641007
O52   O     O_R   0.640020 0.772750 0.045450 -0.650028
Zn1   Zn    Zn3+2 0.923580 0.282490 0.935040 0.976542
Zn2   Zn    Zn3+2 0.988550 0.782480 0.064990 1.030635
Zn3   Zn    Zn3+2 0.988550 0.217520 0.064990 1.025318
Zn4   Zn    Zn3+2 0.011450 0.782480 0.935010 1.028113
Zn5   Zn    Zn3+2 0.511450 0.717520 0.935010 1.030540
Zn6   Zn    Zn3+2 0.488550 0.282480 0.064990 1.023498
Zn7   Zn    Zn3+2 0.488550 0.717520 0.064990 1.028004
Zn8   Zn    Zn3+2 0.511450 0.282480 0.935010 1.025484
Zn9   Zn    Zn3+2 0.076420 0.717510 0.064960 0.980275
Zn10  Zn    Zn3+2 0.076420 0.282490 0.064960 0.978442
Zn11  Zn    Zn3+2 0.923580 0.717510 0.935040 0.978037
Zn12  Zn    Zn3+2 0.423580 0.782490 0.935040 0.979824
Zn13  Zn    Zn3+2 0.576420 0.217510 0.064960 0.977231
Zn14  Zn    Zn3+2 0.576420 0.782490 0.064960 0.977711
Zn15  Zn    Zn3+2 0.423580 0.217510 0.935040 0.979258
Zn16  Zn    Zn3+2 0.011450 0.217520 0.935010 1.023322

loop_
_geom_bond_atom_site_label_1
_geom_bond_atom_site_label_2
_ccdc_geom_bond_type
C13   C79   S    
O19   Zn6   S    
C52   C75   S    
C110  C118  A    
C88   C96   A    
C87   O51   A    
C107  N2    S    
C23   C45   S    
C65   O49   A    
O42   Zn3   S    
O50   Zn1   S    
C63   C76   S    
O44   Zn5   S    
O37   Zn13  S    
C113  N7    S    
O12   Zn11  S    
C114  N8    S    
C111  N5    S    
C91   H47   S    
H84   N7    S    
C85   C129  A    
C113  C122  A    
C151  Cl9   S    
C12   C135  A    
C1    O45   A    
C138  H6    S    
C95   H51   S    
C91   C100  A    
C117  C126  A    
C59   C73   S    
C116  Cl2   S    
O43   Zn4   S    
C119  C128  A    
C131  O48   A    
C20   O21   A    
H74   N2    S    
C102  C111  A    
O12   Zn4   S    
H66   N14   S    
C89   H44   S    
C15   C139  A    
C11   C20   S    
C27   H12   S    
C101  C110  A    
C96   H52   S    
C82   C91   A    
C34   N1    S    
C103  C112  A    
C8    C150  A    
C110  N4    S    
C23   O29   A    
O30   Zn13  S    
C140  H8    S    
O2    Zn15  S    
O48   Zn8   S    
C33   H78   S    
C146  O9    A    
C81   C90   A    
C19   O20   A    
C58   H24   S    
C36   C44   A    
C32   C41   A    
C90   H46   S    
C144  O33   A    
C68   C77   S    
C141  O31   A    
C9    C151  A    
C87   O43   A    
C29   H34   S    
C70   C79   S    
C16   C138  A    
C52   C63   S    
C85   H41   S    
C72   H28   S    
C8    C17   S    
C106  C115  A    
C30   H45   S    
C134  C151  A    
C46   C53   S    
C84   C93   A    
O14   Zn16  S    
C86   C95   A    
C142  H9    S    
C58   C67   S    
C41   C45   A    
H64   N13   S    
O36   Zn12  S    
C2    C75   S    
C15   C137  A    
C84   C128  A    
C123  C132  A    
C29   C49   A    
C59   H25   S    
C14   C136  A    
C21   O25   A    
C33   C42   A    
C55   H21   S    
O4    Zn13  S    
C8    C152  A    
C65   O41   A    
C135  C152  A    
C66   C74   S    
O33   Zn10  S    
C25   O28   A    
C93   H49   S    
C3    C136  A    
C85   C94   A    
C6    C139  A    
H77   N4    S    
H82   N6    S    
C83   H39   S    
O17   Zn4   S    
C4    C137  A    
O15   Zn2   S    
C82   C126  A    
C74   H30   S    
C19   O18   A    
C29   C38   A    
C117  Cl3   S    
C64   C73   S    
C118  Cl4   S    
C35   C67   S    
C109  O2    A    
C37   N10   S    
H85   N7    S    
C99   C145  S    
H86   N8    S    
C16   C140  A    
C52   H18   S    
C62   C142  S    
H57   N9    S    
O16   Zn3   S    
C56   H22   S    
C100  C108  A    
H73   N2    S    
C104  C146  S    
C147  O10   A    
C86   C130  A    
O22   Zn10  S    
C56   C68   S    
C25   O30   A    
C38   N11   S    
C97   C144  S    
C46   C68   S    
C3    C9    A    
C84   H40   S    
C71   H27   S    
C126  C132  S    
O45   Zn10  S    
C119  Cl5   S    
C61   H17   S    
H87   N8    S    
C143  O32   A    
C114  C123  A    
C1    O40   A    
O23   Zn7   S    
C116  C125  A    
C67   C75   S    
C118  C127  A    
O39   Zn15  S    
C28   H23   S    
C90   C99   A    
C82   H38   S    
C2    C63   S    
O25   Zn1   S    
C7    Cl15  S    
C28   C48   A    
C81   C125  A    
C24   H13   S    
C108  C117  A    
C34   C43   A    
C83   C127  A    
C54   C66   S    
C75   H31   S    
C121  Cl6   S    
O23   Zn12  S    
C131  O4    A    
C68   C120  S    
C17   O14   A    
C28   C37   A    
C55   C61   S    
O10   Zn6   S    
C62   C71   S    
C144  O7    A    
H70   N15   S    
C77   H32   S    
C107  C116  A    
H54   N1    S    
C59   C70   S    
C104  C113  A    
C9    C18   S    
C76   O42   A    
C24   C66   S    
C134  H2    S    
O27   Zn14  S    
C108  N3    S    
C2    H10   S    
C115  Cl16  S    
H63   N12   S    
C57   H16   S    
C27   C49   A    
C54   C57   S    
C61   C70   S    
C96   C105  A    
C6    Cl14  S    
O49   Zn11  S    
C148  O11   A    
C36   N9    S    
C78   H33   S    
C22   O24   A    
H79   N4    S    
H61   N11   S    
O1    Zn1   S    
H71   N16   S    
C81   H37   S    
C5    C11   A    
C100  C141  S    
C7    C140  A    
C31   C40   A    
C120  O47   A    
C80   C89   A    
O31   Zn1   S    
C136  H4    S    
C150  Cl1   S    
C122  Cl7   S    
C135  H3    S    
C25   C47   S    
C26   C48   A    
C56   C142  S    
C145  O35   A    
C30   C50   A    
C146  O36   A    
C54   H20   S    
C22   O26   A    
O11   Zn7   S    
O34   Zn15  S    
C67   C131  S    
C133  C150  A    
C31   C51   A    
C17   O16   A    
C39   N12   S    
H62   N12   S    
C18   O15   A    
C61   C73   S    
C143  O6    A    
O32   Zn9   S    
C37   C43   A    
C53   C77   S    
C38   C44   A    
H60   N11   S    
O34   Zn8   S    
C55   C79   S    
C10   C19   S    
C56   C71   S    
C147  O37   A    
C50   C51   S    
O24   Zn11  S    
H75   N3    S    
C46   C71   S    
C92   C101  A    
C13   C59   S    
C97   C106  A    
C24   C78   S    
C48   C49   S    
C35   C72   S    
C23   O27   A    
H80   N5    S    
C80   C124  A    
C115  C124  A    
C86   H42   S    
O23   Zn14  S    
C121  C129  A    
C93   C102  A    
C6    C10   A    
C2    C58   S    
C27   C36   A    
C33   C51   A    
C99   C107  A    
C62   C87   S    
C57   C74   S    
C64   C65   S    
C137  H5    S    
C80   H36   S    
C13   C64   S    
O47   Zn7   S    
O1    Zn10  S    
C124  C129  S    
C92   H48   S    
O29   Zn12  S    
O23   Zn5   S    
O3    Zn12  S    
C103  C149  S    
O18   Zn5   S    
C112  C121  A    
C63   C72   S    
C35   C52   S    
O6    Zn2   S    
C152  Cl10  S    
O34   Zn13  S    
C54   C78   S    
C32   H67   S    
C40   C47   A    
C106  N16   S    
C139  H7    S    
O51   Zn9   S    
O28   Zn15  S    
C60   H26   S    
C5    C138  A    
O13   Zn8   S    
C40   N13   S    
C35   H14   S    
C7    C11   A    
C83   C92   A    
C60   C69   S    
C111  C119  A    
O34   Zn6   S    
H65   N13   S    
C123  Cl8   S    
C15   C16   S    
C105  C147  S    
C94   H50   S    
C42   N15   S    
C77   C142  S    
C102  C148  S    
C21   C43   S    
C69   C109  S    
C26   C34   A    
C22   C44   S    
C26   H1    S    
C88   H43   S    
C73   H29   S    
C30   C39   A    
C125  C128  S    
C4    Cl12  S    
C5    Cl13  S    
O41   Zn2   S    
C98   O52   A    
C69   C78   S    
H76   N3    S    
H53   N1    S    
C133  H88   S    
O40   Zn16  S    
C18   O17   A    
O7    Zn3   S    
C105  C114  A    
C14   C134  A    
C13   H11   S    
C31   H56   S    
C89   C97   A    
C46   H15   S    
O20   Zn7   S    
C53   C62   S    
O5    Zn16  S    
C24   C60   S    
C55   C64   S    
H68   N14   S    
C1    C66   S    
C41   N14   S    
H69   N15   S    
O12   Zn9   S    
C32   C50   A    
H58   N10   S    
O21   Zn8   S    
C12   C14   S    
O1    Zn3   S    
C79   H35   S    
C12   C133  A    
C145  O8    A    
C88   C132  A    
C4    C10   A    
O38   Zn14  S    
C95   C104  A    
O8    Zn4   S    
C120  O3    A    
C148  O38   A    
C149  O39   A    
C20   O19   A    
C149  O13   A    
O12   Zn2   S    
C21   O22   A    
C94   C103  A    
H59   N10   S    
C39   C45   A    
C109  O46   A    
O1    Zn16  S    
O52   Zn14  S    
C3    Cl11  S    
H72   N16   S    
C53   H19   S    
C127  C130  S    
C141  O5    A    
C101  C143  S    
C58   C72   S    
C76   O50   A    
C60   C74   S    
O9    Zn5   S    
C42   C47   A    
H81   N5    S    
O35   Zn11  S    
H55   N9    S    
H83   N6    S    
O26   Zn9   S    
O46   Zn6   S    
C98   O44   A    
C57   C69   S    
C122  C130  A    
C70   C98   S    
C112  N6    S    
