data_mof_unit_15153.cif
_audit_creation_date              2012-12-10T17:15:14-0500
_audit_creation_method            fapswitch 2.2
_symmetry_space_group_name_H-M    P1
_symmetry_Int_Tables_number       1
_space_group_crystal_system       triclinic
_cell_length_a                    15.850769
_cell_length_b                    12.89502
_cell_length_c                    11.779551
_cell_angle_alpha                 99.631023
_cell_angle_beta                  92.814634
_cell_angle_gamma                 92.835124
_cell_volume                      2366.82380288

loop_
_atom_site_label
_atom_site_type_symbol
_atom_type_description
_atom_site_fract_x
_atom_site_fract_y
_atom_site_fract_z
_atom_type_partial_charge
C1    C     C_R   0.495675 0.299425 0.478752 0.855354
C2    C     C_R   0.504924 0.700539 0.521039 0.851642
C3    C     C_R   0.415147 0.017195 0.391896 -0.229236
C4    C     C_R   0.587841 0.982240 0.604392 -0.201393
C5    C     C_R   0.423943 0.125385 0.394206 0.255701
C6    C     C_R   0.579019 0.874065 0.602118 0.253884
C7    C     C_R   0.542121 0.138111 0.537025 -0.278267
C8    C     C_R   0.459544 0.861741 0.461432 -0.289193
C9    C     C_R   0.533268 0.030221 0.535035 0.122038
C10   C     C_R   0.469046 0.969426 0.462334 0.119239
C11   C     C_R   0.404440 0.416628 0.031154 -0.093860
C12   C     C_R   0.567460 0.617725 0.973811 -0.093083
C13   C     C_R   0.419605 0.420167 0.150151 -0.006568
C14   C     C_R   0.565554 0.598414 0.852838 -0.013261
C15   C     C_R   0.534776 0.545639 0.155120 0.406442
C16   C     C_R   0.461653 0.458216 0.844914 0.411014
C17   C     C_R   0.522147 0.546522 0.033655 -0.086926
C18   C     C_R   0.461686 0.472599 0.968708 -0.080229
C19   C     C_R   0.340141 0.499666 0.500783 0.854993
C20   C     C_R   0.659896 0.500515 0.499329 0.855766
C21   C     C_3   0.971346 0.408765 0.525840 0.010771
C22   C     C_3   0.029050 0.594078 0.476708 0.009924
C23   C     C_3   0.019857 0.423212 0.418697 0.012285
C24   C     C_3   0.980483 0.579604 0.583882 0.013584
C25   C     C_1   0.250779 0.500285 0.501829 -0.160447
C26   C     C_1   0.749378 0.500960 0.498926 -0.145069
C27   C     C_3   0.035913 0.487621 0.603093 -0.238984
C28   C     C_3   0.964459 0.515283 0.399434 -0.235654
C29   C     C_3   0.083777 0.502101 0.495255 0.082100
C30   C     C_3   0.916551 0.500692 0.507274 0.077361
C31   C     C_1   0.175296 0.501070 0.499353 -0.092982
C32   C     C_1   0.824946 0.501094 0.502413 -0.087058
C33   C     C_R   0.513711 0.813998 0.531394 -0.075499
C34   C     C_R   0.487799 0.185859 0.467353 -0.074974
Cu1   Cu    Cu3+1 0.506200 0.507730 0.615930 0.999467
Cu2   Cu    Cu3+1 0.493800 0.492270 0.384070 0.999319
H1    H     H_    0.935042 0.526717 0.315205 0.159391
H2    H     H_    0.065387 0.476285 0.687266 0.142711
H3    H     H_    0.410221 0.814640 0.405836 0.143914
H4    H     H_    0.591049 0.185351 0.593209 0.149543
H5    H     H_    0.365419 0.970873 0.336601 0.157350
H6    H     H_    0.638296 0.028341 0.658507 0.158821
H7    H     H_    0.600647 0.650997 0.807727 0.189876
H8    H     H_    0.376186 0.378391 0.197055 0.183812
N1    N     N_R   0.515540 0.519350 0.790140 -0.208822
N2    N     N_R   0.484460 0.480650 0.209860 -0.205876
O1    O     O_R   0.504400 0.354460 0.582000 -0.544488
O2    O     O_R   0.495600 0.645540 0.418000 -0.559580
O3    O     O_R   0.493920 0.341410 0.386200 -0.561811
O4    O     O_R   0.506080 0.658590 0.613800 -0.570674
O5    O     O_R   0.384320 0.506520 0.597880 -0.545623
O6    O     O_R   0.615680 0.493480 0.402120 -0.532578
O7    O     O_R   0.373840 0.493460 0.402080 -0.592348
O8    O     O_R   0.626160 0.506540 0.597920 -0.584482
C35   C     C_R   0.031103 0.333484 0.321412 0.092544
C36   C     C_R   0.958983 0.273875 0.267657 -0.129724
C37   C     C_R   0.966846 0.189426 0.178214 -0.134052
C38   C     C_R   0.046732 0.163873 0.141290 -0.133226
C39   C     C_R   0.118710 0.222807 0.193822 -0.099783
C40   C     C_R   0.111186 0.307381 0.283326 -0.123906
H9    H     H_    0.896569 0.292633 0.295465 0.132915
H10   H     H_    0.910994 0.143786 0.137594 0.126744
H11   H     H_    0.052886 0.098544 0.071953 0.118963
H12   H     H_    0.180472 0.202889 0.165089 0.175427
H13   H     H_    0.167996 0.351437 0.321589 0.159485
C41   C     C_R   0.969131 0.669075 0.681422 0.091021
C42   C     C_R   0.041028 0.730009 0.733866 -0.135285
C43   C     C_R   0.033006 0.814446 0.823256 -0.134652
C44   C     C_R   0.953221 0.838436 0.861749 -0.127928
C45   C     C_R   0.881487 0.777855 0.810959 -0.113715
C46   C     C_R   0.889149 0.693490 0.721162 -0.122455
H14   H     H_    0.103374 0.712398 0.704956 0.132443
H15   H     H_    0.088665 0.861251 0.862684 0.126763
H16   H     H_    0.946977 0.903768 0.931054 0.119109
H17   H     H_    0.819860 0.796408 0.841291 0.165441
H18   H     H_    0.832589 0.648081 0.684058 0.160381
C47   C     C_R   0.949500 0.301771 0.556434 0.108548
C48   C     C_R   0.015311 0.235875 0.573896 -0.137706
C49   C     C_R   0.997541 0.135795 0.600739 -0.155636
C50   C     C_R   0.913915 0.100394 0.610233 -0.111644
C51   C     C_R   0.848013 0.165150 0.593022 -0.128293
C52   C     C_R   0.865555 0.265450 0.566343 -0.155001
H19   H     H_    0.080495 0.262008 0.566356 0.148333
H20   H     H_    0.048620 0.085606 0.613936 0.145484
H21   H     H_    0.900190 0.022770 0.630745 0.148698
H22   H     H_    0.783184 0.137565 0.600194 0.130750
H23   H     H_    0.813287 0.313252 0.553239 0.129433
C53   C     C_R   0.051456 0.701244 0.446851 0.105987
C54   C     C_R   0.986493 0.769898 0.435602 -0.126680
C55   C     C_R   0.004970 0.870533 0.410660 -0.143764
C56   C     C_R   0.088439 0.903620 0.396491 -0.108614
C57   C     C_R   0.153460 0.835920 0.406925 -0.130277
C58   C     C_R   0.135217 0.735121 0.431839 -0.156443
H24   H     H_    0.921474 0.745615 0.446944 0.149110
H25   H     H_    0.954569 0.922944 0.402543 0.145180
H26   H     H_    0.102710 0.981652 0.377420 0.148300
H27   H     H_    0.218151 0.861600 0.395829 0.131490
H28   H     H_    0.186819 0.684926 0.439279 0.131527
Br1   Br    Br    0.662957 0.812038 0.687730 -0.624797
Br2   Br    Br    0.342664 0.186757 0.303558 -0.635618
Br3   Br    Br    0.391406 0.345564 0.752415 -0.489314
Br4   Br    Br    0.629516 0.626944 0.241601 -0.498903
C59   C     C_R   0.320530 0.368949 0.983520 0.135848
C60   C     C_R   0.300438 0.260948 0.979560 -0.091562
C61   C     C_R   0.220862 0.216660 0.934868 -0.134897
C62   C     C_R   0.160269 0.280115 0.896567 -0.096828
C63   C     C_R   0.179126 0.388036 0.902834 -0.108408
C64   C     C_R   0.258859 0.432561 0.946408 -0.105005
H29   H     H_    0.346737 0.211115 0.009508 0.155472
H30   H     H_    0.205924 0.133247 0.930755 0.125457
H31   H     H_    0.098590 0.245752 0.862555 0.130804
H32   H     H_    0.131960 0.437216 0.873987 0.120388
H33   H     H_    0.272785 0.516275 0.950799 0.122750
C65   C     C_R   0.603997 0.723010 0.029738 0.150916
C66   C     C_R   0.688842 0.753418 0.016395 -0.089391
C67   C     C_R   0.722456 0.853509 0.067941 -0.108368
C68   C     C_R   0.671554 0.924157 0.132129 -0.091883
C69   C     C_R   0.586778 0.895139 0.144384 -0.099818
C70   C     C_R   0.552805 0.795265 0.092754 -0.094998
H34   H     H_    0.728957 0.699166 0.967302 0.124040
H35   H     H_    0.788019 0.876275 0.058294 0.116519
H36   H     H_    0.697762 0.001483 0.172158 0.123021
H37   H     H_    0.547374 0.950047 0.193829 0.140645
H38   H     H_    0.486936 0.773842 0.102502 0.121307

loop_
_geom_bond_atom_site_label_1
_geom_bond_atom_site_label_2
_ccdc_geom_bond_type
C25   C31   T    
C35   C36   A    
C11   C18   A    
C26   C32   T    
C22   C29   S    
C27   C29   S    
C63   H32   S    
Cu1   Cu2   S    
C24   C27   S    
C61   H30   S    
Cu1   O1    S    
C65   C66   A    
C55   C56   A    
C37   H10   S    
C47   C48   A    
C36   C37   A    
C39   H12   S    
C4    H6    S    
C23   C29   S    
C49   H20   S    
C62   C63   A    
C27   H2    S    
C66   C67   A    
C67   C68   A    
C15   C17   A    
C42   H14   S    
C54   H24   S    
C69   C70   A    
Cu2   O7    S    
C2    O4    A    
C56   H26   S    
C48   H19   S    
C28   H1    S    
C43   C44   A    
C12   C17   A    
C57   H27   S    
C63   C64   A    
Cu2   N2    S    
C45   C46   A    
C8    H3    S    
C22   C53   S    
C9    C10   A    
C65   C70   A    
Cu2   O6    S    
C24   C41   S    
C8    C33   A    
C19   O7    A    
C41   C42   A    
C21   C27   S    
C39   C40   A    
C22   C28   S    
C35   C40   A    
Cu1   O8    S    
C29   C31   S    
C60   C61   A    
C1    C34   S    
C51   C52   A    
C14   N1    A    
C12   C65   S    
C62   H31   S    
C67   H35   S    
C42   C43   A    
C55   H25   S    
C20   O8    A    
C54   C55   A    
C56   C57   A    
C48   C49   A    
C1    O1    A    
C2    O2    A    
C38   C39   A    
C70   H38   S    
C64   H33   S    
C68   H36   S    
C50   H21   S    
C41   C46   A    
C5    Br2   S    
C7    H4    S    
C5    C34   A    
Cu1   O4    S    
C17   C18   A    
C44   H16   S    
C16   C18   A    
C23   C28   S    
C59   C64   A    
C2    C33   S    
C4    C6    A    
C12   C14   A    
C40   H13   S    
C21   C23   S    
Cu1   O5    S    
C7    C34   A    
C22   C24   S    
Cu1   N1    S    
C46   H18   S    
C59   C60   A    
C21   C30   S    
C38   H11   S    
C7    C9    A    
C53   C58   A    
C3    H5    S    
C36   H9    S    
C51   H22   S    
C50   C51   A    
C3    C5    A    
C16   N1    A    
C23   C35   S    
C61   C62   A    
C6    C33   A    
C6    Br1   S    
C28   C30   S    
C43   H15   S    
C20   O6    A    
C3    C10   A    
C68   C69   A    
C30   C32   S    
C11   C13   A    
C37   C38   A    
C60   H29   S    
C20   C26   S    
C47   C52   A    
C57   C58   A    
Cu2   O2    S    
C69   H37   S    
C15   Br4   S    
C44   C45   A    
C19   C25   S    
C24   C30   S    
C49   C50   A    
C19   O5    A    
C16   Br3   S    
C53   C54   A    
C8    C10   A    
C66   H34   S    
C21   C47   S    
C45   H17   S    
C13   N2    A    
C11   C59   S    
C15   N2    A    
C4    C9    A    
C1    O3    A    
C58   H28   S    
C13   H8    S    
Cu2   O3    S    
C52   H23   S    
C14   H7    S    
