data_mof_unit_20112.cif
_audit_creation_date              2012-12-10T16:33:54-0500
_audit_creation_method            fapswitch 2.2
_symmetry_space_group_name_H-M    P1
_symmetry_Int_Tables_number       1
_space_group_crystal_system       triclinic
_cell_length_a                    30.25206
_cell_length_b                    18.404773
_cell_length_c                    17.862802
_cell_angle_alpha                 90.104105
_cell_angle_beta                  60.295154
_cell_angle_gamma                 89.841963
_cell_volume                      8638.63374031

loop_
_atom_site_label
_atom_site_type_symbol
_atom_type_description
_atom_site_fract_x
_atom_site_fract_y
_atom_site_fract_z
_atom_type_partial_charge
C1    C     C_R   0.703492 0.272966 0.672622 0.915791
C2    C     C_R   0.295816 0.725592 0.327890 0.912683
C3    C     C_R   0.296511 0.272956 0.327338 0.920065
C4    C     C_R   0.704209 0.725565 0.672127 0.918334
C5    C     C_R   0.203486 0.772960 0.672627 0.910664
C6    C     C_R   0.795822 0.225605 0.327885 0.913653
C7    C     C_R   0.796520 0.772941 0.327329 0.917041
C8    C     C_R   0.204204 0.225574 0.672130 0.914384
C9    C     C_R   0.051136 0.364184 0.501947 0.085447
C10   C     C_R   0.941738 0.625772 0.518609 0.085943
C11   C     C_R   0.946594 0.365786 0.501972 0.080627
C12   C     C_R   0.053113 0.624680 0.493405 0.103336
C13   C     C_R   0.552707 0.869671 0.498796 0.086340
C14   C     C_R   0.442857 0.130547 0.517199 0.094725
C15   C     C_R   0.447103 0.870683 0.502385 0.089963
C16   C     C_R   0.553037 0.128061 0.499231 0.077793
C17   C     C_R   0.719641 0.264375 0.952178 0.053374
C18   C     C_R   0.274025 0.725922 0.053790 0.065992
C19   C     C_R   0.280948 0.263001 0.047430 0.059074
C20   C     C_R   0.726239 0.724492 0.946390 0.078350
C21   C     C_R   0.219577 0.764283 0.952233 0.054418
C22   C     C_R   0.774105 0.226058 0.053704 0.065960
C23   C     C_R   0.781030 0.763237 0.047304 0.060456
C24   C     C_R   0.226160 0.224573 0.946403 0.076697
C25   C     C_R   0.766247 0.222288 0.918993 0.062208
C26   C     C_R   0.225914 0.764945 0.087869 0.087052
C27   C     C_R   0.234326 0.221134 0.080769 0.069854
C28   C     C_R   0.774342 0.762813 0.911654 0.091460
C29   C     C_R   0.266228 0.722290 0.919008 0.061471
C30   C     C_R   0.726006 0.265104 0.087779 0.088011
C31   C     C_R   0.734393 0.721018 0.080695 0.067941
C32   C     C_R   0.274247 0.262598 0.911746 0.099799
C33   C     C_R   0.792735 0.207161 0.965463 0.020645
C34   C     C_R   0.201008 0.783707 0.040354 0.053803
C35   C     C_R   0.207738 0.205706 0.034438 0.015570
C36   C     C_R   0.799552 0.782316 0.958831 0.014834
C37   C     C_R   0.292671 0.707064 0.965532 0.020437
C38   C     C_R   0.701113 0.283913 0.040254 0.053272
C39   C     C_R   0.707811 0.705575 0.034393 0.016025
C40   C     C_R   0.299664 0.280777 0.958629 0.005074
C41   C     C_R   0.644820 0.329714 0.936141 -0.393139
C42   C     C_R   0.352176 0.665050 0.066107 -0.365151
C43   C     C_R   0.355643 0.328579 0.063888 -0.405895
C44   C     C_R   0.648123 0.664319 0.933725 -0.367408
C45   C     C_R   0.144715 0.829536 0.936217 -0.392110
C46   C     C_R   0.852232 0.165158 0.066053 -0.364529
C47   C     C_R   0.855746 0.828383 0.063900 -0.400855
C48   C     C_R   0.148072 0.164428 0.933767 -0.367367
C49   C     C_R   0.619604 0.353123 0.890951 -0.124427
C50   C     C_R   0.378884 0.644436 0.109950 -0.141733
C51   C     C_R   0.380606 0.352840 0.109152 -0.117360
C52   C     C_R   0.621274 0.644013 0.889985 -0.139617
C53   C     C_R   0.119548 0.853043 0.890983 -0.125267
C54   C     C_R   0.878912 0.144487 0.109926 -0.142244
C55   C     C_R   0.880641 0.852777 0.109105 -0.119963
C56   C     C_R   0.121250 0.144060 0.890003 -0.139645
C57   C     C_R   0.637079 0.333757 0.806048 0.369222
C58   C     C_R   0.361539 0.664033 0.194677 0.370310
C59   C     C_R   0.363042 0.333805 0.193952 0.370403
C60   C     C_R   0.638546 0.663769 0.805341 0.372314
C61   C     C_R   0.137044 0.833719 0.806061 0.368998
C62   C     C_R   0.861564 0.164084 0.194657 0.372572
C63   C     C_R   0.863074 0.833747 0.193907 0.372708
C64   C     C_R   0.138528 0.163798 0.805350 0.371445
C65   C     C_R   0.681475 0.291931 0.764620 -0.245398
C66   C     C_R   0.316285 0.703916 0.237045 -0.242510
C67   C     C_R   0.318743 0.291885 0.235195 -0.248081
C68   C     C_R   0.683755 0.703534 0.762963 -0.246878
C69   C     C_R   0.181441 0.791899 0.764640 -0.244837
C70   C     C_R   0.816307 0.203964 0.237026 -0.241697
C71   C     C_R   0.818775 0.791827 0.235165 -0.245486
C72   C     C_R   0.183733 0.203573 0.762976 -0.245816
C73   C     C_R   0.707586 0.270493 0.810214 0.369783
C74   C     C_R   0.287729 0.720268 0.193853 0.351685
C75   C     C_R   0.292864 0.270247 0.189327 0.372256
C76   C     C_R   0.712268 0.719729 0.806101 0.357597
C77   C     C_R   0.207552 0.770503 0.810241 0.368282
C78   C     C_R   0.787775 0.220373 0.193807 0.352949
C79   C     C_R   0.792917 0.770159 0.189270 0.370818
C80   C     C_R   0.212228 0.219820 0.806140 0.357925
C81   C     C_R   0.690768 0.287361 0.899273 0.079443
C82   C     C_R   0.304516 0.704223 0.104748 0.087896
C83   C     C_R   0.309755 0.286616 0.100409 0.076915
C84   C     C_R   0.695713 0.703247 0.895185 0.084691
C85   C     C_R   0.190700 0.787279 0.899328 0.079175
C86   C     C_R   0.804577 0.204341 0.104687 0.087374
C87   C     C_R   0.809826 0.786493 0.100318 0.077795
C88   C     C_R   0.195655 0.203367 0.895224 0.084188
C89   C     C_R   0.697712 0.128671 0.516953 0.911326
C90   C     C_R   0.303190 0.871216 0.480962 0.895772
C91   C     C_R   0.302798 0.129170 0.481322 0.926893
C92   C     C_R   0.697648 0.870881 0.517634 0.902904
C93   C     C_R   0.195935 0.628216 0.520312 0.911947
C94   C     C_R   0.803377 0.370665 0.479069 0.899748
C95   C     C_R   0.802472 0.628752 0.482452 0.925010
C96   C     C_R   0.195313 0.370354 0.524361 0.902448
C97   C     C_R   0.075756 0.096006 0.931505 0.945404
C98   C     C_R   0.924742 0.903240 0.068193 0.942210
C99   C     C_R   0.924334 0.096170 0.068461 0.947468
C100  C     C_R   0.075292 0.903281 0.931776 0.944240
C101  C     C_R   0.575764 0.595992 0.931498 0.945437
C102  C     C_R   0.424730 0.403258 0.068208 0.941345
C103  C     C_R   0.424326 0.596155 0.068469 0.946886
C104  C     C_R   0.575314 0.403311 0.931759 0.944352
C105  C     C_R   0.550720 0.999139 0.498924 -0.072494
C106  C     C_R   0.448464 0.000520 0.505241 -0.074058
C107  C     C_R   0.047735 0.494386 0.503762 -0.072827
C108  C     C_R   0.946983 0.495530 0.507253 -0.070576
C109  C     C_R   0.524588 0.065488 0.502370 0.042514
C110  C     C_R   0.474555 0.933713 0.502059 0.035374
C111  C     C_R   0.472708 0.066684 0.508490 0.029953
C112  C     C_R   0.525133 0.933100 0.500043 0.034695
C113  C     C_R   0.023106 0.561429 0.502502 0.033526
C114  C     C_R   0.973034 0.428721 0.504082 0.035892
C115  C     C_R   0.971183 0.561892 0.509999 0.032952
C116  C     C_R   0.022909 0.427841 0.504058 0.035711
C117  C     C_R   0.626531 0.932432 0.498232 -0.001673
C118  C     C_R   0.372913 0.067677 0.504217 0.002070
C119  C     C_R   0.374486 0.934505 0.500785 -0.000746
C120  C     C_R   0.626881 0.065744 0.497739 0.014070
C121  C     C_R   0.121506 0.428410 0.509685 -0.003574
C122  C     C_R   0.872228 0.563728 0.505043 0.006412
C123  C     C_R   0.874354 0.430081 0.498304 -0.003677
C124  C     C_R   0.122490 0.561119 0.504585 0.017192
C125  C     C_R   0.675215 0.934893 0.503371 -0.140646
C126  C     C_R   0.326620 0.065182 0.492268 -0.128787
C127  C     C_R   0.327627 0.936579 0.491196 -0.138622
C128  C     C_R   0.675143 0.063407 0.502858 -0.135129
C129  C     C_R   0.167132 0.433197 0.523120 -0.126494
C130  C     C_R   0.826407 0.563276 0.491866 -0.133128
C131  C     C_R   0.827759 0.434702 0.487150 -0.138465
C132  C     C_R   0.167629 0.561957 0.518324 -0.128860
C133  C     C_R   0.702231 0.999065 0.497051 -0.000201
C134  C     C_R   0.302965 0.000753 0.489367 0.006051
C135  C     C_R   0.187042 0.498736 0.533060 0.009204
C136  C     C_R   0.803084 0.499672 0.484476 0.014075
C137  C     C_R   0.601760 0.999048 0.497196 -0.028653
C138  C     C_R   0.398443 0.001021 0.503815 -0.030117
C139  C     C_R   0.097142 0.494423 0.506286 -0.029917
C140  C     C_R   0.897594 0.496390 0.504336 -0.028123
C141  C     C_R   0.096980 0.362250 0.500205 0.118378
C142  C     C_R   0.895946 0.627587 0.517987 0.141079
C143  C     C_R   0.900860 0.363286 0.503713 0.116252
C144  C     C_R   0.098602 0.624348 0.493274 0.111677
C145  C     C_R   0.599184 0.867227 0.494860 0.117456
C146  C     C_R   0.397468 0.132832 0.514899 0.163480
C147  C     C_R   0.400749 0.869398 0.506486 0.114394
C148  C     C_R   0.599289 0.130980 0.496022 0.133631
H1    H     H_    0.626063 0.348511 0.000425 0.209753
H2    H     H_    0.370659 0.645428 0.002147 0.233777
H3    H     H_    0.375304 0.345445 0.999696 0.199704
H4    H     H_    0.629768 0.644857 0.997567 0.233857
H5    H     H_    0.125887 0.848080 0.000578 0.211347
H6    H     H_    0.870748 0.145606 0.002057 0.233721
H7    H     H_    0.875418 0.844997 0.999393 0.201804
H8    H     H_    0.129687 0.145026 0.997639 0.233913
O1    O     O_R   0.746490 0.236330 0.638080 -0.587008
O2    O     O_R   0.253510 0.763670 0.361920 -0.597568
O3    O     O_R   0.253510 0.236330 0.361920 -0.584432
O4    O     O_R   0.746490 0.763670 0.638080 -0.599316
O5    O     O_R   0.246490 0.736330 0.638080 -0.585734
O6    O     O_R   0.753510 0.263670 0.361920 -0.596265
O7    O     O_R   0.753510 0.736330 0.361920 -0.587018
O8    O     O_R   0.246490 0.263670 0.638080 -0.601421
O9    O     O_R   0.674170 0.186160 0.516270 -0.621760
O10   O     O_R   0.325830 0.813840 0.483730 -0.629846
O11   O     O_R   0.325830 0.186160 0.483730 -0.651717
O12   O     O_R   0.674170 0.813840 0.516270 -0.625611
O13   O     O_R   0.174170 0.686160 0.516270 -0.633393
O14   O     O_R   0.825830 0.313840 0.483730 -0.632643
O15   O     O_R   0.825830 0.686160 0.483730 -0.643818
O16   O     O_R   0.174170 0.313840 0.516270 -0.630202
O17   O     O_R   0.739960 0.127620 0.525000 -0.629605
O18   O     O_R   0.260040 0.872380 0.475000 -0.619626
O19   O     O_R   0.260040 0.127620 0.475000 -0.649507
O20   O     O_R   0.739960 0.872380 0.525000 -0.657688
O21   O     O_R   0.239960 0.627620 0.525000 -0.601247
O22   O     O_R   0.760040 0.372380 0.475000 -0.636671
O23   O     O_R   0.760040 0.627620 0.475000 -0.639791
O24   O     O_R   0.239960 0.372380 0.525000 -0.648992
O25   O     O_R   0.680700 0.294870 0.629350 -0.659115
O26   O     O_R   0.319300 0.705130 0.370650 -0.654945
O27   O     O_R   0.319300 0.294870 0.370650 -0.661714
O28   O     O_R   0.680700 0.705130 0.629350 -0.652377
O29   O     O_R   0.180700 0.794870 0.629350 -0.660739
O30   O     O_R   0.819300 0.205130 0.370650 -0.651592
O31   O     O_R   0.819300 0.794870 0.370650 -0.660569
O32   O     O_R   0.180700 0.205130 0.629350 -0.655591
O33   O     O_R   0.062020 0.072840 0.007170 -0.660227
O34   O     O_R   0.937980 0.927160 0.992830 -0.661875
O35   O     O_R   0.937980 0.072840 0.992830 -0.660323
O36   O     O_R   0.062020 0.927160 0.007170 -0.662168
O37   O     O_R   0.562020 0.572840 0.007170 -0.660313
O38   O     O_R   0.437980 0.427160 0.992830 -0.661481
O39   O     O_R   0.437980 0.572840 0.992830 -0.660236
O40   O     O_R   0.562020 0.427160 0.007170 -0.662355
O41   O     O_R   0.947860 0.073950 0.109290 -0.540281
O42   O     O_R   0.052140 0.926050 0.890710 -0.542164
O43   O     O_R   0.052140 0.073950 0.890710 -0.540605
O44   O     O_R   0.947860 0.926050 0.109290 -0.541127
O45   O     O_R   0.447860 0.573950 0.109290 -0.540581
O46   O     O_R   0.552140 0.426050 0.890710 -0.541849
O47   O     O_R   0.552140 0.573950 0.890710 -0.540331
O48   O     O_R   0.447860 0.426050 0.109290 -0.541487
Zn1   Zn    Zn3+2 0.792340 0.208750 0.507670 0.948672
Zn2   Zn    Zn3+2 0.207660 0.791250 0.492330 0.931239
Zn3   Zn    Zn3+2 0.207660 0.208750 0.492330 0.930679
Zn4   Zn    Zn3+2 0.792340 0.791250 0.507670 0.910050
Zn5   Zn    Zn3+2 0.292340 0.708750 0.507670 0.952091
Zn6   Zn    Zn3+2 0.707660 0.291250 0.492330 0.936389
Zn7   Zn    Zn3+2 0.707660 0.708750 0.492330 0.939129
Zn8   Zn    Zn3+2 0.292340 0.291250 0.507670 0.907496
Zn9   Zn    Zn3+2 0.505960 0.500000 0.080520 0.995318
Zn10  Zn    Zn3+2 0.494040 0.500000 0.919480 0.995652
Zn11  Zn    Zn3+2 0.005960 1.000000 0.080520 0.996380
Zn12  Zn    Zn3+2 0.994040 1.000000 0.919480 0.994177
N1    N     N_3   0.754968 0.003029 0.488180 -0.326687
H9    H     H_    0.741890 0.019669 0.551762 0.168248
H10   H     H_    0.771529 0.968697 0.517855 0.185421
N2    N     N_3   0.258415 0.994737 0.473212 -0.371297
H11   H     H_    0.277786 0.978823 0.407522 0.185849
H12   H     H_    0.228607 0.031745 0.472326 0.219778
N3    N     N_3   0.220822 0.505676 0.570852 -0.410037
H13   H     H_    0.248258 0.470396 0.572703 0.230437
H14   H     H_    0.199716 0.528310 0.632477 0.182092
N4    N     N_3   0.752567 0.498820 0.483765 -0.335062
H15   H     H_    0.757281 0.471370 0.429804 0.166208
H16   H     H_    0.740475 0.531945 0.449214 0.185711
N5    N     N_3   0.116028 0.286924 0.487651 -0.365214
H17   H     H_    0.146371 0.289064 0.424400 0.193248
H18   H     H_    0.101274 0.232858 0.486336 0.142897
N6    N     N_3   0.886244 0.705225 0.509593 -0.382049
H19   H     H_    0.867262 0.756002 0.511691 0.211013
H20   H     H_    0.871878 0.718903 0.575514 0.152809
N7    N     N_3   0.885038 0.286568 0.509114 -0.359830
H21   H     H_    0.854543 0.286164 0.572354 0.194573
H22   H     H_    0.901509 0.231423 0.508436 0.137428
N8    N     N_3   0.111888 0.698136 0.495034 -0.413705
H23   H     H_    0.093932 0.734551 0.548184 0.190293
H24   H     H_    0.131615 0.722618 0.435065 0.213256
N9    N     N_3   0.616464 0.791757 0.485257 -0.369721
H25   H     H_    0.646640 0.789999 0.422209 0.192881
H26   H     H_    0.599342 0.736760 0.491880 0.145146
N10   N     N_3   0.384023 0.209245 0.516823 -0.400969
H27   H     H_    0.368111 0.257584 0.504412 0.216732
H28   H     H_    0.365545 0.227219 0.581811 0.173975
N11   N     N_3   0.382137 0.794853 0.518734 -0.372103
H29   H     H_    0.352167 0.793935 0.582084 0.193227
H30   H     H_    0.400520 0.737997 0.505907 0.149313
N12   N     N_3   0.612250 0.207767 0.495173 -0.395719
H31   H     H_    0.592972 0.240064 0.551251 0.189227
H32   H     H_    0.624336 0.233404 0.436296 0.197654
N13   N     N_3   0.034450 0.292896 0.505316 -0.475801
H33   H     H_    0.021868 0.267456 0.565611 0.196915
H34   H     H_    0.051815 0.264969 0.444945 0.185609
N14   N     N_3   0.960572 0.697556 0.512768 -0.455997
H35   H     H_    0.940191 0.730019 0.567928 0.177621
H36   H     H_    0.971232 0.724056 0.454253 0.214300
N15   N     N_3   0.966413 0.296003 0.491402 -0.472000
H37   H     H_    0.979409 0.273715 0.429181 0.199702
H38   H     H_    0.950384 0.264921 0.549047 0.186734
N16   N     N_3   0.036451 0.698164 0.497088 -0.464243
H39   H     H_    0.058248 0.729882 0.442126 0.183542
H40   H     H_    0.024268 0.724964 0.555981 0.189298
N17   N     N_3   0.533782 0.799327 0.507358 -0.472522
H41   H     H_    0.521958 0.776180 0.568397 0.196788
H42   H     H_    0.550561 0.768684 0.448873 0.187335
N18   N     N_3   0.458069 0.202109 0.522564 -0.468317
H43   H     H_    0.438952 0.227709 0.582009 0.186150
H44   H     H_    0.469816 0.235615 0.468838 0.203413
N19   N     N_3   0.465882 0.799779 0.492464 -0.472464
H45   H     H_    0.477037 0.776699 0.431436 0.194498
H46   H     H_    0.449214 0.768835 0.550489 0.187471
N20   N     N_3   0.532727 0.197776 0.513096 -0.475393
H47   H     H_    0.547574 0.232908 0.460081 0.187823
H48   H     H_    0.519305 0.218219 0.575717 0.190625
N21   N     N_3   0.654007 0.321657 0.089090 -0.489906
H49   H     H_    0.655254 0.378415 0.085718 0.195594
H50   H     H_    0.620974 0.290752 0.111613 0.201968
N22   N     N_3   0.341082 0.672476 0.917993 -0.492660
H51   H     H_    0.366486 0.708296 0.871268 0.186588
H52   H     H_    0.338826 0.623121 0.890527 0.185500
N23   N     N_3   0.345085 0.321357 0.909087 -0.503444
H53   H     H_    0.339487 0.373745 0.934242 0.197839
H54   H     H_    0.377816 0.292346 0.895428 0.198236
N24   N     N_3   0.659684 0.670590 0.081823 -0.493126
H55   H     H_    0.633994 0.706278 0.129077 0.186198
H56   H     H_    0.662374 0.621385 0.108739 0.185462
N25   N     N_3   0.153912 0.821477 0.089177 -0.491375
H57   H     H_    0.155231 0.878167 0.087111 0.196582
H58   H     H_    0.120849 0.790384 0.113708 0.202435
N26   N     N_3   0.841158 0.172610 0.917899 -0.492655
H59   H     H_    0.866510 0.208395 0.871046 0.186498
H60   H     H_    0.838898 0.123177 0.890574 0.185252
N27   N     N_3   0.846907 0.819326 0.907612 -0.505444
H61   H     H_    0.845546 0.875018 0.921521 0.194804
H62   H     H_    0.878333 0.787732 0.896646 0.198110
N28   N     N_3   0.159622 0.170744 0.081864 -0.493125
H63   H     H_    0.133935 0.206417 0.129146 0.186004
H64   H     H_    0.162319 0.121518 0.108736 0.185461
N29   N     N_3   0.786700 0.186037 0.838766 -0.405102
H65   H     H_    0.773245 0.132104 0.848038 0.213973
H66   H     H_    0.825765 0.192783 0.797282 0.179467
N30   N     N_3   0.196453 0.786519 0.174633 -0.433911
H67   H     H_    0.174137 0.746021 0.217685 0.250844
H68   H     H_    0.203006 0.839042 0.189369 0.200422
N31   N     N_3   0.213838 0.185393 0.161026 -0.405410
H69   H     H_    0.226783 0.131031 0.152190 0.211865
H70   H     H_    0.174870 0.193188 0.202646 0.178874
N32   N     N_3   0.802310 0.782706 0.823909 -0.403494
H71   H     H_    0.833504 0.747487 0.791464 0.222287
H72   H     H_    0.811570 0.838076 0.814838 0.197041
N33   N     N_3   0.286844 0.686337 0.838581 -0.405183
H73   H     H_    0.273542 0.632331 0.847508 0.213550
H74   H     H_    0.325905 0.693307 0.797234 0.179892
N34   N     N_3   0.696543 0.286537 0.174590 -0.432453
H75   H     H_    0.674072 0.246078 0.217535 0.251683
H76   H     H_    0.702714 0.339203 0.189413 0.200281
N35   N     N_3   0.713859 0.685318 0.161020 -0.405765
H77   H     H_    0.726792 0.630999 0.152348 0.212002
H78   H     H_    0.674902 0.693230 0.202663 0.179368
N36   N     N_3   0.302261 0.282294 0.823929 -0.402299
H79   H     H_    0.333932 0.248065 0.790706 0.221163
H80   H     H_    0.310122 0.338473 0.814160 0.197290
O49   O     O_3   0.609253 0.361439 0.769159 -0.753228
H81   H     H_    0.614735 0.346676 0.712637 0.377602
O50   O     O_3   0.389572 0.636769 0.231386 -0.752675
H82   H     H_    0.384906 0.652824 0.286950 0.378919
O51   O     O_3   0.390700 0.361721 0.230971 -0.753612
H83   H     H_    0.384806 0.347249 0.287604 0.379170
O52   O     O_3   0.610242 0.637178 0.768814 -0.752112
H84   H     H_    0.615328 0.652954 0.713111 0.380065
O53   O     O_3   0.109256 0.861471 0.769135 -0.753930
H85   H     H_    0.114745 0.846726 0.712602 0.377476
O54   O     O_3   0.889623 0.136872 0.231343 -0.750695
H86   H     H_    0.884940 0.152916 0.286924 0.380022
O55   O     O_3   0.890749 0.861614 0.230921 -0.752175
H87   H     H_    0.884838 0.847164 0.287575 0.379813
O56   O     O_3   0.110227 0.137200 0.768821 -0.753335
H88   H     H_    0.115323 0.152959 0.713105 0.379578
O57   O     O_3   0.749861 0.230910 0.764159 -0.736720
H89   H     H_    0.777767 0.266864 0.736339 0.326143
O58   O     O_3   0.242032 0.751226 0.242798 -0.771060
H90   H     H_    0.249857 0.803548 0.243511 0.332140
O59   O     O_3   0.250761 0.230896 0.235149 -0.737733
H91   H     H_    0.222726 0.266991 0.263061 0.325576
O60   O     O_3   0.757567 0.751031 0.756705 -0.743494
H92   H     H_    0.749702 0.803903 0.760161 0.338129
O61   O     O_3   0.249951 0.731225 0.764078 -0.736673
H93   H     H_    0.277732 0.767392 0.736664 0.325620
O62   O     O_3   0.742107 0.251423 0.242724 -0.767230
H94   H     H_    0.749966 0.303743 0.243325 0.331215
O63   O     O_3   0.750802 0.730848 0.235113 -0.737867
H95   H     H_    0.722781 0.766977 0.262853 0.325901
O64   O     O_3   0.257521 0.251211 0.756847 -0.744990
H96   H     H_    0.249566 0.304039 0.760139 0.336088

loop_
_geom_bond_atom_site_label_1
_geom_bond_atom_site_label_2
_ccdc_geom_bond_type
N36   H80   S    
C40   N23   S    
N3    H13   S    
O19   Zn3   S    
C78   O62   S    
C98   O34   A    
O42   Zn12  S    
C79   C87   A    
O55   H87   S    
N29   H65   S    
C73   O57   S    
C13   C112  A    
C80   O64   S    
C41   H1    S    
N12   H32   S    
N19   H45   S    
O44   Zn11  S    
N10   H27   S    
C30   C38   A    
N20   H47   S    
C94   O22   A    
O60   H92   S    
C107  C113  A    
N32   H71   S    
C89   O17   A    
C60   O52   S    
C50   C103  S    
C102  O38   A    
C77   O61   S    
C16   C109  A    
N32   H72   S    
C52   C101  S    
O1    Zn1   S    
O14   Zn1   S    
C57   C65   A    
C1    O25   A    
C20   C28   A    
C27   C35   A    
O53   H85   S    
C21   C29   A    
C92   O20   A    
N34   H75   S    
C23   C31   A    
C24   C32   A    
N5    H17   S    
O35   Zn12  S    
C92   O12   A    
C142  N6    S    
O64   H96   S    
N6    H20   S    
C144  N8    S    
C12   N16   S    
C96   O24   A    
O37   Zn9   S    
C105  C112  A    
C63   C71   A    
C120  C148  A    
C8    O8    A    
N28   H63   S    
N13   H34   S    
C6    O30   A    
C9    C141  A    
C26   C34   A    
C9    C116  A    
C9    N13   S    
N15   H38   S    
O3    Zn3   S    
C135  N3    S    
C90   O18   A    
C17   C25   A    
O20   Zn4   S    
N26   H60   S    
N1    H9    S    
C80   C88   A    
C94   O14   A    
N24   H56   S    
O8    Zn8   S    
C61   O53   S    
C123  C140  A    
C55   C98   S    
C18   C82   S    
C133  N1    S    
C11   C143  A    
C37   N22   S    
O54   H86   S    
C126  C134  A    
C23   C36   A    
C146  N10   S    
O18   Zn2   S    
N9    H26   S    
C118  C138  A    
C119  C147  A    
C96   C129  S    
C113  C115  A    
C100  O42   A    
C99   O35   A    
N35   H78   S    
O32   Zn3   S    
O61   H93   S    
C43   C83   A    
C124  C139  A    
C69   C77   A    
O62   H94   S    
C127  C134  A    
C13   C145  A    
C43   C51   A    
C92   C125  S    
C49   C104  S    
C71   C79   A    
N27   H62   S    
C51   C102  S    
C62   C70   A    
C44   H4    S    
C108  C115  A    
C7    O31   A    
C29   N33   S    
C109  C111  A    
N13   H33   S    
O9    Zn6   S    
N33   H74   S    
C66   C74   A    
C49   C57   A    
O22   Zn6   S    
C32   N36   S    
N9    H25   S    
O24   Zn8   S    
O39   Zn10  S    
C52   C60   A    
C59   C67   A    
C129  C135  A    
C53   C61   A    
N14   H36   S    
C95   C130  S    
C1    C65   S    
C56   C64   A    
C93   C132  S    
C44   C52   A    
N30   H68   S    
C77   C85   A    
N21   H49   S    
C3    O3    A    
O12   Zn7   S    
C100  O36   A    
C56   C97   S    
C19   C83   S    
N2    H11   S    
C106  C111  A    
C91   O19   A    
N22   H51   S    
C16   N20   S    
C131  C136  A    
C101  O47   A    
C4    C68   S    
C93   O21   A    
O27   Zn8   S    
O25   Zn6   S    
C47   C87   A    
O4    Zn4   S    
C38   N21   S    
N7    H21   S    
N25   H57   S    
N17   H42   S    
C60   C68   A    
C42   C50   A    
C63   O55   S    
C20   C84   S    
C54   C99   S    
C67   C75   A    
N19   H46   S    
C33   N26   S    
O28   Zn7   S    
C35   N28   S    
C105  C109  A    
C22   C30   A    
C119  C138  A    
O29   Zn2   S    
O16   Zn3   S    
C2    C66   S    
C30   N34   S    
C114  C116  A    
N3    H14   S    
N16   H39   S    
C68   C76   A    
C59   O51   S    
C121  C139  A    
C122  C140  A    
C72   C80   A    
O34   Zn12  S    
C134  N2    S    
N10   H28   S    
N20   H48   S    
C17   C38   A    
C107  C139  A    
C110  C112  A    
C107  C116  A    
C19   C40   A    
C105  C137  A    
C62   O54   S    
N4    H15   S    
N23   H53   S    
C28   N32   S    
C5    O5    A    
C3    O27   A    
C25   C33   A    
C119  C127  A    
C97   O43   A    
C18   C26   A    
C5    O29   A    
C76   C84   A    
O63   H95   S    
C64   O56   S    
C8    O32   A    
C93   O13   A    
N28   H64   S    
C10   N14   S    
O11   Zn8   S    
N23   H54   S    
C141  N5    S    
C117  C145  A    
C10   C142  A    
C108  C114  A    
C102  O48   A    
C5    C69   S    
O33   Zn11  S    
C90   C127  S    
C48   C88   A    
O36   Zn11  S    
C34   N25   S    
N29   H66   S    
N36   H79   S    
C48   H8    S    
C90   O10   A    
C15   C110  A    
C103  O39   A    
C74   C82   A    
C101  O37   A    
N8    H24   S    
N11   H30   S    
C53   C100  S    
C46   H6    S    
C21   C85   S    
C8    C72   S    
N31   H69   S    
O2    Zn2   S    
C121  C141  A    
N27   H61   S    
C20   C39   A    
C21   C34   A    
C54   C62   A    
C57   O49   S    
N12   H31   S    
O5    Zn5   S    
C50   C58   A    
O52   H84   S    
O56   H88   S    
C2    O2    A    
C41   C81   A    
C46   C54   A    
C104  O40   A    
C24   C88   S    
O45   Zn9   S    
C73   C81   A    
C45   H5    S    
O13   Zn2   S    
C43   H3    S    
C58   C66   A    
C91   O11   A    
C6    C70   S    
N8    H23   S    
C123  C131  A    
C121  C129  A    
C44   C84   A    
C13   N17   S    
O38   Zn10  S    
C120  C128  A    
C41   C49   A    
O6    Zn6   S    
C94   C131  S    
C98   O44   A    
O50   H82   S    
N5    H18   S    
C15   C147  A    
C75   C83   A    
N33   H73   S    
C7    O7    A    
N6    H19   S    
C27   N31   S    
C17   C81   S    
C22   C86   S    
O49   H81   S    
N35   H77   S    
N18   H43   S    
C28   C36   A    
C29   C37   A    
O17   Zn1   S    
C120  C137  A    
C95   O15   A    
C11   N15   S    
C89   C128  S    
O58   H90   S    
C91   C126  S    
O23   Zn7   S    
C70   C78   A    
O51   H83   S    
O47   Zn10  S    
C42   C82   A    
N2    H12   S    
O57   H89   S    
C124  C132  A    
C47   H7    S    
N26   H59   S    
C18   C37   A    
N22   H52   S    
O10   Zn5   S    
C7    C71   S    
N24   H55   S    
C106  C138  A    
C143  N7    S    
C25   N29   S    
C65   C73   A    
C3    C67   S    
C2    O26   A    
O21   Zn5   S    
C11   C114  A    
C79   O63   S    
C36   N27   S    
C6    O6    A    
O31   Zn4   S    
C19   C27   A    
N17   H41   S    
O41   Zn11  S    
C78   C86   A    
C64   C72   A    
C147  N11   S    
C23   C87   S    
N7    H22   S    
C15   N19   S    
C14   N18   S    
C39   N24   S    
C14   C111  A    
C24   C35   A    
C75   O59   S    
C76   O60   S    
O43   Zn12  S    
C118  C146  A    
C108  C140  A    
O7    Zn7   S    
N16   H40   S    
C117  C137  A    
O48   Zn9   S    
O26   Zn5   S    
O46   Zn10  S    
C12   C144  A    
C55   C63   A    
N31   H70   S    
C104  O46   A    
C45   C85   A    
C125  C133  A    
N14   H35   S    
C99   O41   A    
C145  N9    S    
C4    O28   A    
C89   O9    A    
C95   O23   A    
N30   H67   S    
N4    H16   S    
N21   H50   S    
N34   H76   S    
C58   O50   S    
C51   C59   A    
C122  C142  A    
N15   H37   S    
C47   C55   A    
C12   C113  A    
C106  C110  A    
C61   C69   A    
C48   C56   A    
C22   C33   A    
C136  N4    S    
O30   Zn1   S    
C130  C136  A    
N18   H44   S    
N11   H29   S    
C74   O58   S    
N1    H10   S    
C14   C146  A    
C148  N12   S    
C26   N30   S    
C16   C148  A    
C1    O1    A    
O59   H91   S    
C103  O45   A    
C128  C133  A    
O40   Zn9   S    
C4    O4    A    
C117  C125  A    
C132  C135  A    
C97   O33   A    
N25   H58   S    
C31   C39   A    
C32   C40   A    
C42   H2    S    
C45   C53   A    
C31   N35   S    
C96   O16   A    
C123  C143  A    
C124  C144  A    
C118  C126  A    
O15   Zn4   S    
C122  C130  A    
C10   C115  A    
C46   C86   A    
