data_mof_unit_27084.cif
_audit_creation_date              2012-12-10T17:33:54-0500
_audit_creation_method            fapswitch 2.2
_symmetry_space_group_name_H-M    P1
_symmetry_Int_Tables_number       1
_space_group_crystal_system       triclinic
_cell_length_a                    10.852987
_cell_length_b                    12.132887
_cell_length_c                    12.841017
_cell_angle_alpha                 95.504361
_cell_angle_beta                  91.842098
_cell_angle_gamma                 87.982186
_cell_volume                      1681.33632409

loop_
_atom_site_label
_atom_site_type_symbol
_atom_type_description
_atom_site_fract_x
_atom_site_fract_y
_atom_site_fract_z
_atom_type_partial_charge
C1    C     C_R   0.488875 0.523058 0.700389 0.901649
C2    C     C_3   0.120729 0.505197 0.494996 -0.281478
C3    C     C_3   0.071891 0.415597 0.406183 -0.348243
C4    C     C_3   0.067971 0.626924 0.466414 0.078017
C5    C     C_R   0.516259 0.458793 0.188039 -0.072567
C6    C     C_R   0.477607 0.538359 0.814204 -0.147766
C7    C     C_R   0.553503 0.637200 0.975321 0.094032
C8    C     C_R   0.515094 0.637804 0.870811 -0.096540
C9    C     C_R   0.447071 0.446786 0.867775 -0.100185
C10   C     C_R   0.484630 0.446149 0.972927 0.124561
C11   C     C_R   0.533323 0.543068 0.027206 0.098996
C12   C     C_R   0.741343 0.501104 0.495551 0.924196
C13   C     C_R   0.548614 0.547618 0.134967 -0.162686
C14   C     C_R   0.489168 0.357312 0.133524 -0.155615
C15   C     C_R   0.475049 0.350463 0.025873 -0.077357
C16   C     C_R   0.427231 0.938296 0.371878 0.149536
C17   C     C_R   0.423945 0.827281 0.392268 -0.010171
C18   C     C_R   0.531146 0.865839 0.554346 0.102573
C19   C     C_R   0.514623 0.981906 0.547302 0.018374
C20   C     C_R   0.468225 0.019610 0.452556 -0.076682
C21   C     C_R   0.462014 0.136607 0.446238 0.243878
C22   C     C_R   0.575042 0.167827 0.607256 0.173366
C23   C     C_R   0.505693 0.476370 0.299863 0.883608
C24   C     C_R   0.548968 0.061197 0.630235 -0.084690
C25   C     C_R   0.258054 0.499889 0.498478 0.820950
C26   C     C_3   0.929613 0.483407 0.604189 -0.004649
C27   C     C_3   0.073760 0.476048 0.606660 0.075863
C28   C     C_3   0.929315 0.403746 0.413571 0.260115
C29   C     C_3   0.921509 0.622624 0.459794 -0.007068
C30   C     C_3   0.877359 0.504703 0.492407 -0.233787
H1    H     H_    0.896706 0.401164 0.617667 0.187589
H2    H     H_    0.576177 0.623108 0.179592 0.196682
H3    H     H_    0.473160 0.285123 0.173778 0.200418
H4    H     H_    0.453240 0.270914 0.985336 0.189626
H5    H     H_    0.388993 0.766452 0.332599 0.168944
H6    H     H_    0.114715 0.335521 0.422931 0.167469
N1    N     N_R   0.523380 0.207800 0.519350 -0.139021
N2    N     N_R   0.476620 0.792180 0.480650 -0.172877
O1    O     O_R   0.506240 0.421700 0.658830 -0.634231
O2    O     O_R   0.491240 0.609310 0.646410 -0.611295
O3    O     O_R   0.692710 0.406190 0.506230 -0.572424
O4    O     O_R   0.677700 0.593810 0.493810 -0.660025
O5    O     O_R   0.508760 0.390690 0.353590 -0.592398
O6    O     O_R   0.493760 0.578300 0.341170 -0.645640
O7    O     O_R   0.322300 0.406190 0.506190 -0.640491
O8    O     O_R   0.307290 0.593810 0.493770 -0.607395
Zn1   Zn    Zn3+2 0.510020 0.374730 0.508290 1.005580
Zn2   Zn    Zn3+2 0.489980 0.625270 0.491710 0.980573
C31   C     C_2   0.120545 0.661820 0.365159 0.541702
H7    H     H_    0.197476 0.617144 0.327457 0.052717
O9    O     O_2   0.088171 0.749258 0.330918 -0.508159
I1    I     I_    0.822936 0.365154 0.267934 -0.124379
C32   C     C_2   0.120545 0.427288 0.297902 0.472255
H8    H     H_    0.216821 0.407519 0.283213 0.071289
O10   O     O_2   0.058431 0.465406 0.228289 -0.480375
I2    I     I_    0.647184 0.777778 0.051128 -0.192856
C33   C     C_2   0.499259 0.745489 0.826746 0.517909
H9    H     H_    0.569798 0.806728 0.838781 0.115464
O11   O     O_2   0.403085 0.768724 0.780649 -0.463177
C34   C     C_2   0.359856 0.361757 0.819134 0.442205
H10   H     H_    0.355138 0.337216 0.736173 0.100448
O12   O     O_2   0.283997 0.322446 0.871975 -0.475081
I3    I     I_    0.327142 0.203669 0.346864 -0.288609
I4    I     I_    0.832560 0.551728 0.744219 -0.122098
I5    I     I_    0.701045 0.258009 0.710405 -0.208001
I6    I     I_    0.398068 0.956159 0.209064 -0.176034
C35   C     C_2   0.531742 0.042640 0.741404 0.501409
H11   H     H_    0.589738 0.081543 0.803608 0.101461
O13   O     O_2   0.447131 0.987316 0.764993 -0.502803
C36   C     C_2   0.625088 0.823007 0.628078 0.403175
H12   H     H_    0.635517 0.736471 0.636428 0.144326
O14   O     O_2   0.700879 0.882868 0.674757 -0.542545
I7    I     I_    0.154741 0.574411 0.741015 -0.054660
C37   C     C_2   0.114541 0.359326 0.632523 0.369020
H13   H     H_    0.173194 0.305093 0.582602 0.112987
O15   O     O_2   0.080034 0.323313 0.712008 -0.448554
I8    I     I_    0.904383 0.236046 0.460545 -0.204692
I9    I     I_    0.837100 0.653333 0.305468 -0.179852
C38   C     C_2   0.868335 0.722249 0.526491 0.527455
H14   H     H_    0.819267 0.788924 0.490476 0.097662
O16   O     O_2   0.884686 0.733755 0.620951 -0.487919
I10   I     I_    0.141222 0.774137 0.567511 -0.023005

loop_
_geom_bond_atom_site_label_1
_geom_bond_atom_site_label_2
_ccdc_geom_bond_type
C18   C36   S    
C11   C13   A    
C13   H2    S    
C19   C20   A    
C6    C9    A    
C7    C8    A    
C32   H8    S    
C7    C11   A    
C26   C27   S    
C12   O3    A    
C37   O15   D    
C3    C28   S    
C10   C15   A    
C33   O11   D    
C23   O5    A    
C34   O12   D    
C18   C19   A    
C26   I4    S    
C12   O4    A    
C24   C35   S    
C29   I9    S    
C16   C17   A    
C31   O9    D    
C5    C23   S    
C2    C27   S    
N1    Zn1   S    
C27   C37   S    
C9    C10   A    
C15   H4    S    
C5    C13   A    
C4    C29   S    
C1    O2    A    
C32   O10   D    
C26   H1    S    
C3    C32   S    
C7    I2    S    
C14   H3    S    
O7    Zn1   S    
O8    Zn2   S    
C37   H13   S    
C35   H11   S    
C38   O16   D    
C6    C8    A    
C22   N1    A    
C23   O6    A    
C1    C6    S    
C34   H10   S    
C35   O13   D    
C2    C4    S    
C22   I5    S    
C29   C30   S    
C8    C33   S    
C29   C38   S    
C16   C20   A    
O3    Zn1   S    
C4    I10   S    
O4    Zn2   S    
C28   I8    S    
C5    C14   A    
C36   H12   S    
C26   C30   S    
C22   C24   A    
C16   I6    S    
C25   O7    A    
O1    Zn1   S    
O2    Zn2   S    
C12   C30   S    
N2    Zn2   S    
C4    C31   S    
C9    C34   S    
C28   C30   S    
C19   C24   A    
C18   N2    A    
C28   I1    S    
C33   H9    S    
C3    H6    S    
C2    C3    S    
C2    C25   S    
C17   N2    A    
C21   I3    S    
C10   C11   A    
C1    O1    A    
C38   H14   S    
C21   N1    A    
C20   C21   A    
C31   H7    S    
C14   C15   A    
C36   O14   D    
C17   H5    S    
C27   I7    S    
O5    Zn1   S    
C25   O8    A    
O6    Zn2   S    
