data_mof_unit_41898.cif
_audit_creation_date              2012-12-11T15:21:40-0500
_audit_creation_method            fapswitch 2.2
_symmetry_space_group_name_H-M    P1
_symmetry_Int_Tables_number       1
_space_group_crystal_system       triclinic
_cell_length_a                    19.140877
_cell_length_b                    7.150306
_cell_length_c                    17.683835
_cell_angle_alpha                 89.997123
_cell_angle_beta                  109.005437
_cell_angle_gamma                 90.000246
_cell_volume                      2288.33069845

loop_
_atom_site_label
_atom_site_type_symbol
_atom_type_description
_atom_site_fract_x
_atom_site_fract_y
_atom_site_fract_z
_atom_type_partial_charge
O1    O     O_R   0.562310 0.505770 0.439670 -0.536694
O2    O     O_R   0.437690 0.005770 0.560330 -0.536688
O3    O     O_R   0.411650 0.169150 0.405330 -0.536651
O4    O     O_R   0.588350 0.669150 0.594670 -0.536656
C1    C     C_R   0.384595 0.345905 0.382710 0.624861
C2    C     C_R   0.615407 0.845900 0.617289 0.624844
O5    O     O_R   0.560140 0.175610 0.430010 -0.539579
O6    O     O_R   0.439860 0.675610 0.569990 -0.539578
O7    O     O_R   0.587240 0.012100 0.585200 -0.539552
O8    O     O_R   0.412760 0.512100 0.414800 -0.539548
C3    C     C_R   0.580920 0.344616 0.414739 0.699774
C4    C     C_R   0.419087 0.844610 0.585269 0.699774
O9    O     O_3   0.508720 0.341420 0.550890 -0.371279
O10   O     O_3   0.491280 0.841420 0.449110 -0.371274
V1    V     V_3+5 0.498380 0.063930 0.490560 1.378510
V2    V     V_3+5 0.501620 0.563930 0.509440 1.378510
C5    C     C_R   0.177322 0.066023 0.863268 -0.224851
C6    C     C_R   0.822663 0.566005 0.136710 -0.224848
C7    C     C_R   0.130020 0.916216 0.864788 -0.081576
C8    C     C_R   0.869964 0.416189 0.135192 -0.081570
C9    C     C_R   0.130939 0.754506 0.819593 -0.222722
C10   C     C_R   0.869040 0.254457 0.180384 -0.222724
C11   C     C_R   0.177955 0.742118 0.773144 0.089226
C12   C     C_R   0.822029 0.242084 0.226839 0.089231
C13   C     C_R   0.225877 0.891879 0.772865 0.054249
C14   C     C_R   0.774116 0.391859 0.227127 0.054243
C15   C     C_R   0.225743 0.054053 0.818356 0.090714
C16   C     C_R   0.774244 0.554026 0.181625 0.090712
C17   C     C_R   0.177963 0.582441 0.726952 -0.194693
C18   C     C_R   0.822021 0.082420 0.273033 -0.194669
C19   C     C_R   0.225567 0.570196 0.681520 -0.188232
C20   C     C_R   0.774426 0.070216 0.318478 -0.188260
C21   C     C_R   0.274236 0.717110 0.681621 0.090654
C22   C     C_R   0.725763 0.217134 0.318382 0.090639
C23   C     C_R   0.274101 0.879306 0.727110 0.054275
C24   C     C_R   0.725902 0.379305 0.272894 0.054320
C25   C     C_R   0.322016 0.029096 0.726821 0.089231
C26   C     C_R   0.677991 0.529075 0.273185 0.089224
C27   C     C_R   0.322003 0.188771 0.773006 -0.194729
C28   C     C_R   0.677985 0.688720 0.226973 -0.194714
C29   C     C_R   0.274407 0.200968 0.818451 -0.188051
C30   C     C_R   0.725572 0.700929 0.181518 -0.188041
C31   C     C_R   0.322656 0.705120 0.636708 -0.224644
C32   C     C_R   0.677340 0.205158 0.363292 -0.224676
C33   C     C_R   0.369954 0.854962 0.635179 -0.081418
C34   C     C_R   0.630061 0.354987 0.364840 -0.081440
C35   C     C_R   0.369028 0.016729 0.680365 -0.222769
C36   C     C_R   0.630994 0.516712 0.319657 -0.222807
H1    H     H_    0.177536 0.190561 0.898316 0.123627
H2    H     H_    0.822446 0.690552 0.101656 0.123615
H3    H     H_    0.094489 0.638673 0.819937 0.129043
H4    H     H_    0.905486 0.138613 0.180038 0.129049
H5    H     H_    0.141368 0.466358 0.726260 0.132943
H6    H     H_    0.858604 0.966315 0.273713 0.132940
H7    H     H_    0.224545 0.445169 0.646549 0.134386
H8    H     H_    0.775452 0.945215 0.353457 0.134394
H9    H     H_    0.405475 0.132604 0.680016 0.129072
H10   H     H_    0.594559 0.632556 0.320016 0.129107
H11   H     H_    0.358587 0.304874 0.773686 0.132980
H12   H     H_    0.641395 0.804814 0.226285 0.132974
H13   H     H_    0.275427 0.325977 0.853421 0.134430
H14   H     H_    0.724536 0.825928 0.146527 0.134408
C37   C     C_3   0.751947 0.812796 0.837971 -0.311513
C38   C     C_3   0.248042 0.312683 0.162039 -0.311538
H15   H     H_    0.772155 0.673570 0.864162 0.139765
H16   H     H_    0.227818 0.173457 0.135875 0.139782
H17   H     H_    0.740110 0.896233 0.885515 0.121713
H18   H     H_    0.259886 0.396050 0.114479 0.121715
C39   C     C_3   0.679312 0.785653 0.766356 -0.327643
C40   C     C_3   0.320676 0.285546 0.233658 -0.327582
H19   H     H_    0.632845 0.856146 0.779724 0.124704
H20   H     H_    0.367144 0.355992 0.220269 0.124690
H21   H     H_    0.665705 0.634073 0.758453 0.140241
H22   H     H_    0.334278 0.133962 0.241595 0.140260
H23   H     H_    0.847950 0.653266 0.767081 0.144667
H24   H     H_    0.152061 0.153314 0.232970 0.144666
H25   H     H_    0.740542 0.613912 0.662631 0.139408
H26   H     H_    0.259434 0.114083 0.337477 0.139403
C41   C     C_3   0.825649 0.793026 0.743544 -0.313518
C42   C     C_3   0.174350 0.293099 0.256476 -0.313525
C43   C     C_3   0.781647 0.104122 0.775565 -0.335824
C44   C     C_3   0.218379 0.604124 0.224390 -0.335801
C45   C     C_3   0.812632 0.912485 0.811461 0.119043
C46   C     C_3   0.187372 0.412476 0.188534 0.119052
H27   H     H_    0.823058 0.178801 0.754741 0.138067
H28   H     H_    0.176982 0.678863 0.245213 0.138092
H29   H     H_    0.770560 0.192909 0.822107 0.136743
H30   H     H_    0.229461 0.692852 0.177824 0.136731
C47   C     C_3   0.687333 0.866789 0.688357 0.115265
C48   C     C_3   0.312671 0.366798 0.311641 0.115266
C49   C     C_3   0.752777 0.765903 0.672234 -0.326114
C50   C     C_3   0.247216 0.266048 0.327797 -0.326184
C51   C     C_3   0.709437 0.078167 0.704597 -0.284533
C52   C     C_3   0.290595 0.578179 0.295348 -0.284619
H31   H     H_    0.664376 0.156339 0.717686 0.142204
H32   H     H_    0.335657 0.656252 0.282227 0.142188
H33   H     H_    0.716855 0.142173 0.650306 0.136590
H34   H     H_    0.283199 0.642290 0.349621 0.136637
H35   H     H_    0.867707 0.862019 0.721921 0.122292
H36   H     H_    0.132282 0.362116 0.278076 0.122282
H37   H     H_    0.760095 0.821867 0.616574 0.123957
H38   H     H_    0.239898 0.322180 0.383419 0.123996
O11   O     O_R   0.087220 0.271820 0.085230 -0.541551
O12   O     O_R   0.912780 0.771820 0.914770 -0.541555
O13   O     O_R   0.939860 0.595540 0.069990 -0.540202
O14   O     O_R   0.060140 0.095540 0.930010 -0.540206
C53   C     C_R   0.919109 0.426551 0.085300 0.699770
C54   C     C_R   0.080884 0.926557 0.914691 0.699764
O15   O     O_R   0.088340 0.601930 0.094680 -0.538865
O16   O     O_R   0.911660 0.101930 0.905320 -0.538869
O17   O     O_R   0.062310 0.765410 0.939660 -0.536744
O18   O     O_R   0.937690 0.265410 0.060340 -0.536747
C55   C     C_R   0.115889 0.431860 0.117831 0.644867
C56   C     C_R   0.884112 0.931865 0.882167 0.644854
O19   O     O_3   0.991270 0.429630 0.949130 -0.372778
O20   O     O_3   0.008730 0.929630 0.050870 -0.372772
V3    V     V_3+5 0.001620 0.707150 0.009440 1.376081
V4    V     V_3+5 0.998380 0.207150 0.990560 1.376082
H39   H     H_    0.322439 0.580543 0.601659 0.123392
H40   H     H_    0.677534 0.080591 0.398315 0.123429

loop_
_geom_bond_atom_site_label_1
_geom_bond_atom_site_label_2
_ccdc_geom_bond_type
O18   V4    S    
C37   H15   S    
O4    V2    S    
C46   C55   S    
C28   H12   S    
C53   O18   A    
O1    C3    A    
C29   H13   S    
C42   C46   S    
O2    C4    A    
O16   V4    S    
C2    O7    A    
O15   V3    S    
C27   C29   A    
O5    C3    A    
C18   H6    S    
C17   H5    S    
C44   C52   S    
C11   C17   A    
C41   H35   S    
C23   C25   A    
C12   C14   A    
C38   H18   S    
C52   H34   S    
C43   C51   S    
O20   V3    S    
C6    C8    A    
O6    V2    S    
C39   H19   S    
C38   C46   S    
C5    C7    A    
C37   C39   S    
C41   C45   S    
C40   H22   S    
C19   C21   A    
C39   H21   S    
C38   C40   S    
C25   C35   A    
C30   H14   S    
C41   C49   S    
C1    C48   S    
C50   H38   S    
C8    C53   S    
C7    C54   S    
C28   C30   A    
C51   H31   S    
C26   C28   A    
C42   H36   S    
C45   C56   S    
O13   V3    S    
C40   C48   S    
C49   H37   S    
C39   C47   S    
C43   C45   S    
C32   C34   A    
C43   H27   S    
C48   C52   S    
C34   C36   A    
C33   C35   A    
C37   H17   S    
C5    C15   A    
C6    C16   A    
O4    C2    A    
C5    H1    S    
O5    V1    S    
H26   C50   S    
C44   H28   S    
C37   C45   S    
C38   H16   S    
C42   C50   S    
C35   H9    S    
O13   C53   A    
C15   C29   A    
C48   C50   S    
O6    C4    A    
O19   V4    S    
C27   H11   S    
C22   C32   A    
O1    V2    S    
C52   H32   S    
O2    V1    S    
C31   C33   A    
C43   H29   S    
C13   C23   A    
O12   C56   A    
C14   C24   A    
C8    C10   A    
C44   C46   S    
C9    C11   A    
C10   C12   A    
O11   V4    S    
C47   C49   S    
C51   H33   S    
C9    H3    S    
O3    V1    S    
C6    H2    S    
C10   H4    S    
O12   V3    S    
O16   C56   A    
H25   C49   S    
O11   C55   A    
C26   C36   A    
H24   C42   S    
C4    C33   S    
O3    C1    A    
C36   H10   S    
O15   C55   A    
C13   C15   A    
C2    C47   S    
C14   C16   A    
C54   O17   A    
O17   V3    S    
C24   C26   A    
O7    V1    S    
C1    O8    A    
C25   C27   A    
O8    V2    S    
C18   C20   A    
O14   C54   A    
C44   H30   S    
C16   C30   A    
C21   C23   A    
C22   C24   A    
C11   C13   A    
C47   C51   S    
C12   C18   A    
C17   C19   A    
O9    V2    S    
C31   H39   S    
C32   H40   S    
O10   V1    S    
C3    C34   S    
C40   H20   S    
C19   H7    S    
C21   C31   A    
H23   C41   S    
C20   H8    S    
O14   V4    S    
C20   C22   A    
C7    C9    A    
