data_mof_unit_15798.cif
_audit_creation_date              2012-10-26T19:28:25-0400
_audit_creation_method            fapswitch 2.2
_symmetry_space_group_name_H-M    P1
_symmetry_Int_Tables_number       1
_space_group_crystal_system       triclinic
_cell_length_a                    14.683411
_cell_length_b                    14.684197
_cell_length_c                    14.359236
_cell_angle_alpha                 76.467608
_cell_angle_beta                  102.309495
_cell_angle_gamma                 114.716949
_cell_volume                      2710.90579703

loop_
_atom_site_label
_atom_site_type_symbol
_atom_type_description
_atom_site_fract_x
_atom_site_fract_y
_atom_site_fract_z
_atom_type_partial_charge
C1    C     C_R   0.880483 0.311460 0.511821 0.582955
C2    C     C_R   0.489134 0.133460 0.451952 -0.166949
C3    C     C_R   0.600925 0.942102 0.663146 0.022311
C4    C     C_R   0.384594 0.108328 0.433001 0.008972
C5    C     C_R   0.692690 0.630412 0.315455 0.260230
C6    C     C_R   0.282015 0.327642 0.662874 0.255886
C7    C     C_R   0.785164 0.619677 0.353444 0.089803
C8    C     C_R   0.206465 0.367686 0.639513 0.083444
C9    C     C_R   0.719408 0.523962 0.498514 0.421956
C10   C     C_R   0.282786 0.479839 0.503656 0.432636
C11   C     C_R   0.617964 0.512746 0.454998 -0.066364
C12   C     C_R   0.120107 0.688743 0.491110 0.534885
C13   C     C_R   0.360399 0.438717 0.522847 -0.055483
C14   C     C_R   0.606367 0.568458 0.361181 0.050195
C15   C     C_R   0.360094 0.363833 0.605286 0.060717
C16   C     C_R   0.000040 0.499733 0.668982 0.536184
C17   C     C_R   0.999951 0.500235 0.331027 0.566038
C18   C     C_R   0.528612 0.451748 0.501219 -0.046614
C19   C     C_R   0.437732 0.468534 0.462671 -0.049379
C20   C     C_R   0.423703 0.504700 0.362603 -0.033342
C21   C     C_R   0.521364 0.368101 0.577728 -0.019227
C22   C     C_R   0.509050 0.561496 0.314009 0.242145
C23   C     C_R   0.637189 0.087161 0.530404 -0.046238
C24   C     C_R   0.434755 0.321851 0.626053 0.248445
C25   C     C_1   0.000303 0.499596 0.771402 0.022933
C26   C     C_1   0.999679 0.500229 0.228642 0.046200
C27   C     C_1   0.000297 0.499608 0.856793 0.016032
C28   C     C_1   0.999737 0.500112 0.143290 0.024393
C29   C     C_1   0.000138 0.499744 0.957396 0.047822
C30   C     C_1   0.999949 0.499911 0.042718 0.048407
C31   C     C_R   0.813641 0.201377 0.521974 -0.040324
C32   C     C_R   0.187615 0.798972 0.495451 -0.066074
C33   C     C_R   0.772992 0.032665 0.618401 0.294942
C34   C     C_R   0.358051 0.934732 0.512330 -0.057567
C35   C     C_R   0.212345 0.980024 0.461091 0.299441
C36   C     C_R   0.846321 0.125710 0.580597 -0.026943
C37   C     C_R   0.146897 0.875619 0.475553 -0.018430
C38   C     C_R   0.711467 0.171292 0.480094 0.014293
C39   C     C_R   0.294540 0.829803 0.519628 -0.023021
C40   C     C_2   0.629774 0.888543 0.758663 0.324699
C41   C     C_2   0.351345 0.187719 0.370489 0.330745
C42   C     C_2   0.321472 0.467603 0.304736 0.294225
C43   C     C_2   0.596606 0.319780 0.604723 0.240833
C44   C     C_2   0.343806 0.755618 0.540851 0.268678
C45   C     C_R   0.671194 0.021637 0.606281 0.059685
C46   C     C_2   0.688729 0.209707 0.375512 0.256694
C47   C     C_2   0.036601 0.848761 0.469449 0.213826
C48   C     C_2   0.954869 0.141197 0.600234 0.201576
C49   C     C_2   0.134951 0.336043 0.710596 0.309653
C50   C     C_2   0.869410 0.672095 0.294370 0.296493
C51   C     C_R   0.317339 0.007927 0.465644 0.067535
C52   C     C_R   0.530655 0.063929 0.507886 0.016355
C53   C     C_R   0.462668 0.968892 0.548407 0.003235
C54   C     C_R   0.498351 0.915530 0.632048 -0.164604
Cu1   Cu    Cu3+1 0.081740 0.475690 0.523180 1.063124
Cu2   Cu    Cu3+1 0.918260 0.524310 0.476820 1.072741
H1    H     H_    0.445361 0.855932 0.677229 0.155663
H2    H     H_    0.004088 0.183280 0.544931 0.138670
H3    H     H_    0.852706 0.951454 0.632392 0.353748
H4    H     H_    0.119837 0.031244 0.489163 0.349508
H5    H     H_    0.446758 0.634796 0.209276 0.312685
H6    H     H_    0.439981 0.188273 0.668264 0.314658
H7    H     H_    0.358393 0.608064 0.429713 0.287157
H8    H     H_    0.696406 0.516272 0.628183 0.305704
H9    H     H_    0.054329 0.304839 0.690022 0.152459
H10   H     H_    0.943331 0.719693 0.324260 0.154785
H11   H     H_    0.750438 0.758780 0.229700 0.349760
H12   H     H_    0.536894 0.209997 0.424888 0.157229
H13   H     H_    0.210686 0.207353 0.751234 0.361802
H14   H     H_    0.579699 0.811879 0.785105 0.120113
H15   H     H_    0.395432 0.267126 0.376703 0.113406
H16   H     H_    0.305105 0.507916 0.234029 0.127512
H17   H     H_    0.611223 0.285594 0.679025 0.152552
H18   H     H_    0.398004 0.763915 0.495424 0.104418
H19   H     H_    0.618558 0.167714 0.334026 0.116881
H20   H     H_    0.993623 0.790750 0.523553 0.131943
N1    N     N_R   0.795420 0.560790 0.441960 -0.243106
N2    N     N_R   0.204580 0.439210 0.558040 -0.226562
O1    O     O_R   0.977910 0.338120 0.530560 -0.572374
O2    O     O_2   0.279099 0.166250 0.307353 -0.373829
O3    O     O_2   0.254716 0.387948 0.333995 -0.450848
O4    O     O_2   0.641065 0.315117 0.544569 -0.498100
O5    O     O_2   0.330599 0.690773 0.613243 -0.477030
O6    O     O_2   0.749755 0.284993 0.332711 -0.469225
O7    O     O_2   0.992879 0.891292 0.403833 -0.480063
O8    O     O_2   0.990447 0.106935 0.678426 -0.480393
O9    O     O_3   0.797116 0.949729 0.662414 -0.615711
O10   O     O_3   0.176973 0.055989 0.451226 -0.608530
O11   O     O_3   0.497949 0.604968 0.218206 -0.595854
O12   O     O_R   0.022090 0.661880 0.469440 -0.565531
O13   O     O_3   0.421621 0.234641 0.693757 -0.613155
O14   O     O_3   0.286481 0.563545 0.434490 -0.650814
O15   O     O_3   0.745484 0.507114 0.597118 -0.641260
O16   O     O_2   0.166704 0.344783 0.795234 -0.441848
O17   O     O_2   0.855724 0.663628 0.209334 -0.453618
O18   O     O_3   0.684971 0.699814 0.233401 -0.575215
O19   O     O_3   0.281484 0.254278 0.743604 -0.560897
O20   O     O_R   0.839850 0.379180 0.491410 -0.387828
O21   O     O_R   0.160150 0.620820 0.508590 -0.399381
O22   O     O_R   0.069040 0.479460 0.643530 -0.497624
O23   O     O_R   0.930960 0.520540 0.356470 -0.471896
O24   O     O_R   0.930990 0.520530 0.604380 -0.431288
O25   O     O_R   0.069010 0.479470 0.395620 -0.438294
O26   O     O_2   0.706185 0.931239 0.811097 -0.391185

loop_
_geom_bond_atom_site_label_1
_geom_bond_atom_site_label_2
_ccdc_geom_bond_type
C43   H17   S    
Cu1   Cu2   S    
C11   C18   A    
C23   C45   A    
C27   C29   S    
C18   C21   A    
C33   C45   A    
C19   C20   A    
Cu2   O20   S    
C44   O5    D    
C41   O2    D    
C10   N2    A    
C53   C54   A    
C34   C51   A    
C40   H14   S    
C17   C26   S    
C47   O7    D    
C12   O12   A    
C35   C37   A    
C47   H20   S    
C2    H12   S    
C3    C54   A    
C50   O17   D    
C4    C41   S    
Cu1   O25   S    
C1    C31   S    
C33   C36   A    
Cu1   O1    S    
C18   C19   A    
C32   C39   A    
C17   O23   A    
C12   O21   A    
C6    C15   A    
C49   H9    S    
H7    O14   S    
C49   O16   D    
C37   C47   S    
C7    N1    A    
Cu2   O12   S    
C10   O14   S    
C21   C43   S    
C12   C32   S    
C8    N2    A    
C42   O3    D    
C46   H19   S    
H5    O11   S    
H4    O10   S    
C13   C19   A    
C4    C51   A    
C34   C39   A    
C6    O19   S    
C5    C7    A    
Cu1   N2    S    
C16   O22   A    
C6    C8    A    
C3    C45   A    
Cu2   N1    S    
Cu1   O22   S    
C2    C4    A    
C29   C30   T    
C40   O26   D    
C9    C11   A    
C35   O10   S    
H6    O13   S    
C42   H16   S    
C9    N1    A    
C32   C37   A    
C44   H18   S    
C50   H10   S    
C5    C14   A    
C39   C44   S    
C2    C52   A    
C46   O6    D    
C16   O24   A    
C15   C24   A    
C20   C22   A    
C3    C40   S    
C13   C15   A    
C35   C51   A    
H11   O18   S    
C1    O1    A    
C48   O8    D    
C24   O13   S    
C9    O15   S    
C5    O18   S    
C52   C53   A    
C16   C25   S    
C7    C50   S    
C10   C13   A    
C1    O20   A    
H8    O15   S    
C20   C42   S    
C48   H2    S    
Cu2   O23   S    
C25   C27   T    
C23   C38   A    
C26   C28   T    
C31   C38   A    
C41   H15   S    
C14   C22   A    
C28   C30   S    
C33   O9    S    
Cu2   O24   S    
C23   C52   A    
C11   C14   A    
C22   O11   S    
C36   C48   S    
C17   O25   A    
H3    O9    S    
C38   C46   S    
C34   C53   A    
C21   C24   A    
Cu1   O21   S    
C43   O4    D    
C31   C36   A    
C8    C49   S    
C54   H1    S    
H13   O19   S    
