data_mof_unit_7170.cif
_audit_creation_date              2013-03-05T16:02:40-0500
_audit_creation_method            fapswitch 2.2
_symmetry_space_group_name_H-M    P1
_symmetry_Int_Tables_number       1
_space_group_crystal_system       triclinic
_cell_length_a                    6.958997
_cell_length_b                    17.262514
_cell_length_c                    18.84127
_cell_angle_alpha                 106.155787
_cell_angle_beta                  89.997565
_cell_angle_gamma                 90.549411
_cell_volume                      2173.90506044

loop_
_atom_site_label
_atom_site_type_symbol
_atom_site_description
_atom_site_fract_x
_atom_site_fract_y
_atom_site_fract_z
_atom_type_partial_charge
O1    O     O_R   0.494360 0.415680 0.413760 -0.601656
O2    O     O_R   0.818810 0.432910 0.557230 -0.582301
O3    O     O_R   0.994290 0.584320 0.586240 -0.590162
C1    C     C_R   0.650122 0.416009 0.580643 0.946204
O4    O     O_R   0.823740 0.406440 0.412520 -0.566612
O5    O     O_R   0.999250 0.557660 0.440500 -0.542699
C2    C     C_R   0.654743 0.384973 0.383855 1.042895
O6    O     O_R   0.489400 0.442340 0.559500 -0.565748
O7    O     O_3   0.662500 0.549650 0.509350 -0.267963
V1    V     V_3+5 0.935340 0.490790 0.498270 1.181970
O8    O     O_R   0.329270 0.567090 0.442770 -0.592314
C3    C     C_R   0.160897 0.584650 0.419947 0.970646
O9    O     O_R   0.324340 0.593560 0.587480 -0.588698
C4    C     C_R   0.155834 0.617237 0.614108 0.912749
V2    V     V_3+5 0.435970 0.509210 0.501730 1.158232
O10   O     O_3   0.158940 0.450350 0.490650 -0.263149
H1    H     H_    0.332149 0.868941 0.562832 0.190210
C5    C     C_R   0.022292 0.588975 0.747644 -0.166643
C6    C     C_R   0.957183 0.571035 0.810556 -0.198565
C7    C     C_R   0.959548 0.629951 0.877163 -0.141116
C8    C     C_R   0.024238 0.708331 0.881891 0.343618
C9    C     C_R   0.074371 0.731283 0.816745 -0.050652
C10   C     C_R   0.079577 0.668427 0.748843 0.111798
C11   C     C_R   0.114911 0.813216 0.816280 -0.270497
C12   C     C_R   0.158932 0.829895 0.747521 -0.052528
C13   C     C_R   0.191353 0.764390 0.683319 0.123462
C14   C     C_R   0.146349 0.684364 0.683493 -0.236423
C15   C     C_R   0.165090 0.910199 0.739523 0.163828
C16   C     C_R   0.231542 0.923980 0.673157 0.327867
C17   C     C_R   0.281986 0.858938 0.614026 -0.243674
C18   C     C_R   0.257780 0.780588 0.618106 -0.235526
H2    H     H_    0.026870 0.539028 0.698160 0.132426
H3    H     H_    0.912014 0.510148 0.808158 0.146209
H4    H     H_    0.920003 0.613330 0.926621 0.161925
H5    H     H_    0.288791 0.732888 0.568660 0.141101
C19   C     C_1   0.112173 0.868529 0.136585 -0.151617
C20   C     C_1   0.119520 0.826102 0.180305 0.161730
C21   C     C_1   0.128786 0.775589 0.231957 0.067754
C22   C     C_1   0.136683 0.732808 0.275355 0.022654
C23   C     C_1   0.145718 0.681724 0.326507 0.036557
C24   C     C_1   0.152728 0.638021 0.369136 -0.306892
C25   C     C_1   0.642149 0.364317 0.632903 -0.315524
C26   C     C_1   0.638218 0.321947 0.676678 0.063590
C27   C     C_1   0.634851 0.271891 0.728728 -0.008349
C28   C     C_1   0.632058 0.229554 0.772540 0.041799
C29   C     C_1   0.628138 0.179247 0.824371 0.145139
C30   C     C_1   0.623455 0.136526 0.867836 -0.194745
C31   C     C_R   0.759088 0.405165 0.236467 0.506399
C32   C     C_R   0.829226 0.411125 0.168379 -0.247201
C33   C     C_R   0.824514 0.345310 0.106499 -0.182308
C34   C     C_R   0.752845 0.271833 0.111534 -0.156296
C35   C     C_R   0.691421 0.261394 0.179909 0.069542
C36   C     C_R   0.698506 0.328664 0.244702 -0.055578
C37   C     C_R   0.622667 0.185059 0.183700 -0.215311
C38   C     C_R   0.570528 0.174113 0.252995 0.092500
C39   C     C_R   0.582631 0.239723 0.318128 0.085179
C40   C     C_R   0.643555 0.317373 0.314376 -0.265483
C41   C     C_R   0.511291 0.097511 0.258805 -0.396400
C42   C     C_R   0.468286 0.084213 0.327198 0.273747
C43   C     C_R   0.486303 0.148629 0.391738 0.493950
C44   C     C_R   0.537729 0.225559 0.386675 -0.401908
H6    H     H_    0.883321 0.468384 0.163295 0.147360
H7    H     H_    0.874528 0.351511 0.053921 0.145482
H8    H     H_    0.748430 0.223122 0.060986 0.103530
H9    H     H_    0.499332 0.046777 0.210019 0.181585
H10   H     H_    0.545718 0.273504 0.437733 0.139526
O11   O     O_R   0.775690 0.057750 0.940570 -0.540550
O12   O     O_R   0.441200 0.093570 0.087490 -0.604148
O13   O     O_R   0.265840 0.942320 0.059480 -0.565823
C45   C     C_R   0.610516 0.116061 0.115356 0.898403
O14   O     O_R   0.446270 0.067110 0.942790 -0.552270
O15   O     O_R   0.270950 0.915660 0.913750 -0.558521
C46   C     C_R   0.615047 0.084331 0.919654 0.982069
O16   O     O_R   0.770580 0.084400 0.086300 -0.607524
O17   O     O_3   0.602640 0.950400 0.990690 -0.243965
V3    V     V_3+5 0.329740 0.009200 0.001730 1.249045
O18   O     O_R   0.940900 0.906360 0.912450 -0.562073
C47   C     C_R   0.109103 0.881545 0.885910 1.082446
O19   O     O_R   0.935830 0.932820 0.057160 -0.560028
C48   C     C_R   0.103801 0.919253 0.083316 1.026286
V4    V     V_3+5 0.829130 0.990680 0.998180 1.263461
O20   O     O_3   0.106100 0.049590 0.009310 -0.271454
O21   O     O_3   0.758285 0.474591 0.294717 -0.646440
C49   C     C_3   0.604050 0.523868 0.285562 0.212528
H11   H     H_    0.470508 0.504210 0.308080 0.113572
H12   H     H_    0.576443 0.522358 0.226845 0.084906
C50   C     C_3   0.649739 0.610866 0.327184 -0.787644
H13   H     H_    0.778705 0.631274 0.302851 0.240758
H14   H     H_    0.529613 0.650362 0.321810 0.207652
H15   H     H_    0.675465 0.616621 0.386562 0.269013
N1    N     N_R   0.412153 0.004651 0.330466 0.242320
O22   O     O_R   0.451894 0.941702 0.276067 -0.429627
O23   O     O_R   0.316970 0.994339 0.386649 -0.334541
N2    N     N_R   0.058122 0.759188 0.954340 0.186225
O24   O     O_R   0.235765 0.774319 0.975590 -0.442023
O25   O     O_R   0.925620 0.763487 0.003992 -0.435395
N3    N     N_R   0.063292 0.974031 0.789892 0.227776
O26   O     O_R   0.876902 0.975720 0.785828 -0.412615
O27   O     O_R   0.155248 0.034756 0.833421 -0.362640
N4    N     N_R   0.234199 0.003481 0.663067 0.246033
O28   O     O_R   0.182664 0.013983 0.600017 -0.386576
O29   O     O_R   0.308748 0.063881 0.713209 -0.372139
O30   O     O_3   0.449995 0.136755 0.460136 -0.582775
C51   C     C_3   0.626651 0.135822 0.496892 0.217867
H16   H     H_    0.688509 0.197843 0.516297 0.088310
H17   H     H_    0.732746 0.095329 0.460524 0.118901
C52   C     C_3   0.592493 0.104607 0.563810 -0.610921
H18   H     H_    0.540948 0.041036 0.545631 0.270709
H19   H     H_    0.728612 0.107314 0.595233 0.203161
H20   H     H_    0.483206 0.141983 0.600483 0.259629

loop_
_geom_bond_atom_site_label_1
_geom_bond_atom_site_label_2
_geom_bond_distance
_ccdc_geom_bond_type
C15   N3    1.431657 S    
C38   C39   1.421468 A    
O17   V3    2.144673 S    
H1    C17   1.083312 S    
C6    C7    1.378031 A    
C49   C50   1.518862 S    
O15   V3    2.005089 S    
C51   H17   1.116491 S    
V4    O20   2.153345 S    
O18   C47   1.301551 A    
C35   C36   1.432204 A    
C12   C15   1.435731 A    
C13   C14   1.414480 A    
C16   C17   1.391584 A    
C15   C16   1.413286 A    
C49   H12   1.115945 S    
O5    C3    1.312535 A    
C17   C18   1.384575 A    
C8    N2    1.420847 S    
V2    O10   2.153373 S    
C39   C40   1.422439 A    
O13   V3    1.844929 S    
C5    C6    1.381237 A    
O15   C47   1.306109 A    
C37   C38   1.417007 A    
O8    V2    1.848160 S    
C44   H10   1.081471 S    
C45   O16   1.297799 A    
C52   H18   1.110661 S    
O11   C46   1.313810 A    
C10   C14   1.411967 A    
C4    C14   1.488151 S    
C43   O30   1.382978 S    
O7    V1    2.144747 S    
C1    O6    1.314087 A    
C7    H4    1.083347 S    
C13   C18   1.410756 A    
C8    C9    1.432928 A    
C33   H7    1.082692 S    
C52   H19   1.110760 S    
C51   H16   1.112923 S    
N3    O27   1.299897 A    
C35   C37   1.418001 A    
N3    O26   1.300431 A    
C9    C10   1.429550 A    
C31   C36   1.431476 A    
C34   C35   1.415098 A    
C21   C22   1.246524 T    
C11   C12   1.435600 A    
C30   C46   1.502308 S    
C19   C48   1.505832 S    
V3    O20   1.701178 S    
N1    O22   1.301446 A    
O19   V4    1.848197 S    
C36   C40   1.431251 A    
O17   V4    1.706467 S    
C12   C13   1.427045 A    
C28   C29   1.476505 S    
C5    C10   1.418741 A    
C43   C44   1.400779 A    
O2    C1    1.312549 A    
C26   C27   1.476526 S    
C20   C21   1.478160 S    
N1    O23   1.301347 A    
C41   H9    1.081421 S    
O21   C49   1.415823 S    
C37   C45   1.492825 S    
O18   V4    2.011455 S    
N4    O29   1.300115 A    
C33   C34   1.386148 A    
C42   N1    1.442041 S    
C49   H11   1.110331 S    
N2    O25   1.301353 A    
O3    C4    1.297744 A    
O1    V2    2.010573 S    
C11   C47   1.501266 S    
C23   C24   1.246829 T    
O11   V4    1.834299 S    
O6    V2    1.833846 S    
C50   H14   1.106019 S    
C6    H3    1.082977 S    
C52   H20   1.110581 S    
C18   H5    1.081215 S    
C38   C41   1.414419 A    
C5    H2    1.080211 S    
C25   C26   1.245508 T    
O16   V4    2.014392 S    
O2    V1    1.868702 S    
C22   C23   1.477992 S    
C27   C28   1.245548 T    
C3    C24   1.503467 S    
O4    C2    1.300929 A    
C29   C30   1.245483 T    
C19   C20   1.246588 T    
C32   H6    1.083251 S    
C16   N4    1.436890 S    
O1    C2    1.299704 A    
C34   H8    1.081145 S    
O5    V1    1.845099 S    
O8    C3    1.314951 A    
O12   V3    2.000638 S    
C31   O21   1.381675 S    
O9    V2    2.011559 S    
C41   C42   1.402168 A    
O4    V1    2.000720 S    
O3    V1    2.005099 S    
V1    O10   1.701240 S    
O14   V3    1.868782 S    
C1    C25   1.502281 S    
C31   C32   1.402504 A    
N4    O28   1.301466 A    
C9    C11   1.441994 A    
O7    V2    1.707687 S    
N2    O24   1.300929 A    
O19   C48   1.316660 A    
C42   C43   1.405612 A    
C7    C8    1.400895 A    
C50   H13   1.106144 S    
O12   C45   1.300982 A    
C32   C33   1.383233 A    
C50   H15   1.109663 S    
O14   C46   1.312734 A    
O30   C51   1.413430 S    
C39   C44   1.414078 A    
O13   C48   1.312499 A    
O9    C4    1.299558 A    
C2    C40   1.493201 S    
C51   C52   1.520584 S    
