data_mof_unit_53716.cif
_audit_creation_date              2012-12-11T14:52:32-0500
_audit_creation_method            fapswitch 2.2
_symmetry_space_group_name_H-M    P1
_symmetry_Int_Tables_number       1
_space_group_crystal_system       triclinic
_cell_length_a                    18.85862
_cell_length_b                    10.8655
_cell_length_c                    18.737533
_cell_angle_alpha                 89.898088
_cell_angle_beta                  91.154941
_cell_angle_gamma                 89.98149
_cell_volume                      3838.69036805

loop_
_atom_site_label
_atom_site_type_symbol
_atom_type_description
_atom_site_fract_x
_atom_site_fract_y
_atom_site_fract_z
_atom_type_partial_charge
C1    C     C_R   0.271774 0.043186 0.853213 0.558050
C2    C     C_R   0.710642 0.999178 0.138859 0.543424
C3    C     C_R   0.773841 0.539004 0.855206 0.550531
C4    C     C_R   0.226116 0.539155 0.144800 0.540043
C5    C     C_3   0.542021 0.722410 0.963385 -0.119490
C6    C     C_3   0.490611 0.727379 0.026244 -0.105138
C7    C     C_3   0.023746 0.225713 0.965821 -0.106850
C8    C     C_3   0.978568 0.222274 0.033291 -0.105624
C9    C     C_R   0.309598 0.548738 0.964899 -0.148284
C10   C     C_R   0.693448 0.537989 0.036847 -0.142625
C11   C     C_R   0.794809 0.006975 0.957902 -0.145456
C12   C     C_R   0.198911 0.028926 0.036707 -0.146867
C13   C     C_R   0.303107 0.536587 0.038463 -0.151757
C14   C     C_R   0.699466 0.524857 0.963267 -0.146525
C15   C     C_R   0.783443 0.976942 0.029263 -0.143101
C16   C     C_R   0.203108 0.012651 0.963263 -0.143436
C17   C     C_R   0.238451 0.564924 0.070062 0.033298
C18   C     C_R   0.761074 0.565453 0.929794 0.028005
C19   C     C_R   0.724126 0.025036 0.064162 0.022376
C20   C     C_R   0.251525 0.082688 0.923887 0.024649
C21   C     C_R   0.179755 0.599375 0.027317 -0.143966
C22   C     C_R   0.817848 0.612202 0.970894 -0.145290
C23   C     C_R   0.674974 0.097299 0.026512 -0.140989
C24   C     C_R   0.291874 0.174124 0.957468 -0.140714
C25   C     C_R   0.185693 0.608313 0.954597 -0.144260
C26   C     C_R   0.813039 0.620375 0.043631 -0.147667
C27   C     C_R   0.685942 0.126261 0.956451 -0.142545
C28   C     C_R   0.288887 0.188253 0.030257 -0.136614
C29   C     C_R   0.251036 0.587586 0.923003 0.031075
C30   C     C_R   0.749966 0.588456 0.077021 0.030966
C31   C     C_R   0.746211 0.083287 0.921521 0.027666
C32   C     C_R   0.243786 0.113850 0.070771 0.027396
C33   C     C_R   0.512443 0.719939 0.541076 -0.127860
C34   C     C_R   0.515984 0.718064 0.468101 -0.130334
C35   C     C_R   0.959942 0.230572 0.526687 -0.124329
C36   C     C_R   0.968357 0.234851 0.453947 -0.131486
C37   C     C_R   0.511363 0.827911 0.428689 0.033327
C38   C     C_R   0.500624 0.830921 0.576640 0.037583
C39   C     C_R   0.001113 0.336520 0.423487 0.032124
C40   C     C_R   0.983295 0.328661 0.570054 0.032969
C41   C     C_R   0.503108 0.940155 0.464180 -0.146242
C42   C     C_R   0.499779 0.941880 0.538412 -0.141844
C43   C     C_R   0.020730 0.438316 0.465941 -0.136872
C44   C     C_R   0.011928 0.434192 0.539351 -0.153797
C45   C     C_R   0.472289 0.821537 0.854460 0.548969
C46   C     C_R   0.561068 0.817201 0.137402 0.546081
C47   C     C_R   0.942935 0.317588 0.863163 0.560838
C48   C     C_R   0.056507 0.317800 0.136782 0.556142
C49   C     C_R   0.192398 0.645407 0.533336 -0.140841
C50   C     C_R   0.826592 0.579636 0.451064 -0.128126
C51   C     C_R   0.674764 0.089901 0.547076 -0.128177
C52   C     C_R   0.325314 0.088386 0.452514 -0.128862
C53   C     C_R   0.193301 0.649001 0.460899 -0.136932
C54   C     C_R   0.837840 0.551381 0.522191 -0.133566
C55   C     C_R   0.664356 0.063455 0.475998 -0.130637
C56   C     C_R   0.335454 0.063138 0.523795 -0.131963
C57   C     C_R   0.246437 0.586354 0.424764 0.036718
C58   C     C_R   0.782086 0.505401 0.562183 0.027286
C59   C     C_R   0.718183 0.007563 0.437772 0.028305
C60   C     C_R   0.281526 0.008171 0.562304 0.032642
C61   C     C_R   0.303695 0.532776 0.462182 -0.130191
C62   C     C_R   0.717295 0.474118 0.528476 -0.128663
C63   C     C_R   0.780647 0.968007 0.473063 -0.132668
C64   C     C_R   0.218758 0.969622 0.527332 -0.126813
C65   C     C_R   0.305950 0.538686 0.535917 -0.128099
C66   C     C_R   0.705374 0.505304 0.457483 -0.133521
C67   C     C_R   0.792407 0.999093 0.544186 -0.138896
C68   C     C_R   0.207125 0.999935 0.456057 -0.137059
C69   C     C_R   0.250091 0.595526 0.571491 0.038961
C70   C     C_R   0.758713 0.565364 0.420029 0.033676
C71   C     C_R   0.740885 0.066662 0.579959 0.034196
C72   C     C_R   0.259068 0.065904 0.419834 0.030832
C73   C     C_R   0.260796 0.635147 0.851479 0.549316
C74   C     C_R   0.739388 0.635234 0.148562 0.536018
C75   C     C_R   0.760392 0.135455 0.851610 0.541786
C76   C     C_R   0.237778 0.141869 0.146149 0.540728
C77   C     C_R   0.291371 0.994695 0.638783 0.573021
C78   C     C_R   0.708564 0.994421 0.361238 0.575647
C79   C     C_R   0.791673 0.493866 0.638909 0.572244
C80   C     C_R   0.229178 0.547569 0.353501 0.553208
C81   C     C_R   0.471573 0.823801 0.647757 0.540779
C82   C     C_R   0.531317 0.823113 0.354202 0.550139
C83   C     C_R   0.967248 0.323085 0.645203 0.549953
C84   C     C_R   0.029346 0.324427 0.352606 0.561378
C85   C     C_R   0.259634 0.635794 0.643777 0.543848
C86   C     C_R   0.741430 0.632493 0.354974 0.546195
C87   C     C_R   0.758531 0.132579 0.645110 0.542014
C88   C     C_R   0.241528 0.132209 0.354724 0.555701
C89   C     C_3   0.496518 0.929536 0.025935 -0.109951
C90   C     C_3   0.547667 0.924493 0.962325 -0.128703
C91   C     C_3   0.975466 0.424509 0.034713 -0.114017
C92   C     C_3   0.020183 0.427938 0.966380 -0.117131
C93   C     C_3   0.448482 0.832179 0.989540 -0.105293
C94   C     C_3   0.590325 0.819632 0.999698 -0.143440
C95   C     C_3   0.928339 0.321612 0.001953 -0.136953
C96   C     C_3   0.070647 0.328629 0.998124 -0.140688
C97   C     C_3   0.500251 0.827187 0.927435 0.054765
C98   C     C_3   0.538577 0.824520 0.061953 0.047052
C99   C     C_3   0.973630 0.324781 0.935114 0.055962
C100  C     C_3   0.025386 0.324997 0.064985 0.057163
Cr1   Cr    Cr6+3 0.229630 0.835900 0.747350 1.013088
Cr2   Cr    Cr6+3 0.770370 0.835900 0.252650 1.005159
Cr3   Cr    Cr6+3 0.729630 0.335900 0.747350 1.001576
Cr4   Cr    Cr6+3 0.270370 0.335900 0.252650 1.010698
Cr5   Cr    Cr6+3 0.387410 0.989850 0.750850 1.009461
Cr6   Cr    Cr6+3 0.612590 0.989850 0.249150 1.007064
Cr7   Cr    Cr6+3 0.887410 0.489850 0.750850 1.008346
Cr8   Cr    Cr6+3 0.112590 0.489850 0.249150 1.010667
Cr9   Cr    Cr6+3 0.385800 0.677120 0.749340 1.008951
Cr10  Cr    Cr6+3 0.614200 0.677120 0.250660 1.002283
Cr11  Cr    Cr6+3 0.885800 0.177120 0.749340 1.008114
Cr12  Cr    Cr6+3 0.114200 0.177120 0.250660 1.017282
H1    H     H_    0.389811 0.837318 0.983736 0.123145
H2    H     H_    0.648920 0.813327 0.005117 0.118675
H3    H     H_    0.869462 0.318808 0.001874 0.122185
H4    H     H_    0.129522 0.331229 0.998114 0.121873
H5    H     H_    0.148653 0.692359 0.433536 0.128019
H6    H     H_    0.888754 0.572280 0.546929 0.131758
H7    H     H_    0.615844 0.093893 0.449930 0.126563
H8    H     H_    0.383674 0.094296 0.549802 0.124500
H9    H     H_    0.344895 0.483131 0.434845 0.126987
H10   H     H_    0.674267 0.433541 0.557842 0.134725
H11   H     H_    0.822044 0.920445 0.444870 0.136120
H12   H     H_    0.176975 0.923755 0.555889 0.134245
H13   H     H_    0.351596 0.501773 0.564738 0.129386
H14   H     H_    0.653123 0.491021 0.433875 0.124517
H15   H     H_    0.843119 0.977751 0.569397 0.122799
H16   H     H_    0.156127 0.979737 0.431152 0.126057
H17   H     H_    0.478003 0.014365 0.052749 0.124845
H18   H     H_    0.567546 0.003832 0.931624 0.118071
H19   H     H_    0.956862 0.505814 0.064752 0.118349
H20   H     H_    0.035699 0.512168 0.937116 0.114563
H21   H     H_    0.559874 0.637909 0.935933 0.116922
H22   H     H_    0.466832 0.646289 0.052792 0.123484
H23   H     H_    0.043756 0.143830 0.937104 0.133971
H24   H     H_    0.961300 0.137464 0.061157 0.134877
H25   H     H_    0.360926 0.533633 0.941509 0.130856
H26   H     H_    0.643984 0.513587 0.061617 0.131389
H27   H     H_    0.842014 0.973946 0.932101 0.125755
H28   H     H_    0.162005 0.974059 0.066829 0.126400
H29   H     H_    0.128216 0.617262 0.049641 0.136196
H30   H     H_    0.867351 0.640061 0.947362 0.136161
H31   H     H_    0.627647 0.132707 0.051130 0.135985
H32   H     H_    0.328836 0.230255 0.928123 0.133193
H33   H     H_    0.139842 0.638557 0.923544 0.125631
H34   H     H_    0.857733 0.658970 0.073116 0.127554
H35   H     H_    0.647266 0.185964 0.930486 0.133145
H36   H     H_    0.321898 0.258820 0.054570 0.140140
H37   H     H_    0.514782 0.632637 0.569093 0.131503
H38   H     H_    0.524278 0.629590 0.443027 0.130929
H39   H     H_    0.934669 0.150021 0.548870 0.134607
H40   H     H_    0.952547 0.156039 0.422019 0.131067
H41   H     H_    0.500481 0.025931 0.434777 0.108826
H42   H     H_    0.494069 0.028800 0.565684 0.109144
H43   H     H_    0.046597 0.517764 0.443166 0.133498
H44   H     H_    0.028062 0.511897 0.571978 0.116040
O1    O     O_R   0.214270 0.709000 0.827470 -0.524428
O2    O     O_R   0.785730 0.709000 0.172530 -0.533878
O3    O     O_R   0.714270 0.209000 0.827470 -0.527676
O4    O     O_R   0.285730 0.209000 0.172530 -0.526253
O5    O     O_R   0.445950 0.919440 0.676520 -0.526269
O6    O     O_R   0.554050 0.919440 0.323480 -0.518352
O7    O     O_R   0.945950 0.419440 0.676520 -0.520107
O8    O     O_R   0.054050 0.419440 0.323480 -0.503021
O9    O     O_R   0.456730 0.717630 0.669840 -0.524675
O10   O     O_R   0.543270 0.717630 0.330160 -0.520881
O11   O     O_R   0.956730 0.217630 0.669840 -0.516906
O12   O     O_R   0.043270 0.217630 0.330160 -0.514185
O13   O     O_R   0.320620 0.625640 0.672920 -0.506213
O14   O     O_R   0.679380 0.625640 0.327080 -0.504274
O15   O     O_R   0.820620 0.125640 0.672920 -0.510222
O16   O     O_R   0.179380 0.125640 0.327080 -0.501691
O17   O     O_3   0.334280 0.834290 0.749180 -0.266806
O18   O     O_3   0.665720 0.834290 0.250820 -0.303963
O19   O     O_3   0.834280 0.334290 0.749180 -0.285223
O20   O     O_3   0.165720 0.334290 0.250820 -0.260523
O21   O     O_R   0.236160 0.958490 0.823130 -0.500550
O22   O     O_R   0.763840 0.958490 0.176870 -0.491152
O23   O     O_R   0.736160 0.458490 0.823130 -0.500411
O24   O     O_R   0.263840 0.458490 0.176870 -0.509396
O25   O     O_R   0.332080 0.075470 0.831280 -0.517319
O26   O     O_R   0.667920 0.075470 0.168720 -0.513611
O27   O     O_R   0.832080 0.575470 0.831280 -0.527567
O28   O     O_R   0.167920 0.575470 0.168720 -0.532361
O29   O     O_R   0.446300 0.918110 0.826620 -0.501298
O30   O     O_R   0.553700 0.918110 0.173380 -0.511282
O31   O     O_R   0.946300 0.418110 0.826620 -0.502076
O32   O     O_R   0.053700 0.418110 0.173380 -0.505069
O33   O     O_R   0.457110 0.716200 0.831760 -0.523240
O34   O     O_R   0.542890 0.716200 0.168240 -0.513795
O35   O     O_R   0.957110 0.216200 0.831760 -0.516515
O36   O     O_R   0.042890 0.216200 0.168240 -0.518504
O37   O     O_R   0.320980 0.624310 0.823030 -0.504259
O38   O     O_R   0.679020 0.624310 0.176970 -0.518265
O39   O     O_R   0.820980 0.124310 0.823030 -0.513999
O40   O     O_R   0.179020 0.124310 0.176970 -0.518408
O41   O     O_R   0.213890 0.710430 0.665540 -0.538621
O42   O     O_R   0.786110 0.710430 0.334460 -0.534933
O43   O     O_R   0.713890 0.210430 0.665540 -0.536536
O44   O     O_R   0.286110 0.210430 0.334460 -0.522999
O45   O     O_R   0.235810 0.959820 0.673020 -0.503181
O46   O     O_R   0.764190 0.959820 0.326980 -0.495629
O47   O     O_R   0.735810 0.459820 0.673020 -0.503017
O48   O     O_R   0.264190 0.459820 0.326980 -0.499700
O49   O     O_R   0.331700 0.076900 0.669350 -0.519555
O50   O     O_R   0.668300 0.076900 0.330650 -0.511329
O51   O     O_R   0.831700 0.576900 0.669350 -0.513868
O52   O     O_R   0.168300 0.576900 0.330650 -0.529823
H45   H     H_    0.148375 0.690053 0.559129 0.126966
H46   H     H_    0.869397 0.622297 0.422298 0.132464
H47   H     H_    0.633139 0.138959 0.574129 0.129057
H48   H     H_    0.367126 0.136597 0.425179 0.129802
H49   H     H_    0.348299 0.506359 0.070500 0.116160
H50   H     H_    0.656269 0.483866 0.932696 0.119199
H51   H     H_    0.821390 0.918630 0.057284 0.133631
H52   H     H_    0.171419 0.941097 0.938149 0.135300

loop_
_geom_bond_atom_site_label_1
_geom_bond_atom_site_label_2
_ccdc_geom_bond_type
C58   C62   A    
C74   O38   A    
Cr11  O35   S    
C88   O16   A    
C73   O37   A    
C63   H11   S    
C8    H24   S    
C34   C37   A    
Cr4   O44   S    
C41   C42   A    
C14   C18   A    
Cr1   O17   S    
C35   C36   A    
C40   C83   S    
C87   O43   A    
Cr8   O52   S    
Cr3   O3    S    
Cr2   O2    S    
C1    O25   A    
C5    C94   S    
C34   H38   S    
C47   C99   S    
C7    C8    S    
C35   H39   S    
C55   H7    S    
C15   C19   A    
C7    C96   S    
Cr8   O8    S    
C50   C54   A    
C7    C99   S    
Cr11  O19   S    
C64   C68   A    
C16   C20   A    
C92   H20   S    
Cr4   O4    S    
C39   C84   S    
C48   O32   A    
C77   O49   A    
Cr2   O42   S    
C82   O10   A    
C5    C6    S    
C30   C74   S    
C91   H19   S    
C53   H5    S    
C67   C71   A    
C29   C73   S    
C94   C98   S    
C95   C99   S    
C13   H49   S    
Cr12  O12   S    
C73   O1    A    
C92   C96   S    
C89   H17   S    
C14   H50   S    
C3    C18   S    
C61   H9    S    
C2    O26   A    
Cr1   O41   S    
Cr5   O29   S    
C16   H52   S    
C9    C13   A    
Cr6   O26   S    
C11   H27   S    
C76   O40   A    
C9    H25   S    
Cr12  O40   S    
C12   C16   A    
Cr9   O33   S    
Cr10  O38   S    
C12   H28   S    
Cr9   O37   S    
C23   C27   A    
C91   C100  S    
Cr3   O47   S    
C68   H16   S    
C90   C97   S    
Cr7   O51   S    
C84   O8    A    
C46   O34   A    
C9    C29   A    
Cr6   O6    S    
C46   C98   S    
C42   H42   S    
C11   C31   A    
C49   C69   A    
C12   C32   A    
C89   C93   S    
C56   H8    S    
C57   C80   S    
C23   H31   S    
Cr6   O50   S    
C8    C95   S    
C1    O21   A    
C4    O24   A    
C43   H43   S    
C59   C78   S    
C72   C88   S    
Cr9   O13   S    
C90   C94   S    
C41   H41   S    
Cr10  O18   S    
C25   C29   A    
C48   C100  S    
C63   C67   A    
C60   C77   S    
C28   H36   S    
Cr8   O28   S    
C27   C31   A    
C94   H2    S    
C20   C24   A    
C28   C32   A    
C62   C66   A    
Cr6   O30   S    
C15   H51   S    
C10   C14   A    
C95   H3    S    
C91   C92   S    
Cr1   O45   S    
C74   O2    A    
C19   C23   A    
C36   H40   S    
C39   C43   A    
C82   O6    A    
C51   C55   A    
C26   H34   S    
C64   H12   S    
Cr3   O23   S    
C83   O11   A    
Cr10  O34   S    
C17   C21   A    
C3    O23   A    
Cr7   O27   S    
C65   H13   S    
Cr4   O24   S    
C5    H21   S    
C43   C44   A    
C78   O50   A    
C7    H23   S    
C52   C72   A    
C67   H15   S    
Cr12  O36   S    
C10   C30   A    
C44   H44   S    
C31   C75   S    
C45   C97   S    
C68   C72   A    
C6    C93   S    
C87   O15   A    
C22   H30   S    
Cr3   O19   S    
C33   C34   A    
Cr6   O18   S    
Cr3   O43   S    
C4    O28   A    
C57   C61   A    
Cr4   O20   S    
C50   H46   S    
Cr9   O9    S    
C58   C79   S    
C86   O42   A    
C71   C87   S    
C4    C17   S    
Cr10  O14   S    
Cr4   O48   S    
C45   O33   A    
C80   O52   A    
C5    C97   S    
C26   C30   A    
C83   O7    A    
C11   C15   A    
C54   H6    S    
C38   C81   S    
C22   C26   A    
Cr2   O22   S    
Cr5   O5    S    
C37   C82   S    
Cr11  O11   S    
C47   O31   A    
C70   C86   S    
C6    C98   S    
C62   H10   S    
C69   C85   S    
C55   C59   A    
C54   C58   A    
C75   O3    A    
C21   C25   A    
C76   O4    A    
C1    C20   S    
C53   C57   A    
Cr12  O20   S    
C2    C19   S    
C86   O14   A    
C81   O5    A    
Cr8   O32   S    
C36   C39   A    
C24   C28   A    
Cr7   O7    S    
C77   O45   A    
C32   C76   S    
C25   H33   S    
C78   O46   A    
C51   C71   A    
C47   O35   A    
Cr5   O49   S    
Cr2   O18   S    
C10   H26   S    
C66   C70   A    
C59   C63   A    
C33   C38   A    
C13   C17   A    
C89   C98   S    
C60   C64   A    
C79   O47   A    
C88   O44   A    
C18   C22   A    
C35   C40   A    
C8    C100  S    
C66   H14   S    
C21   H29   S    
C6    H22   S    
C33   H37   S    
Cr10  O10   S    
C45   O29   A    
Cr12  O16   S    
Cr7   O19   S    
C24   H32   S    
C65   C69   A    
C96   C100  S    
C93   C97   S    
C91   C95   S    
C93   H1    S    
Cr9   O17   S    
C79   O51   A    
C61   C65   A    
C37   C41   A    
C85   O13   A    
C50   C70   A    
C48   O36   A    
C49   C53   A    
Cr1   O21   S    
Cr1   O1    S    
C90   H18   S    
C38   C42   A    
C51   H47   S    
C40   C44   A    
C56   C60   A    
C84   O12   A    
C46   O30   A    
Cr2   O46   S    
C27   H35   S    
Cr8   O20   S    
C49   H45   S    
C52   H48   S    
C81   O9    A    
C85   O41   A    
C96   H4    S    
Cr7   O31   S    
Cr5   O17   S    
C2    O22   A    
Cr5   O25   S    
C89   C90   S    
C80   O48   A    
C3    O27   A    
C52   C56   A    
C92   C99   S    
Cr11  O39   S    
Cr11  O15   S    
C75   O39   A    
