data_mof_unit_67167.cif
_audit_creation_date              2013-03-05T15:58:59-0500
_audit_creation_method            fapswitch 2.2
_symmetry_space_group_name_H-M    P1
_symmetry_Int_Tables_number       1
_space_group_crystal_system       triclinic
_cell_length_a                    8.33733
_cell_length_b                    12.966453
_cell_length_c                    15.143105
_cell_angle_alpha                 97.870293
_cell_angle_beta                  97.066412
_cell_angle_gamma                 99.654751
_cell_volume                      1580.70202985

loop_
_atom_site_label
_atom_site_type_symbol
_atom_site_description
_atom_site_fract_x
_atom_site_fract_y
_atom_site_fract_z
_atom_type_partial_charge
P1    P     P_3+3 0.998730 0.403530 0.291970 0.502102
O1    O     O_2   0.827880 0.435260 0.277750 -0.412751
O2    O     O_3   0.100280 0.438960 0.391170 -0.348045
O3    O     O_3   0.625580 0.634130 0.333250 -0.391560
O4    O     O_2   0.711236 0.553430 0.178043 -0.406517
O5    O     O_3   0.941870 0.265424 0.265978 -0.597432
O6    O     O_3   0.629740 0.736993 0.183136 -0.545485
H1    H     H_    0.584058 0.849407 0.282238 0.053919
C1    C     C_3   0.479439 0.872963 0.149010 -0.417102
H2    H     H_    0.429738 0.938381 0.184531 0.192333
P2    P     P_3+3 0.687380 0.751030 0.571310 0.476784
P3    P     P_3+3 0.109873 0.829792 0.390580 0.439115
O7    O     O_2   0.857130 0.766340 0.543890 -0.379307
O8    O     O_3   0.056550 0.691050 0.379010 -0.374943
O9    O     O_2   0.992278 0.880193 0.446660 -0.379156
O10   O     O_3   0.733985 0.783853 0.688155 -0.567131
O11   O     O_3   0.071432 0.870767 0.286497 -0.591555
C2    C     C_3   0.044312 0.782934 0.218322 0.410879
H3    H     H_    0.926189 0.730651 0.220542 0.186702
H4    H     H_    0.143729 0.736396 0.225797 0.032356
C3    C     C_3   0.038172 0.823018 0.128389 -0.415042
H5    H     H_    0.926617 0.856933 0.115180 0.228261
H6    H     H_    0.144862 0.887550 0.130875 0.202001
C4    C     C_3   0.291414 0.796154 0.681416 0.379825
H7    H     H_    0.301258 0.748985 0.616668 0.124110
C5    C     C_3   0.186977 0.880379 0.666021 -0.836476
H8    H     H_    0.215048 0.947707 0.722976 0.236480
H9    H     H_    0.207629 0.911842 0.603164 0.252365
H10   H     H_    0.056545 0.846841 0.663298 0.271738
Ba1   Ba    Ba6+2 0.843750 0.550210 0.455600 1.576824
C6    C     C_3   0.971160 0.218773 0.342848 0.384498
H11   H     H_    0.873540 0.227775 0.384973 0.028977
H12   H     H_    0.088810 0.256698 0.384080 0.164431
C7    C     C_3   0.979261 0.102499 0.313096 -0.334116
H13   H     H_    0.994145 0.087668 0.240695 0.219068
H14   H     H_    0.087919 0.082617 0.352014 0.220158
C8    C     C_3   0.796959 0.704336 0.726450 0.353703
H15   H     H_    0.905316 0.686604 0.696412 0.117310
H16   H     H_    0.701550 0.631039 0.716263 0.079891
C9    C     C_3   0.846071 0.743664 0.827818 -0.395254
H17   H     H_    0.904678 0.684322 0.859147 0.170602
H18   H     H_    0.733835 0.750519 0.858514 0.191419
P4    P     P_3+3 0.190990 0.596560 0.708040 0.477739
O12   O     O_2   0.361830 0.564780 0.722310 -0.364143
O13   O     O_3   0.089430 0.561130 0.608830 -0.358601
O14   O     O_3   0.564130 0.365960 0.666760 -0.343130
O15   O     O_3   0.220714 0.734691 0.740239 -0.638174
P5    P     P_3+3 0.091286 0.172565 0.622052 0.457900
O16   O     O_3   0.601940 0.368240 0.453770 -0.381755
O17   O     O_3   0.133170 0.309040 0.621000 -0.385293
O18   O     O_2   0.212784 0.123211 0.567993 -0.378806
O19   O     O_3   0.147370 0.150871 0.732299 -0.522424
Ba2   Ba    Ba6+2 0.346090 0.449880 0.544410 1.566537
P6    P     P_3+3 0.582115 0.612815 0.215471 0.416056
C10   C     C_3   0.524247 0.801663 0.216752 0.458515
H19   H     H_    0.406945 0.756821 0.229680 -0.043232
H20   H     H_    0.382548 0.826198 0.094983 0.211746
O20   O     O_3   0.587780 0.631850 0.546230 -0.374306
C11   C     C_3   0.535111 0.238434 0.262929 0.412424
H21   H     H_    0.663709 0.270768 0.291616 0.058603
C12   C     C_3   0.529629 0.176226 0.168479 -0.474372
H22   H     H_    0.589514 0.228557 0.125108 0.158945
H23   H     H_    0.602642 0.113750 0.175120 0.231804
P7    P     P_3+3 0.510873 0.230115 0.432420 0.456577
O21   O     O_2   0.332590 0.233690 0.456160 -0.350030
O22   O     O_3   0.463686 0.171486 0.318143 -0.585062
C13   C     C_3   0.107955 0.232093 0.792586 0.535808
H24   H     H_    0.193659 0.308031 0.793807 0.144524
H25   H     H_    0.979688 0.242971 0.773882 -0.007592
C14   C     C_3   0.124765 0.203399 0.886971 -1.063784
H26   H     H_    0.255154 0.201888 0.911350 0.277735
H27   H     H_    0.082364 0.262833 0.934075 0.235301
H28   H     H_    0.049371 0.124173 0.886516 0.264787
P8    P     P_3+3 0.607997 0.385978 0.785649 0.443732
C15   C     C_3   0.626918 0.197783 0.823300 0.573341
H29   H     H_    0.750823 0.236726 0.858936 0.051400
O23   O     O_2   0.505985 0.466472 0.821948 -0.386118
O24   O     O_3   0.517408 0.269558 0.821280 -0.537360
C16   C     C_3   0.560821 0.110539 0.875951 -0.279074
H30   H     H_    0.450608 0.057289 0.835124 0.219482
H31   H     H_    0.521134 0.147719 0.938157 0.174545
C17   C     C_R   0.828640 0.439033 0.831623 0.141676
C18   C     C_R   0.897154 0.443539 0.923088 0.000302
C19   C     C_R   0.036051 0.449313 0.107430 -0.037653
C20   C     C_R   0.871761 0.402825 0.074976 -0.086061
C21   C     C_R   0.802487 0.403516 0.986246 -0.219361
C22   C     C_R   0.104236 0.460786 0.200990 0.300942
H32   H     H_    0.792839 0.368182 0.118439 0.151995
H33   H     H_    0.672640 0.371723 0.968098 0.164677
C23   C     C_R   0.266499 0.511926 0.227684 -0.447480
C24   C     C_R   0.088822 0.533440 0.798416 0.270210
C25   C     C_R   0.160461 0.540986 0.892350 -0.073878
C26   C     C_R   0.065484 0.488844 0.952331 -0.017351
C27   C     C_R   0.320156 0.599005 0.931673 0.357958
C28   C     C_R   0.394648 0.581364 0.014748 -0.185205
C29   C     C_R   0.302281 0.535546 0.074740 -0.085548
C30   C     C_R   0.134933 0.489863 0.044544 0.020643
C31   C     C_R   0.367871 0.545962 0.166940 0.153071
C32   C     C_R   0.927059 0.479016 0.771065 -0.543610
H34   H     H_    0.522118 0.617833 0.036772 0.193106
H35   H     H_    0.319694 0.516884 0.296996 0.194576
H36   H     H_    0.872588 0.473315 0.701497 0.174349
C33   C     C_R   0.777554 0.179624 0.537395 -0.495563
C34   C     C_R   0.426139 0.811670 0.466900 -0.522275
C35   C     C_R   0.388509 0.988393 0.450448 -0.167341
C36   C     C_R   0.325704 0.881037 0.440729 0.156614
C37   C     C_R   0.583752 0.849269 0.516159 0.268804
C38   C     C_R   0.649118 0.961233 0.528034 0.038256
C39   C     C_R   0.550240 0.030586 0.491632 -0.060056
C40   C     C_R   0.615375 0.140383 0.496764 0.249943
C41   C     C_R   0.875851 0.113831 0.573673 0.200356
C42   C     C_R   0.810873 0.006042 0.571491 -0.189647
H37   H     H_    0.309234 0.037741 0.424272 0.187484
H38   H     H_    0.888890 0.958367 0.602013 0.181702
H39   H     H_    0.829080 0.262403 0.539197 0.164991
C43   C     C_3   0.827352 0.028823 0.328326 -0.929134
H40   H     H_    0.830408 0.027458 0.400647 0.272998
H41   H     H_    0.712840 0.053771 0.301478 0.250238
H42   H     H_    0.828542 0.947711 0.295690 0.308748
C44   C     C_3   0.961213 0.852435 0.849794 -0.837829
H43   H     H_    0.090212 0.843965 0.846844 0.264964
H44   H     H_    0.928179 0.906940 0.803158 0.282527
H45   H     H_    0.953563 0.890682 0.918992 0.243859
C45   C     C_2   0.445287 0.326290 0.254793 0.574791
H46   H     H_    0.495089 0.390085 0.221663 -0.031219
O25   O     O_2   0.314631 0.323681 0.283093 -0.594160
C46   C     C_3   0.354356 0.127001 0.121334 -0.844293
H47   H     H_    0.359238 0.073969 0.058062 0.243702
H48   H     H_    0.285327 0.080221 0.165343 0.274801
H49   H     H_    0.286532 0.189829 0.103489 0.249505
C47   C     C_3   0.622299 0.918990 0.103697 -0.889381
H50   H     H_    0.726774 0.964624 0.152998 0.263252
H51   H     H_    0.665912 0.855887 0.061771 0.271377
H52   H     H_    0.578673 0.972795 0.059632 0.257860
C48   C     C_3   0.040306 0.734512 0.052426 -1.012591
H53   H     H_    0.066823 0.768225 0.991799 0.283127
H54   H     H_    0.141924 0.693761 0.071000 0.265528
H55   H     H_    0.921364 0.677488 0.038199 0.296619
C49   C     C_3   0.642256 0.151325 0.727407 -0.752635
H56   H     H_    0.701583 0.214861 0.694465 0.190553
H57   H     H_    0.724537 0.093022 0.727410 0.227977
H58   H     H_    0.519308 0.116171 0.687973 0.290222
C50   C     C_3   0.690182 0.045865 0.904641 -1.012328
H59   H     H_    0.628489 0.969666 0.920497 0.266540
H60   H     H_    0.762370 0.026062 0.850468 0.288323
H61   H     H_    0.775942 0.090595 0.964832 0.266288
C51   C     C_3   0.398056 0.699842 0.903901 -0.972787
H62   H     H_    0.494015 0.747977 0.956977 0.216175
H63   H     H_    0.463590 0.684470 0.846867 0.273683
H64   H     H_    0.305646 0.750774 0.894408 0.258897
C52   C     C_2   0.369827 0.699808 0.430893 0.811358
H65   H     H_    0.366735 0.676828 0.360023 -0.121773
O26   O     O_2   0.301579 0.638780 0.474910 -0.521728
C53   C     C_2   0.456614 0.853097 0.728079 0.503738
H66   H     H_    0.510844 0.833588 0.790557 0.054936
O27   O     O_2   0.532187 0.924248 0.696693 -0.631577

loop_
_geom_bond_atom_site_label_1
_geom_bond_atom_site_label_2
_geom_bond_distance
_ccdc_geom_bond_type
P1    C22   1.892699 S    
C48   H55   1.111024 S    
C10   H19   1.104720 S    
C50   H61   1.110947 S    
C2    C3    1.520869 S    
O2    Ba2   2.871852 S    
C17   C32   1.398449 A    
Ba1   O13   2.871087 S    
C41   C42   1.406050 A    
C19   C22   1.438166 A    
O6    C10   1.405880 S    
P4    O12   1.546222 D    
C47   H52   1.103260 S    
C34   C36   1.391347 A    
C48   H53   1.100125 S    
C20   C21   1.397545 A    
C38   C39   1.436924 A    
C5    H8    1.111931 S    
C33   C40   1.394475 A    
C19   C30   1.431029 A    
C34   C52   1.453804 S    
C35   H37   1.072493 S    
C51   H63   1.090726 S    
O8    Ba1   2.797757 S    
P1    O1    1.545968 D    
C8    C9    1.531327 S    
C11   O22   1.398251 S    
C49   H58   1.110509 S    
C7    C43   1.515336 S    
C50   H59   1.106027 S    
C18   C26   1.417786 A    
C11   C45   1.475012 S    
C43   H40   1.094966 S    
C2    H4    1.107855 S    
C48   H54   1.099240 S    
C7    H13   1.112733 S    
C12   H23   1.099800 S    
P1    Ba1   3.427550 S    
C51   H62   1.101146 S    
O12   Ba2   2.870983 S    
P4    Ba2   3.428109 S    
P5    O18   1.543937 D    
C16   C50   1.530711 S    
C28   C29   1.392043 A    
P2    Ba1   3.464319 S    
C44   H44   1.108227 S    
P8    O23   1.539657 D    
C29   C31   1.415053 A    
P3    O11   1.741075 S    
C52   H65   1.069683 S    
C6    H12   1.094179 S    
C14   H26   1.108524 S    
C1    C10   1.525731 S    
P2    O20   1.597851 S    
Ba2   O21   2.913389 S    
C1    H2    1.108305 S    
C7    H14   1.105919 S    
C44   H45   1.110309 S    
O10   C8    1.394780 S    
C49   H57   1.102753 S    
C9    H18   1.105982 S    
O5    C6    1.397494 S    
O13   Ba2   2.962276 S    
C11   H21   1.094884 S    
O16   P7    1.792641 S    
C3    H5    1.101787 S    
C12   H22   1.109123 S    
P8    C17   1.863123 S    
H1    C10   1.105425 S    
C42   H38   1.076102 S    
C4    C53   1.489310 S    
P5    C41   1.845940 S    
C1    C47   1.523310 S    
Ba1   Ba2   4.556104 S    
C11   C12   1.534282 S    
O17   Ba2   2.798332 S    
C13   H24   1.111845 S    
O7    Ba1   2.913069 S    
C51   H64   1.104458 S    
C19   C20   1.399065 A    
C24   C25   1.457029 A    
C16   H31   1.111335 S    
C28   H34   1.079509 S    
C2    H3    1.105007 S    
P4    C24   1.904771 S    
C38   C42   1.415449 A    
P1    O2    1.597525 S    
P7    O22   1.760463 S    
O2    Ba1   2.961414 S    
C33   H39   1.082496 S    
C15   H29   1.107515 S    
C46   H48   1.109613 S    
C23   H35   1.076987 S    
C8    H15   1.103650 S    
P2    O10   1.741272 S    
O4    P6    1.543281 D    
P7    C40   1.871863 S    
C6    H11   1.105516 S    
P3    O9    1.541854 D    
C37   C38   1.440833 A    
C29   C30   1.413605 A    
C18   C21   1.411118 A    
C14   H28   1.109445 S    
C25   C27   1.428121 A    
O11   C2    1.395775 S    
C6    C7    1.528473 S    
C12   C46   1.535634 S    
C23   C31   1.390164 A    
C4    H7    1.102070 S    
P4    O13   1.597682 S    
C53   H66   1.078045 S    
O19   C13   1.406126 S    
C9    H17   1.106781 S    
C9    C44   1.536284 S    
Ba1   O16   2.829360 S    
P3    O8    1.758114 S    
C3    H6    1.107377 S    
P2    C37   1.884013 S    
C47   H50   1.101068 S    
C26   C30   1.441799 A    
O14   P8    1.766508 S    
C44   H43   1.104937 S    
C49   H56   1.099454 S    
C45   O25   1.215677 D    
C20   H32   1.075306 S    
C13   H25   1.109391 S    
C27   C51   1.497057 S    
C50   H60   1.103060 S    
C35   C39   1.399526 A    
O3    P6    1.749601 S    
C4    O15   1.393587 S    
C53   O27   1.213609 D    
C4    C5    1.530984 S    
C47   H51   1.104140 S    
C21   H33   1.078671 S    
Ba2   O20   2.828818 S    
C33   C41   1.397608 A    
C35   C36   1.383478 A    
C5    H9    1.106887 S    
C43   H42   1.101297 S    
O1    Ba1   2.870408 S    
C13   C14   1.521438 S    
P7    O21   1.578234 D    
C46   H49   1.110691 S    
C8    H16   1.111706 S    
C15   C49   1.523098 S    
C39   C40   1.424003 A    
P3    C36   1.838695 S    
P2    O7    1.512517 D    
P4    O15   1.757639 S    
O16   Ba2   2.938461 S    
Ba1   O20   2.939227 S    
O14   Ba2   2.882426 S    
P5    O17   1.747999 S    
C25   C26   1.440387 A    
C43   H41   1.107042 S    
C1    H20   1.107632 S    
C52   O26   1.216962 D    
C27   C28   1.398170 A    
C15   O24   1.409475 S    
C16   H30   1.110772 S    
P5    O19   1.750876 S    
C32   H36   1.082232 S    
C5    H10   1.094899 S    
C17   C18   1.421302 A    
P8    O24   1.755348 S    
C22   C23   1.387241 A    
P1    O5    1.750063 S    
P6    C31   1.861533 S    
C14   H27   1.109301 S    
O6    P6    1.743361 S    
C24   C32   1.397046 A    
C15   C16   1.537895 S    
C3    C48   1.513570 S    
C34   C37   1.401861 A    
O3    Ba1   2.883092 S    
C46   H47   1.109534 S    
C45   H46   1.076127 S    
