data_mof_unit_18768.cif
_audit_creation_date              2012-12-10T17:49:35-0500
_audit_creation_method            fapswitch 2.2
_symmetry_space_group_name_H-M    P1
_symmetry_Int_Tables_number       1
_space_group_crystal_system       triclinic
_cell_length_a                    14.722534
_cell_length_b                    14.686886
_cell_length_c                    15.864489
_cell_angle_alpha                 77.02975
_cell_angle_beta                  102.792411
_cell_angle_gamma                 114.821029
_cell_volume                      3002.49060942

loop_
_atom_site_label
_atom_site_type_symbol
_atom_type_description
_atom_site_fract_x
_atom_site_fract_y
_atom_site_fract_z
_atom_type_partial_charge
C1    C     C_R   0.880404 0.312246 0.514707 0.806638
C2    C     C_3   0.057091 0.437763 0.072750 -0.424874
C3    C     C_3   0.997427 0.499424 0.082540 0.267051
C4    C     C_3   0.050331 0.610901 0.036832 -0.114248
C5    C     C_3   0.046433 0.612163 0.937502 -0.448082
C6    C     C_1   0.998171 0.497084 0.175439 -0.090904
C7    C     C_1   0.999763 0.503271 0.823982 -0.092914
C8    C     C_1   0.000235 0.502529 0.748722 -0.177364
C9    C     C_R   0.813034 0.204512 0.519588 -0.070756
C10   C     C_R   0.187458 0.795462 0.474335 -0.052905
C11   C     C_R   0.784469 0.028256 0.526200 -0.001328
C12   C     C_R   0.000162 0.500822 0.659506 0.830310
C13   C     C_R   0.850643 0.129485 0.527923 -0.239470
C14   C     C_R   0.708991 0.177895 0.511014 -0.253410
C15   C     C_R   0.639810 0.078168 0.503493 0.073748
C16   C     C_R   0.678634 0.001978 0.513269 0.109649
C17   C     C_R   0.533312 0.052550 0.486289 0.072845
C18   C     C_R   0.466645 0.948953 0.487485 0.067357
C19   C     C_R   0.507854 0.875507 0.496106 -0.230679
C20   C     C_R   0.611193 0.901592 0.508240 -0.226481
C21   C     C_R   0.491194 0.127198 0.464885 -0.226044
C22   C     C_R   0.387352 0.100727 0.448618 -0.231245
C23   C     C_R   0.119652 0.687758 0.485147 0.789973
C24   C     C_R   0.321505 0.999258 0.455202 0.162166
C25   C     C_R   0.360500 0.922348 0.476981 0.086180
C26   C     C_R   0.216705 0.973682 0.440280 -0.196961
C27   C     C_R   0.150105 0.872270 0.448554 -0.202611
C28   C     C_R   0.291824 0.821049 0.489459 -0.257824
C29   C     C_R   0.714824 0.667519 0.354914 -0.310931
C30   C     C_R   0.795794 0.637122 0.376957 0.065621
C31   C     C_R   0.715724 0.510555 0.489402 0.003263
C32   C     C_R   0.629860 0.536767 0.469351 -0.020946
C33   C     C_R   0.632123 0.618329 0.401235 0.175447
C34   C     C_R   0.999767 0.499160 0.340465 0.831368
C35   C     C_R   0.542836 0.485830 0.514008 0.077917
C36   C     C_R   0.460260 0.518759 0.490118 0.078376
C37   C     C_R   0.468295 0.602480 0.423445 -0.245422
C38   C     C_R   0.552217 0.650621 0.379855 -0.203763
C39   C     C_R   0.535180 0.402613 0.581108 -0.243349
C40   C     C_R   0.450618 0.353431 0.623800 -0.199652
C41   C     C_R   0.369579 0.384099 0.600996 0.165677
C42   C     C_R   0.372447 0.466629 0.533737 -0.023824
C43   C     C_R   0.284905 0.331940 0.644717 -0.319942
C44   C     C_R   0.202930 0.360821 0.621376 0.077758
C45   C     C_3   0.061280 0.443240 0.974971 -0.380456
C46   C     C_R   0.285961 0.491918 0.512878 0.005495
C47   C     C_3   0.886787 0.453706 0.937334 -0.116050
C48   C     C_3   0.887416 0.448835 0.036698 -0.406950
C49   C     C_1   0.999165 0.497442 0.251104 -0.174901
C50   C     C_3   0.997906 0.501870 0.916130 0.269430
Cu1   Cu    Cu3+1 0.081750 0.475690 0.522550 0.934840
Cu2   Cu    Cu3+1 0.918250 0.524310 0.477450 0.926441
H1    H     H_    0.020999 0.357263 0.102647 0.167528
H2    H     H_    0.141404 0.482701 0.962969 0.167522
H3    H     H_    0.135470 0.468061 0.108187 0.166232
H4    H     H_    0.637616 0.841691 0.513404 0.170572
H5    H     H_    0.318033 0.760462 0.513487 0.153190
H6    H     H_    0.069767 0.853985 0.435684 0.147245
H7    H     H_    0.358432 0.160316 0.431505 0.148849
H8    H     H_    0.931412 0.149587 0.534749 0.161634
H9    H     H_    0.683860 0.236921 0.510864 0.148696
H10   H     H_    0.034909 0.365844 0.958307 0.169228
H11   H     H_    0.462149 0.796981 0.490215 0.143082
H12   H     H_    0.536132 0.207473 0.456815 0.147305
H13   H     H_    0.186303 0.032134 0.422149 0.134714
H14   H     H_    0.554513 0.714054 0.328615 0.140090
H15   H     H_    0.280588 0.552121 0.461649 0.122654
H16   H     H_    0.137283 0.320167 0.654699 0.126877
H17   H     H_    0.448372 0.289938 0.674969 0.139991
H18   H     H_    0.717284 0.729776 0.302420 0.130542
H19   H     H_    0.860173 0.675782 0.341876 0.126232
H20   H     H_    0.721977 0.451562 0.541614 0.122876
H21   H     H_    0.851074 0.507837 0.902431 0.108119
H22   H     H_    0.410612 0.632969 0.403004 0.129211
H23   H     H_    0.593351 0.372876 0.602110 0.123793
H24   H     H_    0.281861 0.268729 0.696341 0.138142
H25   H     H_    0.852820 0.369393 0.069283 0.164582
H26   H     H_    0.839622 0.486672 0.045691 0.158823
H27   H     H_    0.124678 0.650121 0.920562 0.163237
H28   H     H_    0.004063 0.657302 0.895702 0.160237
H29   H     H_    0.131976 0.635596 0.064898 0.121679
N1    N     N_R   0.795410 0.560790 0.443550 -0.179524
N2    N     N_R   0.204590 0.439170 0.556520 -0.176812
O1    O     O_R   0.977910 0.338120 0.529720 -0.589854
O2    O     O_R   0.839850 0.379180 0.491640 -0.587174
O3    O     O_R   0.069060 0.479460 0.639610 -0.574922
O4    O     O_R   0.931000 0.520530 0.601530 -0.587891
O5    O     O_R   0.160150 0.620820 0.508360 -0.589174
O6    O     O_R   0.022090 0.661880 0.470280 -0.601503
O7    O     O_R   0.069000 0.479470 0.398470 -0.580133
O8    O     O_R   0.930940 0.520540 0.360390 -0.570589
C51   C     C_R   0.013359 0.686303 0.055743 0.138404
C52   C     C_R   0.071442 0.748841 0.119961 -0.155283
C53   C     C_R   0.037935 0.815611 0.141532 -0.130887
C54   C     C_R   0.946385 0.821460 0.099053 -0.120290
C55   C     C_R   0.888249 0.760610 0.034868 -0.140995
C56   C     C_R   0.921189 0.693370 0.013284 -0.142285
H30   H     H_    0.142181 0.744869 0.154564 0.110925
H31   H     H_    0.082869 0.862571 0.191506 0.127809
H32   H     H_    0.920481 0.873131 0.115873 0.114297
H33   H     H_    0.817340 0.765354 0.001853 0.122281
H34   H     H_    0.874401 0.647579 0.963290 0.109037
C57   C     C_R   0.827740 0.952091 0.533754 0.096158
C58   C     C_R   0.851317 0.935618 0.459078 -0.154332
C59   C     C_R   0.887471 0.860112 0.465013 -0.138403
C60   C     C_R   0.900564 0.800884 0.545457 -0.093676
C61   C     C_R   0.877548 0.817338 0.620198 -0.143149
C62   C     C_R   0.841048 0.892756 0.614478 -0.153898
H35   H     H_    0.840364 0.980259 0.396260 0.124397
H36   H     H_    0.904343 0.847147 0.406882 0.112607
H37   H     H_    0.928166 0.742097 0.549867 0.156388
H38   H     H_    0.887431 0.771292 0.682398 0.125238
H39   H     H_    0.822272 0.904305 0.672451 0.127598
C63   C     C_R   0.821995 0.352769 0.903348 0.140828
C64   C     C_R   0.830903 0.260954 0.945569 -0.145963
C65   C     C_R   0.772710 0.170800 0.910927 -0.148672
C66   C     C_R   0.704960 0.170784 0.833904 -0.105432
C67   C     C_R   0.694876 0.260882 0.791503 -0.132485
C68   C     C_R   0.752713 0.351233 0.825893 -0.158538
H40   H     H_    0.882159 0.258130 0.005489 0.116777
H41   H     H_    0.780251 0.100797 0.943892 0.122534
H42   H     H_    0.660213 0.100931 0.807102 0.124871
H43   H     H_    0.642383 0.260740 0.731763 0.119290
H44   H     H_    0.744269 0.420333 0.791214 0.116275

loop_
_geom_bond_atom_site_label_1
_geom_bond_atom_site_label_2
_ccdc_geom_bond_type
C10   C27   A    
C48   H25   S    
C47   C63   S    
C37   H22   S    
C52   C53   A    
C41   C42   A    
C3    C48   S    
C36   C42   A    
C54   C55   A    
C9    C14   A    
C3    C6    S    
C30   H19   S    
C7    C8    T    
C13   H8    S    
C31   C32   A    
C28   H5    S    
C1    O1    A    
C26   C27   A    
C29   C30   A    
C31   N1    A    
C45   C50   S    
C36   C37   A    
C59   H36   S    
C24   C26   A    
C2    H3    S    
Cu1   O7    S    
C42   C46   A    
C58   H35   S    
C60   C61   A    
C15   C16   A    
C29   C33   A    
C45   H10   S    
C65   C66   A    
C18   C19   A    
C61   H38   S    
C48   H26   S    
C9    C13   A    
C34   O8    A    
C21   H12   S    
C67   C68   A    
C4    H29   S    
C35   C36   A    
C19   H11   S    
C61   C62   A    
C23   O6    A    
C57   C62   A    
C39   H23   S    
C5    H27   S    
C56   H34   S    
C20   H4    S    
C44   N2    A    
C21   C22   A    
C41   C43   A    
Cu2   O6    S    
C18   C25   A    
Cu1   O3    S    
C58   C59   A    
C51   C56   A    
C63   C64   A    
C47   C50   S    
C60   H37   S    
C2    C45   S    
C1    O2    A    
C40   H17   S    
Cu1   Cu2   S    
C32   C35   A    
C38   H14   S    
C1    C9    S    
C24   C25   A    
C47   H21   S    
C65   H41   S    
C22   H7    S    
C54   H32   S    
C68   H44   S    
C14   H9    S    
C27   H6    S    
C17   C21   A    
C25   C28   A    
C62   H39   S    
C30   N1    A    
C35   C39   A    
C66   H42   S    
C34   O7    A    
C37   C38   A    
C11   C16   A    
C47   C48   S    
C8    C12   S    
C55   C56   A    
C17   C18   A    
C16   C20   A    
C5    H28   S    
Cu2   N1    S    
C40   C41   A    
Cu2   O2    S    
C45   H2    S    
C23   O5    A    
C43   C44   A    
C22   C24   A    
C5    C50   S    
C44   H16   S    
C3    C4    S    
Cu1   N2    S    
C39   C40   A    
C29   H18   S    
C10   C28   A    
C43   H24   S    
C15   C17   A    
C31   H20   S    
C34   C49   S    
C12   O4    A    
C26   H13   S    
Cu2   O4    S    
C63   C68   A    
C7    C50   S    
C4    C5    S    
C2    H1    S    
Cu1   O5    S    
C10   C23   S    
C59   C60   A    
C33   C38   A    
C12   O3    A    
C32   C33   A    
C19   C20   A    
C2    C3    S    
C46   H15   S    
C66   C67   A    
C11   C13   A    
C53   H31   S    
Cu1   O1    S    
C51   C52   A    
C67   H43   S    
C6    C49   T    
C53   C54   A    
C46   N2    A    
C64   H40   S    
C57   C58   A    
C14   C15   A    
Cu2   O8    S    
C11   C57   S    
C55   H33   S    
C52   H30   S    
C64   C65   A    
C4    C51   S    
