data_mof_unit_52551.cif
_audit_creation_date              2012-10-26T20:18:56-0400
_audit_creation_method            fapswitch 2.2
_symmetry_space_group_name_H-M    P1
_symmetry_Int_Tables_number       1
_space_group_crystal_system       triclinic
_cell_length_a                    14.869289
_cell_length_b                    13.090326
_cell_length_c                    11.653186
_cell_angle_alpha                 98.871984
_cell_angle_beta                  94.348086
_cell_angle_gamma                 88.941831
_cell_volume                      2234.57952007

loop_
_atom_site_label
_atom_site_type_symbol
_atom_type_description
_atom_site_fract_x
_atom_site_fract_y
_atom_site_fract_z
_atom_type_partial_charge
C1    C     C_R   0.501816 0.298918 0.480278 0.579251
C2    C     C_R   0.473736 0.870961 0.639156 0.356811
C3    C     C_R   0.508314 0.134208 0.572164 -0.045461
C4    C     C_R   0.461282 0.862094 0.428167 -0.043211
C5    C     C_R   0.486674 0.027757 0.556512 -0.039303
C6    C     C_R   0.477789 0.969697 0.442741 -0.040587
C7    C     C_R   0.421422 0.395464 0.021873 -0.018796
C8    C     C_R   0.581047 0.602383 0.977369 -0.019104
C9    C     C_R   0.428798 0.407851 0.145199 0.099842
C10   C     C_R   0.573210 0.590111 0.854173 0.104130
C11   C     C_R   0.533071 0.543995 0.157192 0.024961
C12   C     C_R   0.492097 0.699996 0.519683 0.578056
C13   C     C_R   0.465798 0.457414 0.842865 0.028293
C14   C     C_R   0.529002 0.537293 0.034023 -0.006038
C15   C     C_R   0.471365 0.462765 0.965807 -0.005719
C16   C     C_R   0.328241 0.500160 0.500298 0.592352
C17   C     C_R   0.671983 0.500923 0.500538 0.601961
C18   C     C_R   0.816593 0.596935 0.518857 -0.064884
C19   C     C_R   0.184458 0.407911 0.500958 -0.062941
C20   C     C_R   0.770634 0.502182 0.505804 0.033214
C21   C     C_R   0.230516 0.501328 0.504873 0.031173
C22   C     C_R   0.816755 0.410752 0.522006 0.321178
C23   C     C_R   0.057641 0.325569 0.580109 0.023127
C24   C     C_R   0.188328 0.596638 0.538180 0.315930
C25   C     C_R   0.911039 0.410671 0.549076 0.025115
C26   C     C_R   0.096919 0.601549 0.564510 0.024322
C27   C     C_R   0.956798 0.505851 0.558000 -0.040611
C28   C     C_R   0.050923 0.506711 0.557925 -0.039622
C29   C     C_R   0.908713 0.599951 0.560937 0.002907
C30   C     C_R   0.098097 0.411648 0.544610 0.004430
C31   C     C_R   0.961563 0.321648 0.574878 0.052386
C32   C     C_R   0.050273 0.695856 0.603422 0.045861
C33   C     C_3   0.770951 0.687716 0.469116 -0.278547
C34   C     C_R   0.954756 0.692454 0.609749 0.021192
C35   C     C_3   0.763652 0.667474 0.336252 -0.435878
C36   C     C_3   0.222058 0.308609 0.434373 -0.276960
C37   C     C_3   0.214256 0.310971 0.303541 -0.432524
C38   C     C_3   0.363480 0.310521 0.949067 -0.301364
C39   C     C_3   0.316124 0.238610 0.016439 -0.451814
C40   C     C_3   0.644670 0.682092 0.048727 -0.301743
C41   C     C_3   0.695820 0.750011 0.980167 -0.447193
C42   C     C_3   0.914989 0.227354 0.604706 -0.221636
C43   C     C_3   0.869318 0.253751 0.719135 -0.420173
C44   C     C_3   0.100429 0.797911 0.639931 -0.221901
C45   C     C_R   0.476057 0.811948 0.528261 0.038324
C46   C     C_3   0.163226 0.797568 0.750760 -0.381707
C47   C     C_3   0.117849 0.250110 0.640498 -0.275668
C48   C     C_3   0.103982 0.256899 0.770301 -0.440054
C49   C     C_3   0.903266 0.777846 0.684091 -0.275565
C50   C     C_3   0.936052 0.792759 0.813282 -0.438184
C51   C     C_3   0.420378 0.805105 0.311184 -0.272218
C52   C     C_3   0.329298 0.756567 0.322668 -0.374315
C53   C     C_3   0.546669 0.188222 0.691854 -0.264594
C54   C     C_3   0.644156 0.221241 0.689008 -0.390851
C55   C     C_R   0.502887 0.185185 0.471730 0.027583
C56   C     C_R   0.489295 0.019763 0.346920 -0.096784
C57   C     C_R   0.473156 0.977281 0.651686 -0.099833
C58   C     C_R   0.497235 0.125731 0.360262 0.352304
Cu1   Cu    Cu3+1 0.506660 0.507730 0.615930 0.973992
Cu2   Cu    Cu3+1 0.493340 0.492270 0.384070 0.968149
F1    F     F_    0.768388 0.322211 0.502774 -0.686098
F2    F     F_    0.237210 0.682833 0.537419 -0.699552
F3    F     F_    0.470642 0.826494 0.736710 -0.630857
F4    F     F_    0.502121 0.169165 0.262304 -0.636023
H1    H     H_    0.494033 0.978379 0.259985 0.138092
H2    H     H_    0.703056 0.702715 0.502169 0.140967
H3    H     H_    0.809235 0.760388 0.492215 0.145124
H4    H     H_    0.248342 0.379109 0.281565 0.166151
H5    H     H_    0.245639 0.239769 0.258474 0.140297
H6    H     H_    0.142099 0.313369 0.271324 0.151134
H7    H     H_    0.293438 0.296467 0.465183 0.138854
H8    H     H_    0.184462 0.239008 0.444872 0.144558
H9    H     H_    0.365601 0.201016 0.073164 0.203924
H10   H     H_    0.264822 0.282604 0.068581 0.133567
H11   H     H_    0.281134 0.176615 0.954220 0.138100
H12   H     H_    0.463096 0.017917 0.737590 0.134387
H13   H     H_    0.310755 0.346924 0.895474 0.138109
H14   H     H_    0.407092 0.261303 0.889415 0.139312
H15   H     H_    0.740660 0.702035 0.921042 0.137253
H16   H     H_    0.647911 0.795266 0.929593 0.187127
H17   H     H_    0.738643 0.805301 0.041869 0.143475
H18   H     H_    0.605261 0.734488 0.110952 0.141840
H19   H     H_    0.695613 0.640349 0.098939 0.139287
H20   H     H_    0.813497 0.309836 0.711150 0.191479
H21   H     H_    0.917517 0.289338 0.790648 0.138971
H22   H     H_    0.842407 0.182276 0.743730 0.124883
H23   H     H_    0.420561 0.404261 0.787621 0.110775
H24   H     H_    0.866327 0.193848 0.532824 0.214881
H25   H     H_    0.962212 0.162366 0.613224 0.113777
H26   H     H_    0.223099 0.747352 0.735116 0.236578
H27   H     H_    0.127741 0.769496 0.820033 0.127732
H28   H     H_    0.187337 0.877316 0.783289 0.133619
H29   H     H_    0.138023 0.817245 0.567708 0.204215
H30   H     H_    0.053616 0.864241 0.656177 0.110599
H31   H     H_    0.086821 0.337135 0.809210 0.159560
H32   H     H_    0.051278 0.202657 0.784804 0.144719
H33   H     H_    0.166995 0.233500 0.816932 0.131676
H34   H     H_    0.575937 0.599671 0.212528 0.110612
H35   H     H_    0.109122 0.169506 0.595082 0.123898
H36   H     H_    0.190149 0.268580 0.638697 0.144327
H37   H     H_    0.958728 0.718185 0.840532 0.158379
H38   H     H_    0.991011 0.850124 0.832267 0.146038
H39   H     H_    0.880184 0.823972 0.866912 0.132880
H40   H     H_    0.905078 0.852065 0.649348 0.123088
H41   H     H_    0.831081 0.757548 0.682999 0.147498
H42   H     H_    0.336242 0.693384 0.375506 0.237735
H43   H     H_    0.282420 0.816187 0.363238 0.169817
H44   H     H_    0.299184 0.723468 0.234970 0.123713
H45   H     H_    0.611759 0.636947 0.807480 0.149437
H46   H     H_    0.404505 0.857138 0.246266 0.132524
H47   H     H_    0.468071 0.747254 0.270119 0.162399
H48   H     H_    0.650753 0.278804 0.630192 0.238451
H49   H     H_    0.670115 0.256303 0.777993 0.125567
H50   H     H_    0.686250 0.152611 0.659483 0.156162
H51   H     H_    0.503311 0.253248 0.726448 0.156736
H52   H     H_    0.550599 0.138814 0.760441 0.133877
H53   H     H_    0.391820 0.359063 0.191245 0.153393
H54   H     H_    0.832061 0.663544 0.303445 0.153461
H55   H     H_    0.728681 0.593917 0.302078 0.170060
H56   H     H_    0.725468 0.731734 0.302690 0.127998
N1    N     N_R   0.516670 0.519360 0.790130 -0.245726
N2    N     N_R   0.483330 0.480640 0.209870 -0.246477
O1    O     O_R   0.504720 0.354460 0.582000 -0.545129
O2    O     O_R   0.495280 0.645540 0.418000 -0.548452
O3    O     O_R   0.493480 0.341410 0.386200 -0.424401
O4    O     O_R   0.506520 0.658590 0.613800 -0.432599
O5    O     O_R   0.375880 0.506510 0.597910 -0.489506
O6    O     O_R   0.624120 0.493490 0.402090 -0.488011
O7    O     O_R   0.364640 0.493450 0.402110 -0.530781
O8    O     O_R   0.635360 0.506550 0.597890 -0.520518

loop_
_geom_bond_atom_site_label_1
_geom_bond_atom_site_label_2
_ccdc_geom_bond_type
C25   C31   A    
C37   H4    S    
Cu1   O8    S    
C26   C32   A    
C16   C21   S    
C48   H31   S    
C37   H5    S    
C27   C29   A    
C9    H53   S    
C35   H55   S    
C10   N1    A    
C41   H16   S    
C2    C57   A    
C53   C54   S    
Cu1   O4    S    
C48   H33   S    
C11   H34   S    
C57   H12   S    
C36   C37   S    
C19   C21   A    
C1    O3    A    
C19   C36   S    
C38   C39   S    
C11   C14   A    
C12   O4    A    
Cu1   O5    S    
C56   H1    S    
C54   H49   S    
C17   C20   S    
C47   H35   S    
C10   H45   S    
C39   H10   S    
Cu2   O2    S    
C44   H29   S    
C3    C55   A    
C52   H43   S    
C22   C25   A    
C24   F2    S    
C39   H11   S    
C36   H7    S    
C7    C15   A    
C52   H42   S    
Cu1   Cu2   S    
C37   H6    S    
C58   F4    S    
C43   H20   S    
C40   H19   S    
C35   H56   S    
C49   H40   S    
C16   O5    A    
C44   C46   S    
C33   H2    S    
C4    C45   A    
C2    C45   A    
Cu1   O1    S    
C23   C47   S    
C4    C51   S    
C51   C52   S    
C43   H21   S    
C23   C30   A    
C40   H18   S    
Cu2   O6    S    
C4    C6    A    
C6    C56   A    
C49   H41   S    
C46   H27   S    
C38   H14   S    
C29   C34   A    
C47   H36   S    
C32   C34   A    
C1    O1    A    
C13   N1    A    
C47   C48   S    
C12   O2    A    
C41   H17   S    
C13   H23   S    
C9    N2    A    
C32   C44   S    
C54   H48   S    
C18   C29   A    
Cu2   N2    S    
C16   O7    A    
C40   C41   S    
C20   C22   A    
C50   H38   S    
C51   H46   S    
C13   C15   A    
C8    C14   A    
C21   C24   A    
C11   N2    A    
C42   H24   S    
C42   C43   S    
C2    F3    S    
C33   H3    S    
C7    C9    A    
Cu2   O3    S    
C34   C49   S    
C51   H47   S    
C48   H32   S    
C17   O8    A    
C43   H22   S    
C24   C26   A    
C12   C45   S    
C3    C5    A    
Cu2   O7    S    
C41   H15   S    
C53   H52   S    
C17   O6    A    
C46   H26   S    
C38   H13   S    
C25   C27   A    
C26   C28   A    
C5    C57   A    
C42   H25   S    
C28   C30   A    
C1    C55   S    
C22   F1    S    
C3    C53   S    
C5    C6    A    
C31   C42   S    
C54   H50   S    
C33   C35   S    
C7    C38   S    
C56   C58   A    
C18   C20   A    
C39   H9    S    
C18   C33   S    
C44   H30   S    
Cu1   N1    S    
C53   H51   S    
C50   H39   S    
C46   H28   S    
C52   H44   S    
C50   H37   S    
C8    C10   A    
C49   C50   S    
C55   C58   A    
C27   C28   A    
C14   C15   A    
C35   H54   S    
C8    C40   S    
C19   C30   A    
C36   H8    S    
C23   C31   A    
