data_mof_unit_50453.cif
_audit_creation_date              2012-12-11T14:17:50-0500
_audit_creation_method            fapswitch 2.2
_symmetry_space_group_name_H-M    P1
_symmetry_Int_Tables_number       1
_space_group_crystal_system       triclinic
_cell_length_a                    11.21249
_cell_length_b                    11.092523
_cell_length_c                    18.840403
_cell_angle_alpha                 90.717084
_cell_angle_beta                  90.242173
_cell_angle_gamma                 120.605463
_cell_volume                      2016.52756703

loop_
_atom_site_label
_atom_site_type_symbol
_atom_type_description
_atom_site_fract_x
_atom_site_fract_y
_atom_site_fract_z
_atom_type_partial_charge
C1    C     C_R   0.520763 0.454053 0.145861 0.535458
C2    C     C_R   0.090973 0.501919 0.523131 -0.099791
C3    C     C_R   0.390157 0.905311 0.527148 -0.149691
C4    C     C_R   0.465894 0.628615 0.515005 -0.105545
C5    C     C_R   0.741791 0.149618 0.600757 -0.123497
C6    C     C_R   0.826459 0.549515 0.613669 -0.152597
C7    C     C_R   0.275113 0.253567 0.562653 -0.070393
C8    C     C_R   0.804422 0.607901 0.474111 -0.177771
C9    C     C_R   0.796075 0.163961 0.459189 -0.184376
C10   C     C_R   0.437020 0.250893 0.457428 -0.094933
C11   C     C_R   0.874275 0.180036 0.580050 0.348543
C12   C     C_R   0.545796 0.066745 0.145811 0.534508
C13   C     C_R   0.794533 0.653721 0.600161 0.340791
C14   C     C_R   0.235786 0.125408 0.527984 0.274826
C15   C     C_R   0.784020 0.683500 0.529458 0.338537
C16   C     C_R   0.902422 0.187668 0.507362 0.300867
C17   C     C_R   0.311109 0.128203 0.467809 0.308687
C18   C     C_R   0.518000 0.458828 0.352977 0.509683
C19   C     C_R   0.550763 0.069073 0.355696 0.536727
C20   C     C_R   0.878776 0.457652 0.361748 0.539496
C21   C     C_R   0.415659 0.545098 0.639111 0.555099
C22   C     C_R   0.066467 0.544258 0.645930 0.530992
C23   C     C_R   0.932216 0.478566 0.145650 0.544529
C24   C     C_R   0.479497 0.935401 0.646701 0.514453
C25   C     C_R   0.499761 0.007120 0.922361 -0.004456
C26   C     C_R   0.996791 0.493718 0.922441 -0.003953
C27   C     C_R   0.506274 0.502770 0.922843 -0.006693
C28   C     C_R   0.971793 0.492103 0.070836 0.002140
C29   C     C_R   0.519975 0.026696 0.070711 0.004266
C30   C     C_R   0.506064 0.480171 0.071210 0.004151
C31   C     C_R   0.383796 0.987168 0.963036 0.032066
C32   C     C_R   0.017079 0.397851 0.963565 0.031733
C33   C     C_R   0.602437 0.620267 0.965354 0.030462
C34   C     C_R   0.459527 0.520220 0.852450 0.547149
C35   C     C_R   0.018973 0.408704 0.038686 0.017562
C36   C     C_R   0.390357 0.981645 0.037851 0.017300
C37   C     C_R   0.591452 0.612097 0.040299 0.019953
C38   C     C_R   0.637812 0.068563 0.028717 -0.132874
C39   C     C_R   0.930867 0.568099 0.027987 -0.135859
C40   C     C_R   0.429205 0.361430 0.027246 -0.135613
C41   C     C_R   0.946485 0.571726 0.955343 -0.147570
C42   C     C_R   0.627305 0.055957 0.955925 -0.149000
C43   C     C_R   0.426980 0.373022 0.954535 -0.146270
C44   C     C_R   0.260875 0.970330 0.932007 -0.083736
C45   C     C_R   0.061088 0.540724 0.852349 0.542877
C46   C     C_R   0.037212 0.292626 0.932802 -0.085909
C47   C     C_R   0.708601 0.745846 0.936060 -0.088202
C48   C     C_R   0.066561 0.334676 0.079212 -0.099253
C49   C     C_R   0.267691 0.933286 0.077380 -0.095378
C50   C     C_R   0.667869 0.735704 0.081950 -0.095181
C51   C     C_R   0.142667 0.927748 0.972248 -0.134723
C52   C     C_R   0.079740 0.217843 0.973893 -0.134401
C53   C     C_R   0.786996 0.864469 0.978432 -0.136499
C54   C     C_R   0.096148 0.239814 0.046802 -0.128701
C55   C     C_R   0.145345 0.907470 0.044617 -0.128179
C56   C     C_R   0.480763 0.940111 0.852144 0.543863
C57   C     C_R   0.765340 0.860397 0.051030 -0.127870
C58   C     C_R   0.496239 0.989123 0.575933 0.012933
C59   C     C_R   0.005337 0.502226 0.576691 0.040044
C60   C     C_R   0.424174 0.519766 0.563311 0.020012
C61   C     C_R   0.928293 0.486678 0.435445 0.002563
C62   C     C_R   0.539060 0.029345 0.430665 0.022860
C63   C     C_R   0.496105 0.488694 0.426021 0.013102
C64   C     C_R   0.629904 0.083669 0.552322 -0.021361
C65   C     C_R   0.891200 0.515008 0.560016 -0.043104
C66   C     C_R   0.382696 0.383701 0.535942 -0.017719
C67   C     C_R   0.414935 0.919581 0.455006 -0.121805
C68   C     C_R   0.865623 0.527865 0.488605 -0.063112
C69   C     C_R   0.655151 0.097287 0.479385 -0.049215
C70   C     C_R   0.446914 0.377819 0.474833 -0.047874
C71   C     C_3   0.936150 0.152930 0.695562 -0.099909
C72   C     C_3   0.818057 0.720885 0.721593 -0.108462
C73   C     C_3   0.132775 0.979095 0.621827 -0.104430
C74   C     C_3   0.806879 0.869466 0.463692 -0.124298
C75   C     C_3   0.053652 0.205508 0.413944 -0.132193
C76   C     C_3   0.130704 0.916178 0.415247 -0.089186
C77   C     C_R   0.052488 0.493712 0.452641 -0.129393
C78   C     C_R   0.493777 0.609868 0.444551 -0.120244
Cr1   Cr    Cr6+3 0.768550 0.541320 0.250660 0.980383
Cr2   Cr    Cr6+3 0.458680 0.227230 0.250660 1.021702
Cr3   Cr    Cr6+3 0.772770 0.231450 0.250660 0.973535
Cr4   Cr    Cr6+3 0.541320 0.768550 0.749340 1.013988
Cr5   Cr    Cr6+3 0.227230 0.458680 0.749340 0.994019
Cr6   Cr    Cr6+3 0.231450 0.772770 0.749340 0.951848
H1    H     H_    0.740363 0.112321 0.052012 0.154062
H2    H     H_    0.083440 0.350550 0.135910 0.132686
H3    H     H_    0.264360 0.913219 0.133541 0.133735
H4    H     H_    0.652339 0.737879 0.138426 0.130797
H5    H     H_    0.048362 0.909384 0.946745 0.094799
H6    H     H_    0.100319 0.142808 0.948558 0.096819
H7    H     H_    0.863717 0.960155 0.954285 0.099167
H8    H     H_    0.129914 0.181727 0.078493 0.119059
H9    H     H_    0.052891 0.873405 0.075647 0.118768
H10   H     H_    0.825387 0.953618 0.083623 0.118283
H11   H     H_    0.334570 0.849333 0.417969 0.140528
H12   H     H_    0.885950 0.626053 0.050589 0.151900
H13   H     H_    0.121119 0.496565 0.411755 0.125442
H14   H     H_    0.522037 0.692277 0.406535 0.111852
H15   H     H_    0.187973 0.509080 0.536027 0.132602
H16   H     H_    0.290985 0.820951 0.544883 0.134181
H17   H     H_    0.482815 0.729052 0.532544 0.149905
H18   H     H_    0.721690 0.160353 0.655797 0.103040
H19   H     H_    0.828700 0.517571 0.667399 0.102721
H20   H     H_    0.204880 0.246777 0.602575 0.233835
H21   H     H_    0.788657 0.624295 0.420355 0.163971
H22   H     H_    0.827436 0.185554 0.406477 0.186456
H23   H     H_    0.370096 0.257483 0.048994 0.151323
H24   H     H_    0.510999 0.253256 0.421157 0.158243
H25   H     H_    0.899969 0.213859 0.726554 0.107081
H26   H     H_    0.855645 0.039787 0.692048 0.152310
H27   H     H_    0.025765 0.162140 0.725598 0.099106
H28   H     H_    0.740272 0.616101 0.741627 0.124876
H29   H     H_    0.924750 0.738920 0.725351 0.109831
H30   H     H_    0.815051 0.800278 0.756665 0.106157
H31   H     H_    0.081371 0.021972 0.654866 0.133255
H32   H     H_    0.241728 0.022505 0.640391 0.116324
H33   H     H_    0.077554 0.865095 0.629584 0.185571
H34   H     H_    0.923492 0.639947 0.925007 0.127812
H35   H     H_    0.819013 0.823280 0.414035 0.066488
H36   H     H_    0.741931 0.912755 0.447711 0.143978
H37   H     H_    0.906489 0.953700 0.485026 0.219270
H38   H     H_    0.975657 0.100495 0.393255 0.068309
H39   H     H_    0.157374 0.219317 0.406016 0.172675
H40   H     H_    0.050272 0.284109 0.380335 0.129963
H41   H     H_    0.114328 0.846701 0.460609 0.171301
H42   H     H_    0.058665 0.955110 0.413212 0.120845
H43   H     H_    0.110453 0.851081 0.366566 0.140852
H44   H     H_    0.718586 0.078926 0.925955 0.129072
H45   H     H_    0.358494 0.280467 0.923075 0.129699
H46   H     H_    0.255027 0.994148 0.877164 0.124847
H47   H     H_    0.015643 0.262147 0.877498 0.120299
H48   H     H_    0.736941 0.753427 0.881010 0.114774
O1    O     O_R   0.910960 0.572410 0.171010 -0.522511
O2    O     O_R   0.528530 0.639750 0.824400 -0.515904
O3    O     O_R   0.111220 0.471470 0.824400 -0.516878
O4    O     O_R   0.360250 0.888780 0.824400 -0.508720
O5    O     O_R   0.909330 0.572400 0.331540 -0.540704
O6    O     O_R   0.427600 0.336930 0.331540 -0.512769
O7    O     O_R   0.663070 0.090670 0.331540 -0.567525
O8    O     O_R   0.572400 0.909330 0.668460 -0.512425
O9    O     O_R   0.336930 0.427600 0.668460 -0.551965
O10   O     O_R   0.090670 0.663070 0.668460 -0.565065
O11   O     O_R   0.638240 0.528520 0.324410 -0.535874
O12   O     O_R   0.427590 0.338550 0.171010 -0.525520
O13   O     O_R   0.471480 0.109720 0.324410 -0.454908
O14   O     O_R   0.890280 0.361760 0.324410 -0.527505
O15   O     O_R   0.528520 0.638240 0.675590 -0.428468
O16   O     O_R   0.109720 0.471480 0.675590 -0.477746
O17   O     O_R   0.361760 0.890280 0.675590 -0.532120
O18   O     O_3   0.666667 0.333333 0.250630 -0.267564
O19   O     O_3   0.333333 0.666667 0.749370 -0.268851
O20   O     O_3   0.981676 0.210586 0.627690 -0.545181
O21   O     O_3   0.784388 0.739480 0.651867 -0.513359
O22   O     O_3   0.120859 0.002500 0.549482 -0.592649
O23   O     O_R   0.661450 0.089040 0.171010 -0.525803
O24   O     O_3   0.738786 0.776619 0.518594 -0.537986
O25   O     O_3   0.037127 0.225472 0.487109 -0.558782
O26   O     O_3   0.267618 0.028501 0.412932 -0.570940
O27   O     O_R   0.572410 0.910960 0.828990 -0.528727
O28   O     O_R   0.338550 0.427590 0.828990 -0.520422
O29   O     O_R   0.089040 0.661450 0.828990 -0.527618
O30   O     O_R   0.639750 0.528530 0.175600 -0.511754
O31   O     O_R   0.471470 0.111220 0.175600 -0.508885
O32   O     O_R   0.888780 0.360250 0.175600 -0.506231

loop_
_geom_bond_atom_site_label_1
_geom_bond_atom_site_label_2
_ccdc_geom_bond_type
C25   C31   A    
C72   H28   S    
C26   C32   A    
C37   C50   A    
C46   C52   A    
C12   C29   S    
C75   H38   S    
C76   H42   S    
C49   H3    S    
C10   H24   S    
C25   C56   S    
C55   H9    S    
C8    H21   S    
Cr4   O15   S    
C39   C41   A    
C27   C33   A    
Cr2   O18   S    
C74   H35   S    
C29   C36   A    
C76   O26   S    
C19   O13   A    
C73   H32   S    
C62   C67   A    
C75   H39   S    
C21   O15   A    
C18   O11   A    
C9    C16   A    
C9    C69   A    
C38   C42   A    
C56   O27   A    
C18   C63   S    
C34   O2    A    
C19   C62   S    
C44   H46   S    
Cr3   O18   S    
C71   H26   S    
C72   H30   S    
C62   C69   A    
C20   C61   S    
C18   O6    A    
C45   O29   A    
Cr4   O8    S    
C26   C45   S    
C52   H6    S    
C3    H16   S    
C7    C14   A    
Cr1   O11   S    
Cr5   O28   S    
C28   C35   A    
C61   C77   A    
Cr2   O12   S    
C71   H27   S    
C73   O22   S    
C78   H14   S    
C77   H13   S    
Cr4   O2    S    
C41   H34   S    
Cr5   O3    S    
Cr4   O19   S    
C50   H4    S    
C47   C53   A    
Cr6   O17   S    
C75   O25   S    
C60   C66   A    
C14   O22   S    
C67   H11   S    
C76   H41   S    
C14   C17   A    
C22   O10   A    
C35   C48   A    
C56   O4    A    
C52   C54   A    
Cr5   O19   S    
C6    C65   A    
C27   C34   S    
C58   C64   A    
Cr1   O1    S    
C45   O3    A    
C73   H33   S    
C31   C44   A    
C23   O1    A    
C38   H1    S    
C30   C40   A    
C75   H40   S    
C32   C35   A    
C43   H45   S    
C21   C60   S    
C22   C59   S    
Cr5   O9    S    
C53   C57   A    
C2    C59   A    
C48   H2    S    
C28   C39   A    
C9    H22   S    
C49   C55   A    
C72   H29   S    
C24   O8    A    
C5    C64   A    
C20   O5    A    
C29   C38   A    
C48   C54   A    
C3    C58   A    
Cr2   O31   S    
C4    C78   A    
C11   C16   A    
C71   O20   S    
C63   C70   A    
Cr6   O10   S    
C65   C68   A    
C4    H17   S    
C4    C60   A    
C64   C69   A    
C74   O24   S    
C6    H19   S    
C17   O26   S    
C13   O21   S    
C15   O24   S    
C40   H23   S    
C53   H7    S    
C10   C70   A    
C44   C51   A    
C19   O7    A    
Cr2   O13   S    
Cr1   O5    S    
C22   O16   A    
C2    H15   S    
C8    C68   A    
C8    C15   A    
C57   H10   S    
C13   C15   A    
C33   C47   A    
Cr3   O32   S    
C20   O14   A    
C23   C28   S    
Cr1   O30   S    
C10   C17   A    
C46   H47   S    
C23   O32   A    
Cr3   O7    S    
C5    H18   S    
Cr6   O4    S    
C72   O21   S    
C16   O25   S    
C50   C57   A    
C32   C46   A    
C3    C67   A    
Cr3   O23   S    
C25   C42   A    
C1    O30   A    
C5    C11   A    
C42   H44   S    
C74   H36   S    
C73   H31   S    
C47   H48   S    
C7    H20   S    
C40   C43   A    
C21   O9    A    
Cr1   O18   S    
C1    O12   A    
C51   H5    S    
C7    C66   A    
Cr4   O27   S    
C61   C68   A    
C66   C70   A    
Cr2   O6    S    
C71   H25   S    
C1    C30   S    
C51   C55   A    
C33   C37   A    
C39   H12   S    
C12   O31   A    
C24   O17   A    
Cr6   O29   S    
Cr5   O16   S    
Cr6   O19   S    
C27   C43   A    
C11   O20   S    
C74   H37   S    
C30   C37   A    
C24   C58   S    
Cr3   O14   S    
C2    C77   A    
C76   H43   S    
C31   C36   A    
C12   O23   A    
C54   H8    S    
C59   C65   A    
C36   C49   A    
C26   C41   A    
C6    C13   A    
C63   C78   A    
C34   O28   A    
