data_mof_unit_57604.cif
_audit_creation_date              2012-12-10T20:48:16-0500
_audit_creation_method            fapswitch 2.2
_symmetry_space_group_name_H-M    P1
_symmetry_Int_Tables_number       1
_space_group_crystal_system       triclinic
_cell_length_a                    11.089047
_cell_length_b                    9.047456
_cell_length_c                    8.524494
_cell_angle_alpha                 88.631936
_cell_angle_beta                  92.521358
_cell_angle_gamma                 90.238772
_cell_volume                      854.166901254

loop_
_atom_site_label
_atom_site_type_symbol
_atom_type_description
_atom_site_fract_x
_atom_site_fract_y
_atom_site_fract_z
_atom_type_partial_charge
C1    C     C_R   0.500949 0.219488 0.501159 1.015573
C2    C     C_R   0.258279 0.504572 0.498265 0.974972
C3    C     C_R   0.740621 0.511277 0.501538 0.908097
C4    C     C_R   0.501933 0.780494 0.499116 1.034796
C5    C     C_1   0.502547 0.065304 0.501749 -0.105628
C6    C     C_3   0.075251 0.388993 0.630982 -0.318615
C7    C     C_3   0.066234 0.454440 0.327977 -0.373065
C8    C     C_3   0.931243 0.411502 0.643388 -0.304765
C9    C     C_3   0.918834 0.471111 0.326971 -0.266440
C10   C     C_1   0.502871 0.934749 0.498831 -0.110547
C11   C     C_3   0.075737 0.690501 0.530876 -0.223948
C12   C     C_3   0.921703 0.698132 0.527073 -0.237870
C13   C     C_3   0.120676 0.512617 0.498524 -0.201181
C14   C     C_3   0.877146 0.522931 0.501018 -0.234103
N1    N     N_1   0.500000 0.500030 0.073640 0.018843
N2    N     N_1   0.500000 0.500030 0.926360 0.013268
O1    O     O_R   0.500000 0.285340 0.636850 -0.594813
O2    O     O_R   0.500000 0.285340 0.363150 -0.603017
O3    O     O_R   0.314790 0.499970 0.636880 -0.562376
O4    O     O_R   0.314790 0.499970 0.363120 -0.566047
O5    O     O_R   0.685210 0.499970 0.636880 -0.546378
O6    O     O_R   0.685210 0.499970 0.363120 -0.563631
O7    O     O_R   0.500000 0.714650 0.636900 -0.581355
O8    O     O_R   0.500000 0.714650 0.363100 -0.577235
Zn1   Zn    Zn3+2 0.500000 0.499990 0.682780 1.127899
Zn2   Zn    Zn3+2 0.500000 0.499990 0.317220 1.123591
C15   C     C_2   0.139300 0.385922 0.798704 1.070539
O9    O     O_2   0.132029 0.274624 0.882904 -0.563870
O10   O     O_R   0.206745 0.503073 0.859356 -0.708246
H1    H     H_    0.263719 0.470433 0.949749 0.340395
C16   C     C_2   0.111142 0.534677 0.184234 0.992967
O11   O     O_2   0.064681 0.492725 0.064252 -0.639988
O12   O     O_R   0.197998 0.646040 0.175034 -0.741155
H2    H     H_    0.203344 0.693249 0.066653 0.375964
C17   C     C_2   0.908511 0.488319 0.794799 0.972210
O13   O     O_2   0.826012 0.453275 0.878898 -0.512376
O14   O     O_R   0.981704 0.604379 0.835513 -0.773450
H3    H     H_    0.944196 0.671020 0.909908 0.395222
C18   C     C_2   0.870626 0.587866 0.195550 1.004078
O15   O     O_2   0.773077 0.575255 0.124635 -0.493171
O16   O     O_R   0.935224 0.716231 0.160796 -0.794876
H4    H     H_    0.885558 0.794333 0.099632 0.352685
C19   C     C_2   0.115694 0.229575 0.589853 0.932040
O17   O     O_2   0.045058 0.131431 0.554089 -0.475775
O18   O     O_R   0.238379 0.192180 0.608485 -0.792608
H5    H     H_    0.253940 0.084054 0.588355 0.362839
C20   C     C_2   0.114798 0.295693 0.279389 0.963524
O19   O     O_2   0.218481 0.259062 0.313377 -0.580531
O20   O     O_R   0.054992 0.201493 0.172781 -0.666074
H6    H     H_    0.994821 0.248983 0.095516 0.379986
C21   C     C_2   0.864359 0.262721 0.675626 1.094730
O21   O     O_2   0.770449 0.227862 0.605627 -0.614136
O22   O     O_R   0.902064 0.178814 0.809054 -0.710112
H7    H     H_    0.835837 0.112619 0.849804 0.366526
C22   C     C_2   0.856442 0.321635 0.285494 0.928374
O23   O     O_2   0.880807 0.211502 0.362714 -0.512600
O24   O     O_R   0.775385 0.305634 0.156024 -0.710022
H8    H     H_    0.743941 0.200848 0.144269 0.343357
C23   C     C_2   0.140534 0.756577 0.683964 1.031837
O25   O     O_2   0.249443 0.743879 0.707232 -0.581240
O26   O     O_R   0.085822 0.852342 0.784393 -0.707566
H9    H     H_    0.142295 0.892233 0.870353 0.369466
C24   C     C_2   0.139686 0.796245 0.411220 0.971175
O27   O     O_2   0.249909 0.805909 0.418747 -0.641178
O28   O     O_R   0.082682 0.880799 0.292113 -0.647394
H10   H     H_    0.140634 0.938340 0.224743 0.400210
C25   C     C_2   0.861100 0.782862 0.663056 0.906307
O29   O     O_2   0.888798 0.911009 0.689282 -0.500155
O30   O     O_R   0.761452 0.728591 0.740593 -0.785084
H11   H     H_    0.729802 0.799304 0.819622 0.344217
C26   C     C_2   0.856517 0.809057 0.409909 0.926801
O31   O     O_2   0.894672 0.934285 0.391296 -0.424696
O32   O     O_R   0.739038 0.782485 0.351577 -0.837316
H12   H     H_    0.705084 0.866818 0.282728 0.342146

loop_
_geom_bond_atom_site_label_1
_geom_bond_atom_site_label_2
_ccdc_geom_bond_type
C8    C14   S    
C9    C14   S    
C16   O12   S    
O14   H3    S    
C9    C22   S    
C15   O10   S    
C11   C13   S    
O32   H12   S    
C1    O1    A    
C16   O11   D    
O2    Zn2   S    
C7    C13   S    
C19   O17   D    
O1    Zn1   S    
C26   O31   D    
C11   C23   S    
C22   O23   D    
C24   O28   S    
O12   H2    S    
C1    O2    A    
C23   O25   D    
C18   O16   S    
C22   O24   S    
O22   H7    S    
C6    C13   S    
C21   O21   D    
C19   O18   S    
C8    C21   S    
O24   H8    S    
O10   H1    S    
C3    C14   S    
O4    Zn2   S    
C1    C5    S    
N2    Zn1   S    
C5    C10   T    
C17   O14   S    
C12   C26   S    
C12   C14   S    
O20   H6    S    
C11   C24   S    
C6    C19   S    
O7    Zn1   S    
O6    Zn2   S    
O26   H9    S    
C4    O8    A    
C12   C25   S    
O30   H11   S    
C3    O5    A    
C23   O26   S    
N1    N2    T    
O3    Zn1   S    
C2    O4    A    
C25   O29   D    
C18   O15   D    
C20   O19   D    
C7    C9    S    
C9    C18   S    
C7    C16   S    
C21   O22   S    
C20   O20   S    
O28   H10   S    
O16   H4    S    
C15   O9    D    
C26   O32   S    
C2    C13   S    
O5    Zn1   S    
N1    Zn2   S    
C6    C8    S    
C17   O13   D    
C25   O30   S    
C2    O3    A    
O18   H5    S    
C4    C10   S    
C4    O7    A    
C6    C15   S    
C11   C12   S    
O8    Zn2   S    
C24   O27   D    
C3    O6    A    
C8    C17   S    
C7    C20   S    
