data_mof_unit_21044.cif
_audit_creation_date              2013-03-05T16:36:13-0500
_audit_creation_method            fapswitch 2.2
_symmetry_space_group_name_H-M    P1
_symmetry_Int_Tables_number       1
_space_group_crystal_system       triclinic
_cell_length_a                    27.833934
_cell_length_b                    9.079982
_cell_length_c                    7.780272
_cell_angle_alpha                 90.037265
_cell_angle_beta                  89.999989
_cell_angle_gamma                 90.00004
_cell_volume                      1966.32032844

loop_
_atom_site_label
_atom_site_type_symbol
_atom_site_description
_atom_site_fract_x
_atom_site_fract_y
_atom_site_fract_z
_atom_type_partial_charge
O1    O     O_R   0.500000 0.288390 0.642760 -0.575247
O2    O     O_R   0.500000 0.711610 0.357240 -0.575247
O3    O     O_R   0.500000 0.711610 0.642760 -0.574858
O4    O     O_R   0.500000 0.288390 0.357240 -0.574858
C1    C     C_R   0.500000 0.220022 0.499966 0.853127
C2    C     C_R   0.500000 0.779978 0.500034 0.853127
O5    O     O_R   0.430260 0.500000 0.642770 -0.585701
O6    O     O_R   0.569740 0.500000 0.357230 -0.585703
O7    O     O_R   0.569740 0.500000 0.642770 -0.585703
O8    O     O_R   0.430260 0.500000 0.357230 -0.585701
C3    C     C_R   0.407180 0.500000 0.500000 0.796681
C4    C     C_R   0.592820 0.500000 0.500000 0.796683
Cu1   Cu    Cu3+1 0.500000 0.500000 0.669080 1.007978
Cu2   Cu    Cu3+1 0.500000 0.500000 0.330920 1.007978
C5    C     C_R   0.178019 0.370872 0.527390 0.536962
C6    C     C_R   0.821978 0.629127 0.472594 0.536982
C7    C     C_R   0.178019 0.629132 0.472610 0.536962
C8    C     C_R   0.821978 0.370872 0.527405 0.536982
O9    O     O_2   0.202886 0.245213 0.553331 -0.516482
O10   O     O_2   0.797109 0.754777 0.446622 -0.516446
O11   O     O_2   0.202886 0.754790 0.446670 -0.516482
O12   O     O_2   0.797109 0.245222 0.553377 -0.516446
N1    N     N_R   0.202053 0.500002 0.500000 -0.472540
N2    N     N_R   0.797945 0.499999 0.499999 -0.472568
C9    C     C_R   0.278655 0.491179 0.655490 -0.099463
C10   C     C_R   0.721346 0.508305 0.344466 -0.099520
C11   C     C_R   0.278655 0.508824 0.344510 -0.099463
C12   C     C_R   0.721346 0.491693 0.655533 -0.099520
C13   C     C_R   0.328755 0.491487 0.655718 -0.205972
C14   C     C_R   0.671246 0.508003 0.344239 -0.205912
C15   C     C_R   0.328755 0.508515 0.344282 -0.205972
C16   C     C_R   0.671246 0.491997 0.655761 -0.205912
C17   C     C_R   0.253514 0.500002 0.500000 0.360580
C18   C     C_R   0.746485 0.499999 0.499999 0.360739
C19   C     C_R   0.101923 0.500001 0.500000 -0.043339
C20   C     C_R   0.898074 0.500000 0.500000 -0.043334
C21   C     C_R   0.127580 0.368419 0.527667 -0.020648
C22   C     C_R   0.872417 0.631581 0.472322 -0.020664
C23   C     C_R   0.127580 0.631584 0.472333 -0.020648
C24   C     C_R   0.872417 0.368418 0.527677 -0.020664
C25   C     C_R   0.102534 0.237434 0.554696 -0.145234
C26   C     C_R   0.897463 0.762564 0.445283 -0.145237
C27   C     C_R   0.102534 0.762568 0.445304 -0.145234
C28   C     C_R   0.897463 0.237436 0.554716 -0.145237
C29   C     C_R   0.354270 0.500000 0.500000 -0.037806
C30   C     C_R   0.645730 0.500000 0.500000 -0.037811
H1    H     H_    0.347451 0.515229 0.222418 0.160690
H2    H     H_    0.652551 0.485696 0.777661 0.160673
H3    H     H_    0.347451 0.484772 0.777582 0.160690
H4    H     H_    0.652551 0.514303 0.222339 0.160673
H5    H     H_    0.259312 0.515449 0.223947 0.136806
H6    H     H_    0.740690 0.485471 0.776128 0.136708
H7    H     H_    0.259312 0.484554 0.776053 0.136806
H8    H     H_    0.740690 0.514527 0.223871 0.136708
H9    H     H_    0.121425 0.134720 0.576127 0.187087
H10   H     H_    0.878571 0.865276 0.423843 0.187086
H11   H     H_    0.121425 0.865282 0.423873 0.187087
H12   H     H_    0.878572 0.134724 0.576156 0.187086
C31   C     C_R   0.974436 0.365853 0.527790 0.045041
C32   C     C_R   0.025561 0.634149 0.472214 0.045042
C33   C     C_R   0.974435 0.634148 0.472210 0.045041
C34   C     C_R   0.025561 0.365852 0.527786 0.045042
C35   C     C_R   0.949214 0.500000 0.500000 0.067299
C36   C     C_R   0.050783 0.500001 0.500000 0.067295
C37   C     C_R   0.947322 0.235790 0.554788 -0.208228
C38   C     C_R   0.052675 0.764214 0.445229 -0.208229
C39   C     C_R   0.947321 0.764211 0.445212 -0.208227
C40   C     C_R   0.052675 0.235788 0.554771 -0.208229
C41   C     C_1   0.500000 0.065394 0.499953 -0.166724
C42   C     C_1   0.500000 0.934605 0.500047 -0.166724
N3    N     N_1   0.500000 0.500000 0.076820 -0.049778
N4    N     N_1   0.500000 0.500000 0.923180 -0.049778
H13   H     H_    0.963250 0.129610 0.576821 0.132464
H14   H     H_    0.036746 0.870395 0.423206 0.132460
H15   H     H_    0.963250 0.870391 0.423179 0.132464
H16   H     H_    0.036746 0.129606 0.576794 0.132459

loop_
_geom_bond_atom_site_label_1
_geom_bond_atom_site_label_2
_geom_bond_distance
_ccdc_geom_bond_type
Cu2   N3    1.976966 S    
C19   C23   1.408590 A    
O3    C2    1.272540 A    
C13   H3    1.083314 S    
C11   C17   1.399895 A    
O5    C3    1.283175 A    
C7    N1    1.366756 A    
C8    N2    1.366732 A    
C19   C21   1.408591 A    
C9    H7    1.083249 S    
C22   C26   1.394654 A    
C38   H14   1.075027 S    
C37   H13   1.075027 S    
C7    C23   1.404091 A    
C33   C35   1.422528 A    
O7    Cu1   1.951899 S    
C25   H9    1.083653 S    
C34   C36   1.422527 A    
C26   H10   1.083653 S    
C10   C18   1.399904 A    
C5    C21   1.404091 A    
C28   H12   1.083651 S    
N1    C17   1.432362 S    
C1    C41   1.404012 S    
C19   C36   1.423441 A    
C20   C35   1.423439 A    
C24   C28   1.394653 A    
O3    Cu1   1.932429 S    
C6    O10   1.349786 S    
C5    N1    1.366754 A    
C14   H4    1.083343 S    
C32   C38   1.417281 A    
C6    N2    1.366732 A    
C15   H1    1.083314 S    
Cu1   Cu2   2.630978 S    
O4    Cu2   1.932430 S    
C16   H2    1.083344 S    
C28   C37   1.387847 A    
O2    C2    1.272298 A    
C10   H8    1.083276 S    
C11   H5    1.083249 S    
C25   C40   1.387844 A    
C9    C13   1.394481 A    
C11   C15   1.394481 A    
C12   C16   1.394484 A    
C4    C30   1.472702 S    
O8    Cu2   1.951902 S    
C23   C27   1.394659 A    
C7    O11   1.349790 S    
C13   C29   1.406513 A    
C32   C33   1.423024 A    
O1    Cu1   1.932165 S    
C5    O9    1.349791 S    
C33   C39   1.417281 A    
C20   C24   1.408594 A    
O6    C4    1.283179 A    
C10   C14   1.394484 A    
C26   C39   1.387844 A    
O1    C1    1.272298 A    
C3    C29   1.472688 S    
C39   H15   1.075028 S    
C2    C42   1.404012 S    
C31   C34   1.423024 A    
O6    Cu2   1.951899 S    
C8    O12   1.349786 S    
C16   C30   1.406558 A    
C14   C30   1.406559 A    
O4    C1    1.272540 A    
Cu1   N4    1.976966 S    
C40   H16   1.075029 S    
C31   C35   1.422527 A    
C34   C40   1.417281 A    
C32   C36   1.422528 A    
C20   C22   1.408593 A    
N3    N4    1.195362 T    
C31   C37   1.417281 A    
C12   H6    1.083275 S    
C27   C38   1.387844 A    
C21   C25   1.394658 A    
C41   C42   1.187563 T    
O2    Cu2   1.932164 S    
O7    C4    1.283179 A    
N2    C18   1.432320 S    
O8    C3    1.283175 A    
C27   H11   1.083654 S    
C12   C18   1.399905 A    
O5    Cu1   1.951902 S    
C8    C24   1.404091 A    
C15   C29   1.406513 A    
C9    C17   1.399894 A    
C6    C22   1.404091 A    
