data_mof_unit_21698.cif
_audit_creation_date              2012-12-10T20:34:50-0500
_audit_creation_method            fapswitch 2.2
_symmetry_space_group_name_H-M    P1
_symmetry_Int_Tables_number       1
_space_group_crystal_system       triclinic
_cell_length_a                    10.660028
_cell_length_b                    10.729239
_cell_length_c                    9.880944
_cell_angle_alpha                 88.678382
_cell_angle_beta                  90.613995
_cell_angle_gamma                 90.621697
_cell_volume                      1129.69391011

loop_
_atom_site_label
_atom_site_type_symbol
_atom_type_description
_atom_site_fract_x
_atom_site_fract_y
_atom_site_fract_z
_atom_type_partial_charge
C1    C     C_R   0.499786 0.259772 0.501091 0.928280
C2    C     C_3   0.877660 0.489559 0.501048 0.099803
C3    C     C_3   0.929191 0.624810 0.490430 -0.415377
C4    C     C_3   0.922094 0.412552 0.379788 -0.575412
C5    C     C_R   0.571410 0.061033 0.600098 0.090274
C6    C     C_R   0.505601 0.127178 0.499787 -0.091270
C7    C     C_R   0.459507 0.065308 0.385791 -0.164355
C8    C     C_R   0.464805 0.937130 0.381591 -0.239612
C9    C     C_R   0.514988 0.870934 0.492564 -0.089569
C10   C     C_R   0.576827 0.933408 0.595893 0.117302
C11   C     C_3   0.565299 0.916420 0.745304 -0.462496
C12   C     C_R   0.257594 0.494694 0.499534 0.923374
C13   C     C_3   0.554161 0.056308 0.749894 -0.484698
C14   C     C_R   0.416918 0.426721 0.072129 0.269764
C15   C     C_R   0.574629 0.579920 0.070792 -0.160584
C16   C     C_R   0.574749 0.579819 0.926915 -0.138586
C17   C     C_R   0.416760 0.427213 0.929331 0.245224
C18   C     C_3   0.412855 0.289485 0.926494 -0.581923
C19   C     C_3   0.411616 0.288017 0.079018 0.424355
C20   C     C_R   0.502867 0.739567 0.498344 0.870007
C21   C     C_R   0.741798 0.494441 0.500708 0.866732
C22   C     C_3   0.070558 0.418452 0.628916 0.489485
C23   C     C_3   0.927146 0.424879 0.632509 -0.429755
C24   C     C_3   0.072505 0.624691 0.502972 -0.447454
C25   C     C_3   0.066451 0.421371 0.366736 -0.099831
C26   C     C_3   0.120348 0.488627 0.498203 -0.036205
H1    H     H_    0.875730 0.444093 0.283512 0.204515
H2    H     H_    0.114493 0.685068 0.422099 0.153111
H3    H     H_    0.900796 0.668424 0.391628 0.173815
H4    H     H_    0.412834 0.114814 0.303856 0.230912
H5    H     H_    0.421348 0.890034 0.296987 0.179150
H6    H     H_    0.477948 0.866581 0.776752 0.227749
H7    H     H_    0.653184 0.880780 0.792990 0.191002
H8    H     H_    0.457906 0.083576 0.777922 0.222064
H9    H     H_    0.633264 0.101307 0.805167 0.198331
H10   H     H_    0.636810 0.642690 0.124166 0.158139
H11   H     H_    0.099221 0.319304 0.630481 0.116475
H12   H     H_    0.637173 0.642349 0.871889 0.149652
H13   H     H_    0.325481 0.253133 0.878444 0.254814
H14   H     H_    0.502403 0.255076 0.887414 0.158219
H15   H     H_    0.495806 0.244689 0.126872 0.060632
H16   H     H_    0.886768 0.329050 0.643582 0.124983
H17   H     H_    0.898004 0.477788 0.722413 0.231261
H18   H     H_    0.101041 0.667414 0.600376 0.236286
H19   H     H_    0.889803 0.682363 0.571854 0.176594
H20   H     H_    0.889322 0.314247 0.395738 0.152382
N1    N     N_R   0.499150 0.499140 0.142800 -0.160222
N2    N     N_R   0.499150 0.499180 0.857150 -0.118769
O1    O     O_R   0.500020 0.316790 0.614690 -0.624099
O2    O     O_R   0.500000 0.316760 0.385350 -0.621179
O3    O     O_R   0.314800 0.500000 0.614670 -0.551393
O4    O     O_R   0.314790 0.499960 0.385330 -0.595531
O5    O     O_R   0.500000 0.683240 0.614650 -0.622841
O6    O     O_R   0.499980 0.683210 0.385310 -0.628562
O7    O     O_R   0.685210 0.500040 0.614670 -0.638507
O8    O     O_R   0.685200 0.500000 0.385330 -0.635895
Zn1   Zn    Zn3+2 0.500010 0.500020 0.653130 0.976153
Zn2   Zn    Zn3+2 0.499990 0.499980 0.346870 0.974425
F1    F     F_    0.117520 0.470491 0.746782 -0.639396
F2    F     F_    0.298705 0.243786 0.129063 -0.627619
C27   C     C_2   0.093678 0.497474 0.236929 0.452198
H21   H     H_    0.061619 0.592750 0.226223 0.058584
O9    O     O_2   0.146278 0.452416 0.140744 -0.512372
C28   C     C_2   0.115546 0.289052 0.350758 0.503491
H22   H     H_    0.075612 0.231523 0.271832 0.125980
O10   O     O_2   0.198616 0.245556 0.422909 -0.622007

loop_
_geom_bond_atom_site_label_1
_geom_bond_atom_site_label_2
_ccdc_geom_bond_type
C25   C27   S    
C21   O8    A    
C2    C4    S    
C18   H13   S    
C13   H9    S    
C6    C7    A    
O3    Zn1   S    
C11   H7    S    
C19   F2    S    
C9    C10   A    
C9    C20   S    
C5    C13   S    
C17   N2    A    
C15   N1    A    
C28   H22   S    
C16   N2    A    
C2    C21   S    
C17   C18   S    
O1    Zn1   S    
N2    Zn1   S    
C7    H4    S    
C4    H20   S    
N1    Zn2   S    
C11   C13   S    
C14   C17   A    
C3    H3    S    
C3    C24   S    
C14   N1    A    
C23   H16   S    
O4    Zn2   S    
C5    C6    A    
C5    C10   A    
C12   O4    A    
O8    Zn2   S    
C11   H6    S    
C4    C25   S    
C2    C3    S    
C2    C23   S    
O7    Zn1   S    
O6    Zn2   S    
C27   H21   S    
C24   H18   S    
C7    C8    A    
C10   C11   S    
C22   C26   S    
C15   C16   A    
O2    Zn2   S    
C24   H2    S    
C15   H10   S    
C13   H8    S    
C12   O3    A    
C23   H17   S    
C20   O6    A    
C18   C19   S    
C1    O2    A    
C12   C26   S    
C22   F1    S    
C27   O9    D    
O5    Zn1   S    
C22   C23   S    
C8    C9    A    
C21   O7    A    
C18   H14   S    
C4    H1    S    
C1    C6    S    
C16   H12   S    
C25   C26   S    
C22   H11   S    
C1    O1    A    
C14   C19   S    
C3    H19   S    
C8    H5    S    
C19   H15   S    
C24   C26   S    
C20   O5    A    
C25   C28   S    
C28   O10   D    
