data_mof_unit_30408.cif
_audit_creation_date              2012-12-10T19:28:37-0500
_audit_creation_method            fapswitch 2.2
_symmetry_space_group_name_H-M    P1
_symmetry_Int_Tables_number       1
_space_group_crystal_system       triclinic
_cell_length_a                    27.548792
_cell_length_b                    10.504516
_cell_length_c                    9.807578
_cell_angle_alpha                 90.256461
_cell_angle_beta                  88.345002
_cell_angle_gamma                 89.489012
_cell_volume                      2836.85431322

loop_
_atom_site_label
_atom_site_type_symbol
_atom_type_description
_atom_site_fract_x
_atom_site_fract_y
_atom_site_fract_z
_atom_type_partial_charge
C1    C     C_R   0.500252 0.257805 0.499604 0.891383
C2    C     C_R   0.869970 0.510207 0.629974 -0.100629
C3    C     C_R   0.353992 0.495436 0.505683 -0.167014
C4    C     C_R   0.645896 0.508594 0.494606 -0.159686
C5    C     C_R   0.972449 0.479896 0.620800 0.036993
C6    C     C_R   0.027104 0.550503 0.383667 0.045402
C7    C     C_R   0.976145 0.573392 0.391578 0.036161
C8    C     C_R   0.023089 0.454496 0.611706 0.075282
C9    C     C_R   0.948857 0.534267 0.508553 0.079074
C10   C     C_R   0.050513 0.494063 0.495348 0.085642
C11   C     C_R   0.944763 0.454222 0.740490 -0.235565
C12   C     C_R   0.499956 0.742157 0.500331 0.892998
C13   C     C_R   0.055379 0.580829 0.266220 -0.260332
C14   C     C_R   0.894359 0.463008 0.744803 -0.008903
C15   C     C_R   0.105799 0.570569 0.262716 -0.012075
C16   C     C_R   0.406436 0.500861 0.501741 0.916311
C17   C     C_R   0.593560 0.499276 0.498292 0.919738
C18   C     C_R   0.046690 0.383499 0.712372 -0.276402
C19   C     C_R   0.951887 0.640801 0.289188 -0.230963
C20   C     C_3   0.540864 0.041542 0.559396 -0.173450
C21   C     C_3   0.459747 0.958309 0.439992 -0.181286
C22   C     C_3   0.539351 0.957027 0.430941 -0.005907
C23   C     C_R   0.101699 0.476746 0.490793 -0.050625
C24   C     C_3   0.461232 0.042715 0.568466 -0.011444
C25   C     C_3   0.500147 0.877101 0.500773 -0.103671
C26   C     C_3   0.500408 0.122797 0.498835 -0.099708
C27   C     C_3   0.501125 0.959528 0.630198 -0.158214
C28   C     C_3   0.499476 0.040364 0.369230 -0.161192
C29   C     C_3   0.479715 0.397825 0.050591 -0.129357
C30   C     C_3   0.520269 0.602199 0.949401 -0.124598
C31   C     C_3   0.523344 0.403279 0.949592 0.015251
C32   C     C_3   0.476684 0.596759 0.050435 0.016071
C33   C     C_3   0.456491 0.495865 0.956681 0.144786
C34   C     C_R   0.897586 0.549344 0.513153 -0.053186
C35   C     C_3   0.543512 0.504245 0.043354 0.136327
C36   C     C_R   0.175987 0.424911 0.605599 0.522504
C37   C     C_R   0.823073 0.592132 0.396072 0.523770
C38   C     C_R   0.180382 0.500306 0.376769 0.539797
C39   C     C_R   0.819037 0.522026 0.626916 0.529298
C40   C     C_R   0.274145 0.593833 0.531430 0.101718
C41   C     C_R   0.726881 0.416739 0.470418 0.106583
C42   C     C_R   0.325181 0.604781 0.532235 -0.058702
C43   C     C_R   0.676001 0.401529 0.468841 -0.060909
C44   C     C_R   0.333072 0.378533 0.476103 -0.195286
C45   C     C_R   0.125069 0.420333 0.602874 -0.054521
C46   C     C_R   0.665346 0.627275 0.524190 -0.212717
C47   C     C_R   0.282915 0.366785 0.473438 0.190155
C48   C     C_R   0.715284 0.643295 0.527254 0.189852
C49   C     C_R   0.253485 0.474381 0.501017 0.290382
C50   C     C_R   0.746023 0.538111 0.500453 0.298139
C51   C     C_2   0.550713 0.291845 0.889143 0.965714
C52   C     C_2   0.449370 0.708269 0.110949 0.962169
C53   C     C_3   0.404577 0.491035 0.909006 -0.724459
C54   C     C_3   0.595367 0.511071 0.091280 -0.703976
C55   C     C_3   0.260922 0.240143 0.439642 -0.747656
C56   C     C_R   0.873829 0.601979 0.399845 -0.099496
C57   C     C_3   0.735679 0.771937 0.560624 -0.780165
C58   C     C_2   0.117180 0.278328 0.813088 1.064136
C59   C     C_2   0.880874 0.742730 0.188530 1.024043
C60   C     C_2   0.654170 0.274938 0.442611 0.906427
C61   C     C_2   0.348455 0.729421 0.558833 0.904170
C62   C     C_3   0.760426 0.304938 0.437548 -0.737752
C63   C     C_3   0.242031 0.708166 0.565643 -0.718794
C64   C     C_2   0.869589 0.413096 0.869391 1.014400
C65   C     C_2   0.131619 0.627376 0.143255 1.022208
C66   C     C_2   0.582719 0.904746 0.352952 0.873138
C67   C     C_R   0.096790 0.365635 0.709571 -0.098479
C68   C     C_2   0.417944 0.093692 0.647643 0.881759
C69   C     C_R   0.901685 0.657291 0.292697 -0.011501
C70   C     C_R   0.129624 0.517123 0.375207 -0.092477
H1    H     H_    0.356206 0.296506 0.453963 0.173204
H2    H     H_    0.039353 0.615512 0.174557 0.163403
H3    H     H_    0.026506 0.333785 0.791071 0.143382
H4    H     H_    0.971365 0.688411 0.207846 0.172631
H5    H     H_    0.608961 0.229549 0.778086 0.348362
H6    H     H_    0.391133 0.770726 0.221941 0.347906
H7    H     H_    0.379399 0.482668 0.998834 0.242402
H8    H     H_    0.395730 0.579737 0.854116 0.278797
H9    H     H_    0.399858 0.407265 0.842017 0.253514
H10   H     H_    0.620581 0.518229 0.001393 0.242716
H11   H     H_    0.599762 0.596546 0.156336 0.271746
H12   H     H_    0.641206 0.707347 0.546115 0.171482
H13   H     H_    0.604446 0.423583 0.148071 0.273801
H14   H     H_    0.289204 0.166013 0.418644 0.261496
H15   H     H_    0.237603 0.207532 0.526577 0.266848
H16   H     H_    0.238581 0.249372 0.347729 0.248033
H17   H     H_    0.706511 0.843687 0.581493 0.266022
H18   H     H_    0.758121 0.765045 0.652558 0.251767
H19   H     H_    0.758561 0.806167 0.473523 0.265293
H20   H     H_    0.081893 0.365006 0.972438 0.323922
H21   H     H_    0.882309 0.801159 0.992714 0.355001
H22   H     H_    0.605497 0.173117 0.338751 0.353918
H23   H     H_    0.573908 0.079383 0.606696 0.197237
H24   H     H_    0.397656 0.827366 0.664796 0.349589
H25   H     H_    0.749931 0.259486 0.340429 0.247339
H26   H     H_    0.799021 0.332195 0.424458 0.219561
H27   H     H_    0.758098 0.234222 0.521126 0.277560
H28   H     H_    0.253401 0.752332 0.662584 0.245026
H29   H     H_    0.244904 0.778997 0.482272 0.277816
H30   H     H_    0.203163 0.684019 0.579861 0.224022
H31   H     H_    0.862574 0.419438 0.074689 0.354310
H32   H     H_    0.179751 0.757061 0.073565 0.364086
H33   H     H_    0.655585 0.887003 0.338416 0.361611
H34   H     H_    0.426743 0.920508 0.392485 0.196780
H35   H     H_    0.392514 0.181414 0.818350 0.343977
H36   H     H_    0.501373 0.923412 0.736439 0.202468
H37   H     H_    0.499233 0.076512 0.263004 0.200737
H38   H     H_    0.462617 0.312527 0.097293 0.170853
H39   H     H_    0.537347 0.687505 0.902656 0.173723
H40   H     H_    0.961541 0.424988 0.833419 0.164618
N1    N     N_R   0.201980 0.463619 0.493499 -0.355707
N2    N     N_R   0.797320 0.553477 0.508623 -0.350411
N3    N     N_3   0.499960 0.500030 0.863290 -0.123397
N4    N     N_3   0.500040 0.499970 0.136710 -0.123754
O1    O     O_R   0.500000 0.313960 0.616610 -0.590326
O2    O     O_2   0.799487 0.614945 0.279898 -0.512427
O3    O     O_2   0.790919 0.501701 0.739347 -0.504072
O4    O     O_2   0.208436 0.520421 0.264137 -0.503692
O5    O     O_2   0.535755 0.184001 0.908055 -0.604802
O6    O     O_R   0.593513 0.311858 0.812809 -0.781017
O7    O     O_2   0.464392 0.816066 0.092123 -0.610574
O8    O     O_R   0.406553 0.688375 0.187247 -0.781373
O9    O     O_2   0.144739 0.192239 0.776602 -0.536785
O10   O     O_R   0.103896 0.289259 0.951423 -0.741404
O11   O     O_2   0.849759 0.821652 0.221637 -0.585705
O12   O     O_R   0.500000 0.686040 0.383390 -0.590949
O13   O     O_R   0.898867 0.737507 0.053788 -0.768524
O14   O     O_2   0.668056 0.181110 0.504188 -0.594564
O15   O     O_R   0.617471 0.263455 0.348086 -0.812164
O16   O     O_2   0.335890 0.824293 0.496810 -0.598544
O17   O     O_R   0.384829 0.737964 0.654648 -0.810199
O18   O     O_2   0.841369 0.324351 0.861158 -0.568646
O19   O     O_R   0.881117 0.462213 0.997003 -0.768598
O20   O     O_2   0.121918 0.593433 0.027847 -0.625534
O21   O     O_R   0.165076 0.724682 0.162694 -0.745418
O22   O     O_2   0.577085 0.843235 0.248650 -0.593275
O23   O     O_R   0.500020 0.313950 0.383350 -0.621871
O24   O     O_R   0.629310 0.927005 0.399603 -0.799879
O25   O     O_2   0.377201 0.079216 0.604381 -0.614801
O26   O     O_R   0.424472 0.155757 0.771860 -0.762471
O27   O     O_R   0.499980 0.686050 0.616650 -0.621034
O28   O     O_R   0.428750 0.500030 0.616610 -0.591094
O29   O     O_R   0.571250 0.499970 0.383390 -0.591774
O30   O     O_R   0.428770 0.500020 0.383360 -0.586732
O31   O     O_R   0.571230 0.499980 0.616640 -0.586555
O32   O     O_2   0.199607 0.396263 0.720260 -0.501050
Zn1   Zn    Zn3+2 0.499990 0.500010 0.655740 1.005171
Zn2   Zn    Zn3+2 0.500010 0.499990 0.344260 1.006302

loop_
_geom_bond_atom_site_label_1
_geom_bond_atom_site_label_2
_ccdc_geom_bond_type
C20   H23   S    
C38   C70   A    
C3    C42   A    
C34   C56   A    
C23   C45   A    
C62   H26   S    
C1    C26   S    
O23   Zn2   S    
C17   O31   A    
C24   C27   S    
O30   Zn2   S    
C61   O17   S    
C48   C57   S    
C47   C49   A    
C37   O2    S    
C4    C46   A    
C6    C13   A    
C58   O9    D    
C40   C63   S    
C57   H19   S    
C30   C35   S    
C44   H1    S    
C16   O30   A    
C24   C26   S    
C5    C11   A    
C63   H28   S    
C11   C14   A    
C12   O12   A    
C28   H37   S    
C59   O13   S    
C40   C49   A    
C15   C65   S    
O1    Zn1   S    
C12   O27   A    
C35   N4    S    
H32   O21   S    
C32   C52   S    
C37   N2    A    
C63   H29   S    
C29   N4    S    
C46   H12   S    
C37   C56   A    
C52   O8    S    
C2    C39   A    
C22   C66   S    
C64   O18   D    
C29   C33   S    
C22   C25   S    
C45   C67   A    
C51   O5    D    
C29   H38   S    
C65   O20   D    
C44   C47   A    
C49   N1    S    
C33   N3    S    
C2    C34   A    
C40   C42   A    
C22   C28   S    
C62   H25   S    
C35   C54   S    
C41   C43   A    
C23   C70   A    
C41   C62   S    
C54   H13   S    
O31   Zn1   S    
C54   H10   S    
C33   C53   S    
O29   Zn2   S    
C46   C48   A    
C3    C44   A    
C30   H39   S    
C60   O14   D    
H33   O24   S    
C24   C68   S    
C27   H36   S    
C18   C67   A    
C39   O3    S    
C8    C18   A    
C57   H17   S    
C55   H15   S    
C16   O28   A    
C5    C9    A    
C63   H30   S    
C62   H27   S    
C52   O7    D    
C66   O24   S    
C14   C64   S    
C36   N1    A    
C50   N2    S    
C51   O6    S    
C36   C45   A    
C42   C61   S    
C65   O21   S    
H21   O13   S    
C43   C60   S    
C59   C69   S    
C66   O22   D    
C4    C17   S    
C61   O16   D    
C36   O32   S    
C39   N2    A    
C13   H2    S    
C21   C28   S    
C20   C22   S    
C18   H3    S    
C7    C19   A    
C21   H34   S    
C53   H7    S    
C31   C35   S    
C68   O26   S    
C59   O11   D    
C41   C50   A    
C1    O23   A    
C47   C55   S    
C7    C9    A    
C15   C70   A    
C21   C25   S    
C64   O19   S    
O12   Zn2   S    
C53   H9    S    
H20   O10   S    
O28   Zn1   S    
C19   H4    S    
H5    O6    S    
C31   C51   S    
C58   O10   S    
C60   O15   S    
C6    C10   A    
C5    C8    A    
C6    C7    A    
C20   C27   S    
H31   O19   S    
C10   C23   A    
C25   C27   S    
C26   C28   S    
H24   O17   S    
C57   H18   S    
C12   C25   S    
C17   O29   A    
H6    O8    S    
C32   C33   S    
N3    Zn1   S    
C55   H16   S    
C13   C15   A    
C53   H8    S    
C55   H14   S    
N4    Zn2   S    
C29   C31   S    
H35   O26   S    
C30   C32   S    
C9    C34   A    
C20   C26   S    
C48   C50   A    
C4    C43   A    
H22   O15   S    
C2    C14   A    
C19   C69   A    
O27   Zn1   S    
C38   O4    S    
C58   C67   S    
C8    C10   A    
C56   C69   A    
C21   C24   S    
C68   O25   D    
C1    O1    A    
C32   N4    S    
C38   N1    A    
C31   N3    S    
C54   H11   S    
C3    C16   S    
C11   H40   S    
C30   N3    S    
