data_mof_unit_67262.cif
_audit_creation_date              2013-03-05T16:01:28-0500
_audit_creation_method            fapswitch 2.2
_symmetry_space_group_name_H-M    P1
_symmetry_Int_Tables_number       1
_space_group_crystal_system       triclinic
_cell_length_a                    20.235225
_cell_length_b                    20.135412
_cell_length_c                    8.404122
_cell_angle_alpha                 90.214745
_cell_angle_beta                  92.088257
_cell_angle_gamma                 89.824225
_cell_volume                      3421.90122738

loop_
_atom_site_label
_atom_site_type_symbol
_atom_site_description
_atom_site_fract_x
_atom_site_fract_y
_atom_site_fract_z
_atom_type_partial_charge
P1    P     P_3+3 0.136530 0.426510 0.931350 0.471128
P2    P     P_3+3 0.136530 0.573490 0.431350 0.450840
P3    P     P_3+3 0.636530 0.926510 0.931350 0.467149
P4    P     P_3+3 0.636530 0.073490 0.431350 0.455416
O1    O     O_2   0.130070 0.404060 0.104920 -0.358441
O2    O     O_2   0.130070 0.595940 0.604920 -0.387218
O3    O     O_2   0.630070 0.904060 0.104920 -0.365881
O4    O     O_2   0.630070 0.095940 0.604920 -0.385656
O5    O     O_3   0.075780 0.466370 0.861070 -0.404700
O6    O     O_3   0.075780 0.533630 0.361070 -0.373875
O7    O     O_3   0.575780 0.966370 0.861070 -0.402944
O8    O     O_3   0.575780 0.033630 0.361070 -0.381780
O9    O     O_3   0.022320 0.344950 0.359800 -0.368663
O10   O     O_3   0.022320 0.655050 0.859800 -0.378073
O11   O     O_3   0.522320 0.844950 0.359800 -0.372802
O12   O     O_3   0.522320 0.155050 0.859800 -0.368604
O13   O     O_2   0.136102 0.297635 0.253279 -0.388489
O14   O     O_2   0.132543 0.706052 0.744146 -0.340275
O15   O     O_2   0.634042 0.795413 0.248701 -0.366563
O16   O     O_2   0.630933 0.208044 0.746655 -0.350456
O17   O     O_3   0.208134 0.474861 0.940495 -0.611013
O18   O     O_3   0.206387 0.522800 0.432538 -0.652636
O19   O     O_3   0.708229 0.973738 0.937532 -0.622827
O20   O     O_3   0.706807 0.023402 0.432118 -0.644094
O21   O     O_3   0.052399 0.207769 0.331296 -0.533854
O22   O     O_3   0.048163 0.792980 0.842001 -0.527527
O23   O     O_3   0.548930 0.707796 0.333498 -0.539100
O24   O     O_3   0.543199 0.292889 0.840728 -0.544994
H1    H     H_    0.954147 0.231967 0.357673 0.128884
H2    H     H_    0.949383 0.768474 0.848661 0.129856
H3    H     H_    0.451126 0.736984 0.343424 0.137395
H4    H     H_    0.444399 0.269337 0.850723 0.131674
C1    C     C_3   0.971992 0.127546 0.395151 0.114857
C2    C     C_3   0.967004 0.868804 0.930528 0.085398
C3    C     C_3   0.463119 0.632867 0.393578 0.115053
C4    C     C_3   0.463779 0.368903 0.937963 0.072978
H5    H     H_    0.970297 0.113675 0.266880 0.152753
H6    H     H_    0.965610 0.890634 0.808917 0.109291
H7    H     H_    0.460341 0.617822 0.265903 0.129586
H8    H     H_    0.464858 0.392691 0.818639 0.112155
P5    P     P_3+3 0.863410 0.426100 0.379280 0.461364
P6    P     P_3+3 0.863410 0.573900 0.879280 0.463518
P7    P     P_3+3 0.363410 0.926100 0.379280 0.462494
P8    P     P_3+3 0.363410 0.073900 0.879280 0.466235
P9    P     P_3+3 0.915953 0.284872 0.926772 0.416994
P10   P     P_3+3 0.915915 0.715418 0.429012 0.413918
P11   P     P_3+3 0.416111 0.784142 0.927769 0.444378
P12   P     P_3+3 0.416585 0.216097 0.429704 0.416277
O25   O     O_2   0.869860 0.403670 0.205810 -0.345937
O26   O     O_2   0.869860 0.596330 0.705810 -0.346051
O27   O     O_2   0.369860 0.903670 0.205810 -0.346835
O28   O     O_2   0.369860 0.096330 0.705810 -0.343206
O29   O     O_3   0.977590 0.344880 0.951200 -0.362240
O30   O     O_3   0.977590 0.655120 0.451200 -0.349696
O31   O     O_3   0.477590 0.844880 0.951200 -0.363847
O32   O     O_3   0.477590 0.155120 0.451200 -0.349517
O33   O     O_2   0.860624 0.306860 0.036338 -0.398912
O34   O     O_2   0.860778 0.694910 0.540439 -0.404416
O35   O     O_2   0.361152 0.803315 0.041744 -0.377071
O36   O     O_2   0.361463 0.195469 0.541118 -0.401233
O37   O     O_3   0.794052 0.477867 0.365747 -0.573915
O38   O     O_3   0.794095 0.522703 0.864911 -0.565872
O39   O     O_3   0.294105 0.977988 0.366279 -0.578333
O40   O     O_3   0.293623 0.022854 0.866595 -0.575836
O41   O     O_3   0.944192 0.210593 0.014209 -0.586492
O42   O     O_3   0.945141 0.789120 0.516631 -0.600198
O43   O     O_3   0.445589 0.709111 0.008646 -0.580362
O44   O     O_3   0.446566 0.289225 0.519590 -0.593359
C5    C     C_3   0.992156 0.179220 0.921990 1.229526
C6    C     C_3   0.992645 0.820160 0.424134 1.315071
C7    C     C_3   0.492993 0.679085 0.912368 1.291348
C8    C     C_3   0.489584 0.323891 0.421643 1.331559
H9    H     H_    0.015537 0.214806 0.838717 -0.131415
H10   H     H_    0.002621 0.792475 0.312461 -0.152689
H11   H     H_    0.507781 0.711730 0.812827 -0.144224
H12   H     H_    0.498016 0.297674 0.307276 -0.163716
C9    C     C_3   0.958953 0.123844 0.824604 -1.138513
C10   C     C_3   0.965075 0.889115 0.380790 -1.231219
C11   C     C_3   0.462208 0.615081 0.843348 -1.220396
C12   C     C_3   0.457454 0.391701 0.386014 -1.226057
H13   H     H_    0.937247 0.086527 0.904330 0.242206
H14   H     H_    0.963933 0.920657 0.489175 0.248982
H15   H     H_    0.456177 0.578066 0.939288 0.247589
H16   H     H_    0.456395 0.422028 0.496473 0.248378
C13   C     C_3   0.812415 0.459377 0.813126 0.376094
C14   C     C_3   0.812469 0.541074 0.314974 0.356177
C15   C     C_3   0.311237 0.959429 0.814006 0.341344
C16   C     C_3   0.312891 0.041321 0.317193 0.347385
H17   H     H_    0.840448 0.432935 0.909644 0.114330
H18   H     H_    0.843679 0.566165 0.408290 0.119821
H19   H     H_    0.343625 0.934246 0.904802 0.117505
H20   H     H_    0.346754 0.064887 0.407549 0.123627
C17   C     C_3   0.749506 0.421203 0.770638 0.106304
C18   C     C_3   0.749759 0.581658 0.284552 0.132141
C19   C     C_3   0.248232 0.918904 0.787361 0.150635
C20   C     C_3   0.250909 0.083894 0.297760 0.151978
H21   H     H_    0.727355 0.443323 0.659173 0.106521
H22   H     H_    0.723620 0.560739 0.176189 0.090316
H23   H     H_    0.219647 0.939804 0.682676 0.073713
H24   H     H_    0.220786 0.064486 0.193841 0.067368
Ba1   Ba    Ba6+2 0.999980 0.452130 0.155200 1.557391
Ba2   Ba    Ba6+2 0.999980 0.547870 0.655200 1.568603
Ba3   Ba    Ba6+2 0.499980 0.952130 0.155200 1.568207
Ba4   Ba    Ba6+2 0.499980 0.047870 0.655200 1.570776
C21   C     C_3   0.195635 0.540386 0.986736 0.212108
C22   C     C_3   0.198035 0.466439 0.525320 0.273003
C23   C     C_3   0.696309 0.037935 0.991609 0.268954
C24   C     C_3   0.698429 0.966607 0.523596 0.278780
H25   H     H_    0.196666 0.542699 0.118326 0.105647
H26   H     H_    0.173100 0.478075 0.637007 0.113633
H27   H     H_    0.665454 0.037981 0.098113 0.095030
H28   H     H_    0.672974 0.977629 0.634957 0.116121
H29   H     H_    0.147463 0.559853 0.938923 0.114704
H30   H     H_    0.169392 0.428635 0.455402 0.107021
H31   H     H_    0.672420 0.067983 0.895000 0.121067
H32   H     H_    0.670238 0.928852 0.452435 0.098652
C25   C     C_3   0.250897 0.582974 0.921404 0.060598
C26   C     C_3   0.267017 0.440367 0.565759 0.037040
C27   C     C_3   0.763816 0.065842 0.036609 0.036017
C28   C     C_3   0.767366 0.940745 0.565127 0.036410
H33   H     H_    0.297211 0.553513 0.909888 0.082149
H34   H     H_    0.293528 0.477794 0.641418 0.094219
H35   H     H_    0.782293 0.038158 0.144454 0.094521
H36   H     H_    0.793872 0.978751 0.639219 0.107230
H37   H     H_    0.236076 0.596494 0.798259 0.121596
H38   H     H_    0.292908 0.433460 0.451520 0.090549
H39   H     H_    0.797617 0.056546 0.937127 0.109564
H40   H     H_    0.793150 0.933009 0.450997 0.082106
O45   O     O_3   0.924190 0.533610 0.949240 -0.401411
O46   O     O_3   0.924190 0.466390 0.449240 -0.399802
O47   O     O_3   0.424190 0.033610 0.949240 -0.400791
O48   O     O_3   0.424190 0.966390 0.449240 -0.400636
P13   P     P_3+3 0.083896 0.715424 0.879935 0.502235
P14   P     P_3+3 0.085026 0.285309 0.381723 0.466123
P15   P     P_3+3 0.581886 0.216917 0.881846 0.485863
P16   P     P_3+3 0.584117 0.784585 0.380640 0.478302
C29   C     C_3   0.993499 0.199542 0.411733 0.330708
C30   C     C_3   0.987837 0.796425 0.918918 0.326419
C31   C     C_3   0.487723 0.703903 0.405871 0.330499
C32   C     C_3   0.483559 0.296196 0.921084 0.320111
H41   H     H_    0.000161 0.211176 0.541002 -0.005221
H42   H     H_    0.991802 0.776043 0.041713 0.006262
H43   H     H_    0.491955 0.717676 0.534173 0.003540
H44   H     H_    0.488016 0.274363 0.042252 0.009196
C33   C     C_R   0.240912 0.305047 0.006808 -0.099139
C34   C     C_R   0.242557 0.694301 0.500576 -0.124869
C35   C     C_R   0.740087 0.804467 0.006997 -0.100161
C36   C     C_R   0.738817 0.196811 0.507787 -0.152004
C37   C     C_R   0.148986 0.346372 0.825725 0.334134
C38   C     C_R   0.150603 0.652545 0.320949 0.290699
C39   C     C_R   0.648423 0.846050 0.825443 0.342988
C40   C     C_R   0.648765 0.153640 0.323727 0.307340
C41   C     C_R   0.112178 0.337855 0.683506 -0.475295
C42   C     C_R   0.113688 0.661049 0.178758 -0.472199
C43   C     C_R   0.611991 0.837720 0.682369 -0.472332
C44   C     C_R   0.611950 0.162195 0.181069 -0.448584
C45   C     C_R   0.126045 0.286178 0.579755 0.242574
C46   C     C_R   0.127221 0.712736 0.075180 0.250663
C47   C     C_R   0.626047 0.786106 0.578114 0.235393
C48   C     C_R   0.624752 0.214569 0.078578 0.249201
C49   C     C_R   0.172877 0.237947 0.623293 -0.283166
C50   C     C_R   0.174192 0.760732 0.118336 -0.222508
C51   C     C_R   0.673204 0.738125 0.621483 -0.295862
C52   C     C_R   0.671213 0.262901 0.123278 -0.258378
C53   C     C_R   0.208951 0.242707 0.768859 0.045288
C54   C     C_R   0.210606 0.755900 0.263248 0.064670
C55   C     C_R   0.708621 0.742509 0.768151 0.061493
C56   C     C_R   0.707218 0.258195 0.269002 0.083656
C57   C     C_R   0.198992 0.298417 0.869914 0.019016
C58   C     C_R   0.200819 0.700403 0.363825 -0.008733
C59   C     C_R   0.698128 0.797814 0.870072 0.059970
C60   C     C_R   0.697542 0.202541 0.369556 0.019802
H45   H     H_    0.075686 0.374712 0.647086 0.159049
H46   H     H_    0.076671 0.624681 0.143376 0.158847
H47   H     H_    0.575526 0.874604 0.645990 0.158107
H48   H     H_    0.575714 0.125276 0.144236 0.152806
C61   C     C_R   0.798524 0.700507 0.946112 -0.065094
C62   C     C_R   0.797756 0.299974 0.445689 -0.043940
C63   C     C_R   0.298777 0.200621 0.946825 -0.069275
C64   C     C_R   0.299741 0.798747 0.442610 -0.055651
C65   C     C_R   0.789273 0.756739 0.045770 0.085421
C66   C     C_R   0.787915 0.244503 0.546334 0.103586
C67   C     C_R   0.289750 0.257021 0.046110 0.089313
C68   C     C_R   0.290710 0.742629 0.541568 0.117204
C69   C     C_R   0.849807 0.653689 0.987540 0.235247
C70   C     C_R   0.849681 0.346230 0.486175 0.230559
C71   C     C_R   0.349998 0.153724 0.988200 0.234783
C72   C     C_R   0.350095 0.846218 0.486249 0.230840
C73   C     C_R   0.889666 0.664740 0.124599 -0.496684
C74   C     C_R   0.890064 0.334702 0.622059 -0.492685
C75   C     C_R   0.389896 0.164826 0.125362 -0.496825
C76   C     C_R   0.389400 0.835601 0.624402 -0.505680
C77   C     C_R   0.877516 0.717678 0.227024 0.179663
C78   C     C_R   0.877032 0.282849 0.725711 0.188573
C79   C     C_R   0.377921 0.217981 0.227635 0.172038
C80   C     C_R   0.377233 0.782823 0.726164 0.180360
C81   C     C_R   0.828337 0.764107 0.186430 -0.190684
C82   C     C_R   0.826263 0.237969 0.688069 -0.245922
C83   C     C_R   0.328696 0.264325 0.186897 -0.188502
C84   C     C_R   0.328626 0.736227 0.684194 -0.210241
C85   C     C_R   0.756708 0.693858 0.808951 -0.193242
C86   C     C_R   0.755501 0.306697 0.309443 -0.222683
C87   C     C_R   0.256770 0.193861 0.810036 -0.185219
C88   C     C_R   0.258234 0.804843 0.304791 -0.185046
H49   H     H_    0.182374 0.197954 0.541212 0.199611
H50   H     H_    0.183140 0.800983 0.037141 0.187958
H51   H     H_    0.683153 0.698235 0.539187 0.192491
H52   H     H_    0.680427 0.303254 0.042480 0.169539
H53   H     H_    0.927192 0.628623 0.159047 0.172117
H54   H     H_    0.928429 0.369988 0.655312 0.171633
H55   H     H_    0.427360 0.128657 0.159848 0.172064
H56   H     H_    0.426485 0.871873 0.660011 0.172917
H57   H     H_    0.761559 0.651553 0.730807 0.213550
H58   H     H_    0.760457 0.348748 0.231314 0.207218
H59   H     H_    0.261321 0.151350 0.732457 0.217692
H60   H     H_    0.262458 0.847316 0.227755 0.210124
H61   H     H_    0.761735 0.368369 0.747867 0.051622
H62   H     H_    0.762916 0.633795 0.258571 0.052748
H63   H     H_    0.261640 0.867243 0.755700 0.056262
H64   H     H_    0.265068 0.135402 0.268544 0.054828
O49   O     O_3   0.706887 0.425211 0.899744 -0.579304
C89   C     C_3   0.641303 0.414510 0.844861 -0.168405
H65   H     H_    0.636958 0.367935 0.773995 0.206055
H66   H     H_    0.622654 0.457495 0.773455 0.130795
H67   H     H_    0.610079 0.409740 0.949620 0.140780
O50   O     O_3   0.712130 0.580845 0.423210 -0.576713
C90   C     C_3   0.644700 0.571487 0.382433 -0.200862
H68   H     H_    0.626358 0.609883 0.297014 0.197546
H69   H     H_    0.616143 0.575752 0.492164 0.138330
H70   H     H_    0.636224 0.521120 0.331261 0.135807
O51   O     O_3   0.213325 0.917166 0.930354 -0.581421
C91   C     C_3   0.149155 0.943603 0.906594 -0.180827
H71   H     H_    0.119969 0.913860 0.817210 0.166027
H72   H     H_    0.151085 0.996584 0.869785 0.145865
H73   H     H_    0.123507 0.941445 0.020896 0.134675
O52   O     O_3   0.217942 0.085282 0.443478 -0.579303
C92   C     C_3   0.153668 0.059184 0.423330 -0.214442
H74   H     H_    0.122970 0.090607 0.340958 0.169688
H75   H     H_    0.130167 0.058942 0.540564 0.135613
H76   H     H_    0.155151 0.007187 0.378702 0.145515
O53   O     O_3   0.260504 0.642141 0.009843 -0.620768
C93   C     C_3   0.309997 0.632490 0.130025 -0.090435
H77   H     H_    0.356930 0.613872 0.081590 0.131246
H78   H     H_    0.292211 0.598205 0.221969 0.127821
H79   H     H_    0.321555 0.680801 0.187723 0.212228
O54   O     O_3   0.263754 0.381160 0.652176 -0.637177
C94   C     C_3   0.324986 0.348285 0.647262 -0.005779
H80   H     H_    0.367751 0.382615 0.660398 0.110436
H81   H     H_    0.326695 0.320542 0.534096 0.155851
H82   H     H_    0.329578 0.312350 0.745966 0.185028
O55   O     O_3   0.760327 0.134563 0.063504 -0.633086
C95   C     C_3   0.817159 0.153320 0.153664 -0.111298
H83   H     H_    0.863099 0.130913 0.108359 0.149075
H84   H     H_    0.811373 0.139035 0.278931 0.175509
H85   H     H_    0.821999 0.207513 0.150862 0.221284
O56   O     O_3   0.764121 0.882219 0.654276 -0.640484
C96   C     C_3   0.824686 0.848224 0.647019 -0.018974
H86   H     H_    0.868136 0.881937 0.652881 0.112074
H87   H     H_    0.824217 0.818680 0.536194 0.161366
H88   H     H_    0.830232 0.813829 0.748733 0.186051
O57   O     O_3   0.908913 0.121057 0.457827 -0.628772
C97   C     C_3   0.890168 0.053863 0.455308 -0.344319
H89   H     H_    0.915715 0.026598 0.554476 0.171503
H90   H     H_    0.898838 0.029280 0.338984 0.144886
H91   H     H_    0.836428 0.052274 0.472830 0.194205
O58   O     O_3   0.904451 0.872040 0.998511 -0.614919
C98   C     C_3   0.883385 0.938611 0.005398 -0.240006
H92   H     H_    0.875486 0.959655 0.884068 0.141960
H93   H     H_    0.918831 0.969794 0.076807 0.128493
H94   H     H_    0.835476 0.939758 0.064928 0.180264
O59   O     O_3   0.400124 0.629807 0.458511 -0.617951
C99   C     C_3   0.380257 0.563151 0.468182 -0.340123
H95   H     H_    0.408801 0.536796 0.564245 0.165540
H96   H     H_    0.384467 0.536243 0.352969 0.144895
H97   H     H_    0.327628 0.563344 0.498279 0.192706
O60   O     O_3   0.400239 0.373070 0.000950 -0.613620
C100  C     C_3   0.380531 0.440194 0.008288 -0.217519
H98   H     H_    0.374746 0.461807 0.887063 0.137698
H99   H     H_    0.415888 0.470337 0.082531 0.120195
H100  H     H_    0.331890 0.442846 0.064653 0.187338
H101  H     H_    0.995755 0.098606 0.750382 0.232558
H102  H     H_    0.995790 0.913739 0.291810 0.238210
H103  H     H_    0.493787 0.593290 0.751385 0.234882
H104  H     H_    0.485171 0.419206 0.296113 0.238490
H105  H     H_    0.819209 0.805035 0.266366 0.111904
H106  H     H_    0.815470 0.198997 0.771800 0.166939
H107  H     H_    0.319411 0.305213 0.266693 0.112642
H108  H     H_    0.319040 0.696117 0.765201 0.168959
H109  H     H_    0.236905 0.347925 0.083443 0.165987
H110  H     H_    0.238634 0.651508 0.575340 0.144360
H111  H     H_    0.735991 0.847231 0.083928 0.160096
H112  H     H_    0.734705 0.154419 0.585091 0.167871
H113  H     H_    0.008854 0.095626 0.460427 0.069709
H114  H     H_    0.004607 0.895576 0.006224 0.075353
H115  H     H_    0.499070 0.600203 0.459580 0.067660
H116  H     H_    0.500694 0.393603 0.019359 0.070614
O61   O     O_3   0.038730 0.148773 0.028525 -0.623402
C101  C     C_3   0.103584 0.156536 0.977139 -0.235976
H117  H     H_    0.119109 0.208765 0.995118 0.179356
H118  H     H_    0.108277 0.140702 0.850979 0.102836
H119  H     H_    0.137152 0.124950 0.051332 0.162173
O62   O     O_3   0.051571 0.824661 0.520030 -0.570446
C102  C     C_3   0.102498 0.857501 0.441675 -0.297062
H120  H     H_    0.097324 0.911928 0.457622 0.139728
H121  H     H_    0.103568 0.845055 0.312822 0.113936
H122  H     H_    0.150516 0.842795 0.498955 0.193434
O63   O     O_3   0.549198 0.664755 0.012253 -0.592396
C103  C     C_3   0.600370 0.634069 0.928420 -0.306300
H123  H     H_    0.603286 0.651678 0.803744 0.123923
H124  H     H_    0.593860 0.579325 0.928928 0.163411
H125  H     H_    0.648168 0.645127 0.991530 0.188779
O64   O     O_3   0.550475 0.331063 0.508838 -0.582116
C104  C     C_3   0.597565 0.366132 0.422372 -0.342337
H126  H     H_    0.590006 0.420372 0.436974 0.154440
H127  H     H_    0.596551 0.352757 0.293814 0.127134
H128  H     H_    0.647404 0.354512 0.473873 0.192082
H129  H     H_    0.919105 0.144407 0.746597 0.272187
H130  H     H_    0.913988 0.884599 0.329383 0.262240
H131  H     H_    0.413004 0.625764 0.787127 0.269648
H132  H     H_    0.406055 0.384939 0.338577 0.254502
H133  H     H_    0.842812 0.462301 0.706317 0.016563
H134  H     H_    0.839715 0.537693 0.203248 0.018432
H135  H     H_    0.337015 0.962631 0.700331 0.024416
H136  H     H_    0.337318 0.038285 0.201593 0.021117

loop_
_geom_bond_atom_site_label_1
_geom_bond_atom_site_label_2
_geom_bond_distance
_ccdc_geom_bond_type
C3    H115  1.113499 S    
H2    C30   1.112467 S    
C15   H19   1.110558 S    
C24   C28   1.516682 S    
P5    O37   1.746264 S    
P7    O39   1.746693 S    
C102  H121  1.111561 S    
C35   H111  1.079640 S    
P8    O40   1.749036 S    
P9    O33   1.538321 D    
O23   P16   1.742478 S    
C87   H59   1.079809 S    
C42   C46   1.393466 A    
C19   H23   1.117977 S    
O10   Ba2   2.782077 S    
C11   H103  1.109019 S    
O59   C99   1.405752 S    
C41   H45   1.082402 S    
O14   P13   1.544673 D    
P13   C46   1.832886 S    
C37   C41   1.395383 A    
C3    C31   1.517869 S    
P16   C47   1.836357 S    
O12   Ba4   2.782077 S    
C44   H48   1.082205 S    
C40   C44   1.399176 A    
C1    C29   1.519292 S    
C99   H95   1.111007 S    
C6    H10   1.114229 S    
C93   H78   1.108592 S    
C39   C43   1.397160 A    
P4    O8    1.566447 S    
Ba3   O48   2.968031 S    
C103  H125  1.108800 S    
Ba1   O46   2.968031 S    
C35   C65   1.411802 A    
C22   C26   1.517173 S    
C49   H49   1.079714 S    
P5    O25   1.534583 D    
C53   C57   1.422706 A    
O1    Ba1   2.847333 S    
C93   H79   1.107122 S    
C15   H135  1.107200 S    
C52   C56   1.405369 A    
C14   H18   1.109955 S    
C55   C59   1.422495 A    
C64   C88   1.411227 A    
O15   P16   1.543509 D    
C20   H64   1.107654 S    
C70   C74   1.399491 A    
C10   H14   1.109375 S    
C102  H120  1.108668 S    
O44   C8    1.408107 S    
O19   C23   1.391868 S    
C91   H72   1.113046 S    
C86   H58   1.080553 S    
O4    Ba4   2.853892 S    
C13   H133  1.108334 S    
C62   C66   1.422440 A    
C101  H117  1.106758 S    
C48   C52   1.396144 A    
C94   H82   1.103974 S    
P3    Ba3   3.435538 S    
P9    C78   1.838434 S    
Ba2   O46   2.800078 S    
C26   O54   1.401258 S    
H4    C32   1.111822 S    
C27   H35   1.117946 S    
Ba3   O47   2.802164 S    
C33   C67   1.411954 A    
C74   H54   1.082417 S    
C38   C58   1.437941 A    
C99   H97   1.103498 S    
P4    Ba4   3.440195 S    
C56   C86   1.415265 A    
O2    Ba2   2.853892 S    
C67   C83   1.405030 A    
P3    O7    1.564853 S    
P11   O35   1.541285 D    
C62   C70   1.436962 A    
C4    H116  1.111661 S    
O11   Ba3   2.789913 S    
C4    O60   1.410315 S    
C49   C53   1.404666 A    
C64   C68   1.421706 A    
C75   H55   1.082255 S    
C95   H83   1.111139 S    
C82   H106  1.083997 S    
P2    C38   1.873209 S    
O24   P15   1.746207 S    
C5    C9    1.523884 S    
C65   C81   1.405551 A    
C7    C11   1.535690 S    
O42   C6    1.407369 S    
C37   C57   1.436486 A    
C21   H29   1.111558 S    
O57   C97   1.406138 S    
C40   C60   1.437871 A    
C98   H94   1.107152 S    
C104  H127  1.111982 S    
P2    Ba2   3.440195 S    
C39   C59   1.436965 A    
O64   C104  1.411763 S    
C17   H61   1.109014 S    
O53   C93   1.409785 S    
C26   H34   1.110874 S    
C76   H56   1.082340 S    
C2    H114  1.113073 S    
C31   H43   1.112691 S    
C68   C84   1.405541 A    
Ba4   O47   2.970732 S    
C15   C19   1.524992 S    
P6    O38   1.743603 S    
O40   C15   1.399201 S    
P8    O28   1.538031 D    
P9    O29   1.745399 S    
O3    Ba3   2.847333 S    
C92   H74   1.111284 S    
P10   O34   1.540821 D    
C103  H124  1.110588 S    
C79   C83   1.397151 A    
P4    C40   1.874460 S    
C42   H46   1.082242 S    
C43   C47   1.392190 A    
C44   C48   1.394953 A    
C52   H52   1.081829 S    
C11   H131  1.107245 S    
O11   P16   1.745877 S    
C89   H67   1.106837 S    
C2    C30   1.519650 S    
O23   C31   1.402107 S    
O21   C29   1.402043 S    
P2    O18   1.740762 S    
O49   C89   1.405974 S    
C27   O55   1.403203 S    
C12   H132  1.108819 S    
C19   H63   1.108106 S    
C5    H9    1.121164 S    
P6    O26   1.538031 D    
C95   H85   1.096294 S    
P6    C69   1.867945 S    
C90   H69   1.108899 S    
C63   C87   1.411013 A    
C54   C58   1.422342 A    
P12   C79   1.844175 S    
P9    O41   1.753795 S    
C61   C85   1.411082 A    
C17   H21   1.117191 S    
O13   P14   1.542702 D    
C21   H25   1.106146 S    
O54   C94   1.404840 S    
C89   H66   1.112237 S    
C23   H27   1.109818 S    
C98   H92   1.111655 S    
C69   C73   1.399399 A    
C97   H89   1.110635 S    
O10   P13   1.746824 S    
C88   H60   1.080044 S    
C34   C68   1.412055 A    
C72   C76   1.399940 A    
C96   H88   1.104487 S    
C34   C58   1.406736 A    
C8    C12   1.536246 S    
C78   C82   1.397146 A    
C61   C65   1.421806 A    
C20   H24   1.116741 S    
P5    C70   1.871445 S    
P6    O45   1.568829 S    
C75   C79   1.396321 A    
P8    C71   1.870664 S    
C73   C77   1.394476 A    
O60   C100  1.409774 S    
C99   H96   1.113613 S    
O50   C90   1.407743 S    
C100  H100  1.108807 S    
C9    H101  1.109525 S    
H3    C31   1.113026 S    
C27   H39   1.114248 S    
C16   C20   1.521196 S    
Ba1   Ba2   4.616586 S    
O39   C16   1.399736 S    
C12   H16   1.110064 S    
C97   H91   1.103248 S    
O55   C95   1.405808 S    
P1    O1    1.538974 D    
C76   C80   1.394688 A    
C19   O51   1.416568 S    
P10   O42   1.749210 S    
P3    O3    1.538974 D    
O25   Ba1   2.857661 S    
P5    O46   1.570451 S    
P4    O20   1.740709 S    
C63   C71   1.434236 A    
C18   H22   1.118009 S    
O27   Ba3   2.857661 S    
C36   H112  1.079864 S    
C1    O57   1.405094 S    
C61   C69   1.434189 A    
O9    P14   1.749676 S    
C64   C72   1.436143 A    
C50   C54   1.403789 A    
O29   Ba1   2.780246 S    
O5    Ba2   2.802055 S    
O24   C32   1.405511 S    
P1    C37   1.859659 S    
O7    Ba4   2.802055 S    
O20   C24   1.394587 S    
C80   C84   1.396425 A    
C5    O61   1.415877 S    
C50   H50   1.081357 S    
C6    O62   1.417604 S    
C21   C25   1.530175 S    
C101  H118  1.113297 S    
C23   C27   1.513350 S    
C102  H122  1.108489 S    
C94   H81   1.102752 S    
C33   C57   1.410463 A    
O63   C103  1.412928 S    
P11   C80   1.841999 S    
P1    O5    1.564853 S    
O32   Ba4   2.788058 S    
O8    Ba3   2.799972 S    
C30   H42   1.112117 S    
C7    O63   1.418324 S    
C13   H17   1.109532 S    
C1    H5    1.111933 S    
C24   H28   1.106050 S    
C101  H119  1.106399 S    
C3    H7    1.113339 S    
C62   C86   1.410529 A    
C9    H13   1.110717 S    
C9    H129  1.101294 S    
P10   O30   1.744084 S    
C93   H77   1.110405 S    
P12   O44   1.752300 S    
O21   P14   1.741879 S    
C85   H57   1.080049 S    
C33   H109  1.079813 S    
O26   Ba2   2.851053 S    
P1    Ba1   3.435538 S    
C45   C49   1.395297 A    
C95   H84   1.102812 S    
C43   H47   1.082317 S    
C29   H41   1.113969 S    
O28   Ba4   2.851053 S    
P15   C48   1.839572 S    
O30   Ba2   2.788058 S    
O6    Ba1   2.799972 S    
C32   H44   1.111200 S    
O22   C30   1.403366 S    
C84   H108  1.080771 S    
C28   H40   1.118624 S    
H1    C29   1.113306 S    
C24   H32   1.111482 S    
C53   C87   1.412706 A    
C73   H53   1.082333 S    
C11   H15   1.110282 S    
C98   H93   1.112387 S    
P7    O27   1.534583 D    
C104  H126  1.109299 S    
P7    C72   1.870566 S    
O41   C5    1.410355 S    
C51   H51   1.081213 S    
C91   H71   1.112756 S    
P5    Ba1   3.442930 S    
O43   C7    1.410553 S    
C55   C85   1.412939 A    
C41   C45   1.389583 A    
P7    Ba3   3.442930 S    
O37   C14   1.399747 S    
C18   O50   1.415222 S    
C56   C60   1.424357 A    
C36   C66   1.412181 A    
Ba4   O48   2.800078 S    
Ba3   Ba4   4.616586 S    
O17   C21   1.398915 S    
P1    O17   1.747312 S    
C6    C10   1.534897 S    
O61   C101  1.405776 S    
P3    O19   1.736255 S    
C66   C82   1.404101 A    
Ba2   O45   2.970732 S    
P4    O4    1.535523 D    
P8    Ba4   3.438196 S    
C100  H99   1.112144 S    
O52   C92   1.408479 S    
P8    O47   1.568829 S    
C22   H30   1.111376 S    
P7    O48   1.570451 S    
C96   H86   1.111974 S    
O31   Ba3   2.780246 S    
C18   H62   1.108277 S    
C25   H33   1.114614 S    
C10   H102  1.108990 S    
C14   C18   1.521510 S    
C90   H68   1.110760 S    
C16   H136  1.107374 S    
C71   C75   1.400667 A    
P2    O2    1.535523 D    
C13   C17   1.519757 S    
P6    Ba2   3.438196 S    
P11   O43   1.752961 S    
C35   C59   1.411144 A    
P12   O36   1.541191 D    
C63   C67   1.421962 A    
O38   C13   1.399070 S    
C16   H20   1.110270 S    
C4    H8    1.113908 S    
C46   C50   1.395278 A    
C104  H128  1.107560 S    
C97   H90   1.113482 S    
O18   C22   1.393518 S    
C91   H73   1.109412 S    
C14   H134  1.107815 S    
C96   H87   1.103034 S    
C51   C55   1.405682 A    
C28   O56   1.401795 S    
O56   C96   1.405072 S    
P14   C45   1.832564 S    
C20   O52   1.415881 S    
C8    H12   1.113195 S    
C54   C88   1.414441 A    
C4    C32   1.523997 S    
C23   H31   1.110061 S    
C92   H75   1.109548 S    
C47   C51   1.395855 A    
C92   H76   1.111490 S    
O9    Ba1   2.789913 S    
P2    O6    1.566447 S    
C103  H123  1.111082 S    
C8    O64   1.417939 S    
P10   C77   1.841642 S    
P11   O31   1.752640 S    
C22   H26   1.105734 S    
P12   O32   1.743589 S    
O62   C102  1.410574 S    
C2    H6    1.113448 S    
C2    O58   1.408835 S    
C3    O59   1.406370 S    
C81   H105  1.080982 S    
C94   H80   1.111315 S    
C12   H104  1.108177 S    
C83   H107  1.080245 S    
P3    C39   1.864736 S    
C10   H130  1.109656 S    
O22   P13   1.744469 S    
C7    H11   1.115812 S    
C34   H110  1.073160 S    
C25   H37   1.101870 S    
C77   C81   1.397373 A    
C36   C60   1.410730 A    
O16   P15   1.545106 D    
C89   H65   1.111042 S    
O58   C98   1.406963 S    
C74   C78   1.394174 A    
C90   H70   1.111437 S    
C38   C42   1.396772 A    
O51   C91   1.409597 S    
C17   O49   1.412316 S    
C26   H38   1.118391 S    
C100  H98   1.111459 S    
O12   P15   1.740747 S    
C1    H113  1.113692 S    
C28   H36   1.111603 S    
Ba1   O45   2.802164 S    
C25   O53   1.412009 S    
