data_mof_unit_60988.cif
_audit_creation_date              2012-12-11T18:22:17-0500
_audit_creation_method            fapswitch 2.2
_symmetry_space_group_name_H-M    P1
_symmetry_Int_Tables_number       1
_space_group_crystal_system       triclinic
_cell_length_a                    8.270323
_cell_length_b                    14.332562
_cell_length_c                    15.014408
_cell_angle_alpha                 95.217062
_cell_angle_beta                  97.358664
_cell_angle_gamma                 91.848628
_cell_volume                      1756.02370188

loop_
_atom_site_label
_atom_site_type_symbol
_atom_type_description
_atom_site_fract_x
_atom_site_fract_y
_atom_site_fract_z
_atom_type_partial_charge
Ba1   Ba    Ba6+2 0.833400 0.543310 0.453520 1.618930
Ba2   Ba    Ba6+2 0.356420 0.456770 0.546480 1.613374
C1    C     C_3   0.565174 0.886743 0.210063 0.511101
C2    C     C_R   0.906372 0.451710 0.928402 -0.035323
C3    C     C_R   0.046596 0.463989 0.113371 -0.032037
C4    C     C_3   0.023737 0.737290 0.195989 0.336774
C5    C     C_R   0.900166 0.411550 0.082283 -0.033592
C6    C     C_R   0.829856 0.407336 0.992373 -0.105135
C7    C     C_R   0.112303 0.475598 0.206744 0.058520
C8    C     C_R   0.261621 0.525337 0.232115 -0.303220
C9    C     C_R   0.073358 0.534932 0.798759 0.029034
C10   C     C_R   0.145131 0.540797 0.890864 -0.031137
C11   C     C_R   0.060769 0.499279 0.955875 0.011163
C12   C     C_3   0.552632 0.789898 0.243227 0.380960
C13   C     C_R   0.295214 0.589246 0.920917 -0.031878
C14   C     C_R   0.364295 0.594169 0.011124 -0.076190
C15   C     C_R   0.283617 0.553848 0.076229 -0.039280
C16   C     C_3   0.989423 0.763489 0.099678 -0.341101
C17   C     C_R   0.130081 0.506029 0.048652 0.001565
C18   C     C_R   0.350939 0.560807 0.168348 -0.003615
C19   C     C_R   0.913926 0.498047 0.778160 -0.272269
C20   C     C_R   0.709667 0.936336 0.541263 -0.023609
C21   C     C_R   0.512065 0.799786 0.495474 0.058085
C22   C     C_R   0.360102 0.766373 0.449234 -0.290897
C23   C     C_3   0.457616 0.324003 0.274548 0.294499
C24   C     C_R   0.249452 0.827687 0.410616 0.013342
C25   C     C_R   0.295079 0.921768 0.409890 -0.138817
C26   C     C_R   0.449641 0.956490 0.450940 -0.012375
C27   C     C_R   0.558637 0.896772 0.496741 -0.034693
C28   C     C_3   0.211335 0.742631 0.639248 0.307349
C29   C     C_R   0.646363 0.089278 0.489017 -0.049612
C30   C     C_R   0.756633 0.030536 0.534965 0.001565
C31   C     C_R   0.692233 0.184723 0.486168 0.017822
C32   C     C_R   0.849468 0.218459 0.523878 -0.078815
C33   C     C_R   0.960313 0.160374 0.567997 0.021830
C34   C     C_3   0.419580 0.300435 0.172924 -0.380219
C35   C     C_R   0.912967 0.066689 0.574081 -0.169194
C36   C     C_R   0.493699 0.051112 0.447731 -0.041104
C37   C     C_3   0.232797 0.848874 0.657074 -0.386651
C38   C     C_3   0.929383 0.245041 0.322641 0.291775
C39   C     C_3   0.855437 0.155313 0.268726 -0.349197
C40   C     C_3   0.731969 0.681144 0.724636 0.302804
C41   C     C_3   0.749732 0.713506 0.825010 -0.377957
C42   C     C_3   0.864993 0.371836 0.601071 0.023979
C43   C     C_3   0.173770 0.265361 0.798174 0.356960
C44   C     C_3   0.183184 0.239799 0.894737 -0.369226
C45   C     C_3   0.666815 0.215914 0.768653 0.315874
C46   C     C_3   0.637051 0.118427 0.797188 -0.346802
C47   C     C_R   0.832763 0.451577 0.837950 0.008050
F1    F     F_    0.459960 0.890097 0.131120 -0.695546
H1    H     H_    0.634547 0.790411 0.307999 0.001648
H2    H     H_    0.854596 0.667955 0.705265 0.015988
H3    H     H_    0.651045 0.616673 0.712039 0.064385
H4    H     H_    0.692005 0.902884 0.197411 0.045865
H5    H     H_    0.831378 0.777594 0.839909 0.129484
H6    H     H_    0.802543 0.658088 0.865277 0.064128
H7    H     H_    0.628305 0.729285 0.845389 0.130476
H8    H     H_    0.424482 0.775827 0.254725 -0.078256
H9    H     H_    0.532087 0.940460 0.261886 -0.055862
H10   H     H_    0.345514 0.347438 0.301461 0.033182
H11   H     H_    0.553036 0.381556 0.287746 0.066609
H12   H     H_    0.347081 0.868282 0.703389 0.136146
H13   H     H_    0.319508 0.245543 0.157356 0.142227
H14   H     H_    0.381383 0.363544 0.139720 0.058134
H15   H     H_    0.529821 0.274533 0.145178 0.114971
H16   H     H_    0.023656 0.705841 0.052100 0.071701
H17   H     H_    0.275176 0.316723 0.794638 0.117636
H18   H     H_    0.055865 0.298455 0.780640 -0.062575
H19   H     H_    0.300324 0.206564 0.914296 0.145247
H20   H     H_    0.176270 0.303956 0.941214 0.074804
H21   H     H_    0.080031 0.190302 0.901031 0.117475
H22   H     H_    0.800507 0.230189 0.774577 -0.038849
H23   H     H_    0.239001 0.881060 0.593242 0.062864
H24   H     H_    0.611249 0.215868 0.697176 0.075431
H25   H     H_    0.692749 0.065778 0.752855 0.071085
H26   H     H_    0.503880 0.101498 0.791420 0.152548
H27   H     H_    0.951876 0.671526 0.200832 0.088365
H28   H     H_    0.692666 0.115003 0.868118 0.121070
H29   H     H_    0.835468 0.374066 0.126919 0.101945
H30   H     H_    0.713561 0.369522 0.974122 0.109225
H31   H     H_    0.481006 0.631582 0.029110 0.116923
H32   H     H_    0.360816 0.625182 0.875530 0.106968
H33   H     H_    0.313648 0.531928 0.302386 0.074701
H34   H     H_    0.127545 0.877290 0.688171 0.122140
H35   H     H_    0.847782 0.509180 0.714544 -0.011319
H36   H     H_    0.323160 0.693153 0.448469 0.070355
H37   H     H_    0.208885 0.968073 0.378219 0.077708
H38   H     H_    0.997271 0.022498 0.610091 0.080724
H39   H     H_    0.155994 0.725037 0.210492 -0.032691
H40   H     H_    0.793812 0.894729 0.580008 0.101474
H41   H     H_    0.407714 0.094111 0.411659 0.093382
H42   H     H_    0.857582 0.775546 0.082554 0.146935
H43   H     H_    0.061750 0.828272 0.092142 0.157263
H44   H     H_    0.320956 0.714402 0.613713 0.012867
H45   H     H_    0.829547 0.285687 0.346232 0.042426
H46   H     H_    0.102776 0.725457 0.588207 0.072672
H47   H     H_    0.996813 0.330364 0.494885 0.210799
H48   H     H_    0.967076 0.417524 0.625742 0.106780
H49   H     H_    0.845234 0.329360 0.657125 -0.023019
H50   H     H_    0.778219 0.425885 0.586716 0.157008
H51   H     H_    0.015773 0.224702 0.379551 0.004566
H52   H     H_    0.769610 0.172561 0.209971 0.130053
H53   H     H_    0.787983 0.113431 0.311867 0.064721
H54   H     H_    0.953310 0.112533 0.244190 0.123976
N1    N     N_2   0.891711 0.314438 0.521254 -0.443176
O1    O     O_2   0.841230 0.444160 0.280430 -0.481485
O2    O     O_2   0.305409 0.171402 0.587266 -0.479296
O3    O     O_3   0.187879 0.184133 0.740205 -0.603862
O4    O     O_3   0.112860 0.447350 0.393710 -0.496803
O5    O     O_3   0.560610 0.613730 0.540770 -0.493915
O6    O     O_2   0.387460 0.270290 0.467210 -0.454407
O7    O     O_3   0.511909 0.243510 0.313461 -0.647075
O8    O     O_2   0.492402 0.450602 0.826640 -0.490918
O9    O     O_3   0.595796 0.281987 0.825035 -0.605669
O10   O     O_3   0.597940 0.615700 0.327690 -0.484430
O11   O     O_2   0.689221 0.549494 0.172493 -0.491124
O12   O     O_3   0.663503 0.752134 0.676773 -0.639978
O13   O     O_3   0.017367 0.294896 0.268028 -0.643771
O14   O     O_3   0.600675 0.722806 0.178669 -0.600147
O15   O     O_2   0.802240 0.729740 0.532850 -0.477946
O16   O     O_3   0.017180 0.664790 0.371080 -0.485612
O17   O     O_2   0.916103 0.832022 0.422197 -0.494890
O18   O     O_3   0.977704 0.810179 0.255496 -0.603405
O19   O     O_2   0.348480 0.555870 0.719620 -0.461860
O20   O     O_3   0.076830 0.552730 0.606300 -0.526047
O21   O     O_3   0.591760 0.384380 0.672320 -0.495735
O22   O     O_3   0.191140 0.705919 0.720356 -0.630023
O23   O     O_3   0.629090 0.386350 0.459240 -0.482927
O24   O     O_3   0.172520 0.335290 0.628920 -0.507181
P1    P     P_3+3 0.018600 0.416790 0.295970 0.964620
P2    P     P_3+3 0.635660 0.716530 0.560900 0.966111
P3    P     P_3+3 0.040665 0.784946 0.366229 0.942552
P4    P     P_3+3 0.171090 0.583290 0.704030 0.957766
P5    P     P_3+3 0.157428 0.212334 0.628223 0.959145
P6    P     P_3+3 0.559007 0.610896 0.210550 0.947432
P7    P     P_3+3 0.556584 0.269215 0.430429 0.946390
P8    P     P_3+3 0.630218 0.393893 0.790976 0.927291

loop_
_geom_bond_atom_site_label_1
_geom_bond_atom_site_label_2
_ccdc_geom_bond_type
C45   O9    S    
C38   O13   S    
O21   P8    S    
C20   C27   A    
C47   P8    S    
O18   P3    S    
O15   P2    D    
C46   H26   S    
C35   H38   S    
Ba1   O23   S    
C2    C6    A    
C15   C18   A    
C19   C47   A    
C5    C6    A    
Ba2   O4    S    
O11   P6    D    
C42   N1    S    
O3    P5    S    
C24   C25   A    
C20   C30   A    
O19   P4    D    
C21   C27   A    
C26   C27   A    
C33   C35   A    
Ba1   O20   S    
C37   H34   S    
C32   C33   A    
O2    P5    D    
O23   P7    S    
C40   H3    S    
C1    H4    S    
O6    P7    D    
C13   C14   A    
C8    H33   S    
Ba2   O24   S    
C39   H52   S    
Ba1   Ba2   S    
O9    P8    S    
C46   H28   S    
C2    C11   A    
C44   H19   S    
C28   H46   S    
C23   O7    S    
Ba1   O4    S    
C38   H51   S    
C42   H48   S    
C29   C30   A    
C8    C18   A    
C14   C15   A    
C43   H17   S    
C21   C22   A    
C29   C31   A    
C23   H10   S    
C34   H13   S    
C7    C8    A    
C43   O3    S    
Ba1   O1    S    
H47   N1    S    
C46   H25   S    
C4    O18   S    
O7    P7    S    
C4    C16   S    
C33   P5    S    
O17   P3    D    
C1    F1    S    
C13   H32   S    
C12   H8    S    
C19   H35   S    
Ba2   O6    S    
Ba2   P4    S    
C11   C17   A    
C45   C46   S    
Ba1   P1    S    
C3    C5    A    
C34   H15   S    
C4    H27   S    
C43   C44   S    
C36   H41   S    
C9    C19   A    
O14   P6    S    
C39   H53   S    
Ba1   O15   S    
C3    C7    A    
O13   P1    S    
Ba1   O5    S    
C12   H1    S    
C10   C13   A    
C26   C36   A    
C43   H18   S    
C31   C32   A    
C20   H40   S    
C21   P2    S    
O5    P2    S    
C23   H11   S    
C30   C35   A    
C25   H37   S    
C44   H21   S    
C1    C12   S    
Ba2   O21   S    
C41   H5    S    
C38   C39   S    
O8    P8    D    
C40   C41   S    
C38   H45   S    
O4    P1    S    
C24   P3    S    
C5    H29   S    
O20   P4    S    
O1    P1    D    
C37   H12   S    
C1    H9    S    
C28   O22   S    
Ba2   O5    S    
C32   N1    S    
C42   H49   S    
O22   P4    S    
C45   H24   S    
C22   C24   A    
Ba1   P2    S    
C9    C10   A    
C29   C36   A    
C40   O12   S    
C3    C17   A    
Ba2   O19   S    
C16   H16   S    
C4    H39   S    
C39   H54   S    
C2    C47   A    
C16   H42   S    
C9    P4    S    
C28   H44   S    
C34   H14   S    
C42   H50   S    
C31   P7    S    
O10   P6    S    
C14   H31   S    
C15   C17   A    
C28   C37   S    
C37   H23   S    
C18   P6    S    
O12   P2    S    
Ba1   O16   S    
C45   H22   S    
C44   H20   S    
C41   H7    S    
C23   C34   S    
O24   P5    S    
Ba2   O20   S    
C7    P1    S    
C41   H6    S    
C10   C11   A    
C12   O14   S    
C25   C26   A    
C6    H30   S    
C16   H43   S    
Ba1   O10   S    
O16   P3    S    
C22   H36   S    
C40   H2    S    
Ba2   O23   S    
