data_mof_unit_20165.cif
_audit_creation_date              2012-12-11T14:42:06-0500
_audit_creation_method            fapswitch 2.2
_symmetry_space_group_name_H-M    P1
_symmetry_Int_Tables_number       1
_space_group_crystal_system       triclinic
_cell_length_a                    18.868157
_cell_length_b                    10.996654
_cell_length_c                    18.739356
_cell_angle_alpha                 90.229267
_cell_angle_beta                  90.226771
_cell_angle_gamma                 89.910564
_cell_volume                      3888.09892982

loop_
_atom_site_label
_atom_site_type_symbol
_atom_type_description
_atom_site_fract_x
_atom_site_fract_y
_atom_site_fract_z
_atom_type_partial_charge
C1    C     C_R   0.726040 0.957665 0.854428 0.569880
C2    C     C_R   0.269177 0.946364 0.151258 0.540693
C3    C     C_R   0.229417 0.449026 0.850125 0.562277
C4    C     C_R   0.770325 0.450763 0.149106 0.553940
C5    C     C_R   0.683623 0.439362 0.046946 0.144289
C6    C     C_R   0.319363 0.406398 0.946150 0.173557
C7    C     C_R   0.178367 0.914342 0.053738 0.168038
C8    C     C_R   0.806672 0.923819 0.956913 0.180441
C9    C     C_R   0.743175 0.393623 0.084029 -0.017236
C10   C     C_R   0.253030 0.387527 0.915054 -0.012098
C11   C     C_R   0.241024 0.880154 0.088316 -0.031241
C12   C     C_R   0.738346 0.930294 0.928765 -0.011841
C13   C     C_R   0.787731 0.310054 0.051257 -0.156241
C14   C     C_R   0.201729 0.323610 0.952034 -0.150851
C15   C     C_R   0.285982 0.799143 0.054214 -0.140522
C16   C     C_R   0.679149 0.933807 0.973656 -0.139649
C17   C     C_R   0.784845 0.291745 0.978865 0.112960
C18   C     C_R   0.207933 0.303933 0.023634 0.127819
C19   C     C_R   0.283708 0.786237 0.980972 0.118606
C20   C     C_R   0.686696 0.924299 0.046390 0.139610
C21   C     C_R   0.730408 0.346965 0.937710 -0.037989
C22   C     C_R   0.269328 0.343397 0.061272 -0.057551
C23   C     C_R   0.228617 0.841187 0.940231 -0.060254
C24   C     C_R   0.754588 0.917108 0.075971 -0.047672
C25   C     C_R   0.498704 0.276224 0.536199 -0.187749
C26   C     C_R   0.501071 0.276444 0.464087 -0.188294
C27   C     C_R   0.998702 0.776221 0.536199 -0.187737
C28   C     C_R   0.001067 0.776439 0.464087 -0.188035
C29   C     C_R   0.499648 0.167139 0.426080 0.012188
C30   C     C_R   0.500842 0.166744 0.573584 0.012273
C31   C     C_R   0.999641 0.667134 0.426081 0.012857
C32   C     C_R   0.000842 0.666742 0.573585 0.012499
C33   C     C_R   0.502833 0.054789 0.462266 0.167712
C34   C     C_R   0.498585 0.054543 0.536695 0.167842
C35   C     C_R   0.002819 0.554782 0.462269 0.168108
C36   C     C_R   0.998581 0.554539 0.536698 0.167853
C37   C     C_R   0.780560 0.275605 0.521436 -0.092881
C38   C     C_R   0.220200 0.274541 0.478305 -0.092989
C39   C     C_R   0.280573 0.775633 0.521443 -0.093076
C40   C     C_R   0.720182 0.774582 0.478294 -0.092950
C41   C     C_R   0.787349 0.298291 0.449025 0.158941
C42   C     C_R   0.213406 0.297258 0.550808 0.159421
C43   C     C_R   0.287369 0.798313 0.449032 0.159056
C44   C     C_R   0.713389 0.797291 0.550796 0.158854
C45   C     C_R   0.528551 0.178047 0.849354 0.580956
C46   C     C_R   0.467985 0.176884 0.147680 0.564057
C47   C     C_R   0.029285 0.677056 0.850644 0.583890
C48   C     C_R   0.970879 0.675865 0.149287 0.586263
C49   C     C_R   0.743747 0.387309 0.415803 0.049327
C50   C     C_R   0.256588 0.386739 0.584237 0.050407
C51   C     C_R   0.243752 0.887300 0.415799 0.049562
C52   C     C_R   0.756580 0.886758 0.584228 0.050256
C53   C     C_R   0.682986 0.428998 0.453274 -0.043155
C54   C     C_R   0.317114 0.428934 0.546885 -0.044080
C55   C     C_R   0.182979 0.928961 0.453257 -0.043684
C56   C     C_R   0.817106 0.928952 0.546874 -0.044366
C57   C     C_R   0.676916 0.403434 0.526276 -0.151067
C58   C     C_R   0.323106 0.403634 0.473766 -0.152757
C59   C     C_R   0.176907 0.903413 0.526263 -0.151151
C60   C     C_R   0.823100 0.903646 0.473757 -0.152707
C61   C     C_R   0.728418 0.333523 0.561528 -0.018111
C62   C     C_R   0.271901 0.333167 0.438368 -0.018819
C63   C     C_R   0.228419 0.833530 0.561526 -0.018122
C64   C     C_R   0.771892 0.833190 0.438362 -0.017226
C65   C     C_R   0.725298 0.317576 0.860951 0.548162
C66   C     C_R   0.274764 0.316868 0.138804 0.541767
C67   C     C_R   0.225092 0.817158 0.861448 0.549994
C68   C     C_R   0.762088 0.865342 0.147334 0.571686
C69   C     C_R   0.730089 0.949258 0.649408 0.574089
C70   C     C_R   0.269958 0.949472 0.350636 0.567409
C71   C     C_R   0.230090 0.449256 0.649407 0.569685
C72   C     C_R   0.769957 0.449475 0.350638 0.566601
C73   C     C_R   0.528448 0.175649 0.645328 0.571473
C74   C     C_R   0.471697 0.175795 0.354524 0.569633
C75   C     C_R   0.028450 0.675649 0.645327 0.572939
C76   C     C_R   0.971695 0.675794 0.354525 0.567625
C77   C     C_R   0.725052 0.310787 0.638747 0.550977
C78   C     C_R   0.275086 0.310746 0.361073 0.553277
C79   C     C_R   0.225052 0.810793 0.638746 0.551545
C80   C     C_R   0.775083 0.810755 0.361072 0.550538
C81   C     C_2   0.493562 0.171263 0.917771 -0.092081
C82   C     C_2   0.495219 0.162095 0.074685 -0.071479
C83   C     C_2   0.997669 0.665013 0.921835 -0.072754
C84   C     C_2   0.004246 0.658691 0.078796 -0.073114
C85   C     C_2   0.469451 0.073904 0.030146 -0.045471
C86   C     C_2   0.485832 0.067466 0.953792 -0.082703
C87   C     C_2   0.992932 0.556648 0.038194 -0.071821
C88   C     C_2   0.997415 0.558636 0.958487 -0.080326
C89   C     C_R   0.678425 0.419772 0.972924 -0.051217
C90   C     C_R   0.326723 0.393792 0.021048 -0.063177
C91   C     C_R   0.173637 0.903565 0.978361 -0.058443
C92   C     C_R   0.815302 0.929758 0.031434 -0.044771
Cr1   Cr    Cr6+3 0.769270 0.163730 0.750710 1.170779
Cr2   Cr    Cr6+3 0.230730 0.163730 0.249290 1.164194
Cr3   Cr    Cr6+3 0.269270 0.663730 0.750710 1.170932
Cr4   Cr    Cr6+3 0.730730 0.663730 0.249290 1.163558
Cr5   Cr    Cr6+3 0.612620 0.009790 0.748780 1.138428
Cr6   Cr    Cr6+3 0.387380 0.009790 0.251220 1.154504
Cr7   Cr    Cr6+3 0.112620 0.509790 0.748780 1.136775
Cr8   Cr    Cr6+3 0.887380 0.509790 0.251220 1.150433
Cr9   Cr    Cr6+3 0.614160 0.322500 0.747710 1.111658
Cr10  Cr    Cr6+3 0.385840 0.322500 0.252290 1.095564
Cr11  Cr    Cr6+3 0.114160 0.822500 0.747710 1.106262
Cr12  Cr    Cr6+3 0.885840 0.822500 0.252290 1.101652
H1    H     H_    0.631658 0.437714 0.555513 0.166903
H2    H     H_    0.368042 0.438582 0.444556 0.167177
H3    H     H_    0.131641 0.937678 0.555493 0.166983
H4    H     H_    0.868039 0.938580 0.444549 0.167441
H5    H     H_    0.532163 0.229732 0.055192 0.153465
H6    H     H_    0.484578 0.256964 0.944752 0.193622
H7    H     H_    0.027304 0.738849 0.055313 0.167354
H8    H     H_    0.987057 0.749461 0.949112 0.192783
H9    H     H_    0.830950 0.268675 0.080761 0.165197
H10   H     H_    0.152502 0.297204 0.926407 0.170371
H11   H     H_    0.329713 0.758714 0.083258 0.208950
H12   H     H_    0.626432 0.945445 0.952139 0.146022
H13   H     H_    0.500184 0.364078 0.562396 0.178876
H14   H     H_    0.499001 0.364373 0.438397 0.177769
H15   H     H_    0.000182 0.864076 0.562395 0.178799
H16   H     H_    0.998996 0.864369 0.438398 0.177775
H17   H     H_    0.816697 0.212704 0.546699 0.159200
H18   H     H_    0.184355 0.211240 0.452834 0.159782
H19   H     H_    0.316720 0.712751 0.546712 0.159218
H20   H     H_    0.684330 0.711298 0.452819 0.160004
O1    O     O_R   0.784320 0.290430 0.830510 -0.404874
O2    O     O_R   0.215680 0.290430 0.169490 -0.405680
O3    O     O_R   0.284320 0.790430 0.830510 -0.402450
O4    O     O_R   0.715680 0.790430 0.169490 -0.420552
O5    O     O_R   0.554640 0.080370 0.673500 -0.454273
O6    O     O_R   0.445360 0.080370 0.326500 -0.456573
O7    O     O_R   0.054640 0.580370 0.673500 -0.454560
O8    O     O_R   0.945360 0.580370 0.326500 -0.457745
O9    O     O_R   0.543920 0.282180 0.666790 -0.509098
O10   O     O_R   0.456080 0.282180 0.333210 -0.509704
O11   O     O_R   0.043920 0.782180 0.666790 -0.508795
O12   O     O_R   0.956080 0.782180 0.333210 -0.510079
O13   O     O_R   0.679040 0.374160 0.674430 -0.466336
O14   O     O_R   0.320960 0.374160 0.325570 -0.465656
O15   O     O_R   0.179040 0.874160 0.674430 -0.466656
O16   O     O_R   0.820960 0.874160 0.325570 -0.473740
O17   O     O_3   0.665350 0.165340 0.749070 -0.354190
O18   O     O_3   0.334650 0.165340 0.250930 -0.351672
O19   O     O_3   0.165350 0.665340 0.749070 -0.349760
O20   O     O_3   0.834650 0.665340 0.250930 -0.330879
O21   O     O_R   0.762640 0.040960 0.825200 -0.451900
O22   O     O_R   0.237360 0.040960 0.174800 -0.462952
O23   O     O_R   0.262640 0.540960 0.825200 -0.454681
O24   O     O_R   0.737360 0.540960 0.174800 -0.453709
O25   O     O_R   0.667400 0.923970 0.829950 -0.517539
O26   O     O_R   0.332600 0.923970 0.170050 -0.492918
O27   O     O_R   0.167400 0.423970 0.829950 -0.528758
O28   O     O_R   0.832600 0.423970 0.170050 -0.516377
O29   O     O_R   0.553960 0.081340 0.821780 -0.472379
O30   O     O_R   0.446040 0.081340 0.178220 -0.452957
O31   O     O_R   0.053960 0.581340 0.821780 -0.464930
O32   O     O_R   0.946040 0.581340 0.178220 -0.457476
O33   O     O_R   0.543180 0.283240 0.826740 -0.460414
O34   O     O_R   0.456820 0.283240 0.173260 -0.480905
O35   O     O_R   0.043180 0.783240 0.826740 -0.466258
O36   O     O_R   0.956820 0.783240 0.173260 -0.459837
O37   O     O_R   0.678360 0.375140 0.822710 -0.512533
O38   O     O_R   0.321640 0.375140 0.177290 -0.520089
O39   O     O_R   0.178360 0.875140 0.822710 -0.516678
O40   O     O_R   0.821640 0.875140 0.177290 -0.532008
O41   O     O_R   0.785050 0.289380 0.670560 -0.459673
O42   O     O_R   0.214950 0.289380 0.329440 -0.459490
O43   O     O_R   0.285050 0.789380 0.670560 -0.458799
O44   O     O_R   0.714950 0.789380 0.329440 -0.463958
O45   O     O_R   0.763320 0.039990 0.676930 -0.484905
O46   O     O_R   0.236680 0.039990 0.323070 -0.486525
O47   O     O_R   0.263320 0.539990 0.676930 -0.486406
O48   O     O_R   0.736680 0.539990 0.323070 -0.487709
O49   O     O_R   0.668130 0.922920 0.670000 -0.445145
O50   O     O_R   0.331870 0.922920 0.330000 -0.448112
O51   O     O_R   0.168130 0.422920 0.670000 -0.447103
O52   O     O_R   0.831870 0.422920 0.330000 -0.447948
C93   C     C_2   0.418274 0.982887 0.052914 0.312729
H21   H     H_    0.362651 0.000798 0.044056 0.080142
O53   O     O_2   0.438830 0.886303 0.077354 -0.415877
C94   C     C_2   0.484663 0.945466 0.918553 0.313292
H22   H     H_    0.505840 0.867126 0.946510 0.181101
O54   O     O_2   0.455763 0.930377 0.860745 -0.416943
C95   C     C_2   0.974299 0.437056 0.070393 0.301982
H23   H     H_    0.935116 0.379766 0.044858 0.129934
O55   O     O_2   0.005552 0.398816 0.122899 -0.399798
C96   C     C_2   0.997979 0.438726 0.920781 0.295689
H24   H     H_    0.027319 0.362864 0.943010 0.141946
O56   O     O_2   0.962261 0.422216 0.867099 -0.409806
Br1   Br    Br    0.856319 0.199895 0.399743 -0.435495
Br2   Br    Br    0.145023 0.198616 0.599986 -0.433522
Br3   Br    Br    0.356373 0.699955 0.399775 -0.431414
Br4   Br    Br    0.644991 0.698659 0.599959 -0.430261
C97   C     C_2   0.623313 0.494273 0.418802 0.226270
H25   H     H_    0.589619 0.553515 0.450452 0.141079
O57   O     O_2   0.607891 0.476210 0.356326 -0.447238
C98   C     C_2   0.376585 0.494621 0.581558 0.226159
H26   H     H_    0.409995 0.554063 0.550126 0.139247
O58   O     O_2   0.392224 0.476592 0.643911 -0.440333
C99   C     C_2   0.123302 0.994191 0.418761 0.226533
H27   H     H_    0.089595 0.053437 0.450394 0.140728
O59   O     O_2   0.107896 0.976089 0.356284 -0.442269
C100  C     C_2   0.876580 0.994641 0.581539 0.225934
H28   H     H_    0.909987 0.054079 0.550102 0.139177
O60   O     O_2   0.892226 0.976618 0.643890 -0.439706
C101  C     C_2   0.624024 0.488876 0.932795 0.328643
H29   H     H_    0.640053 0.554109 0.892685 0.134755
O61   O     O_2   0.561132 0.472940 0.943769 -0.378900
C102  C     C_2   0.389814 0.447106 0.056341 0.331993
H30   H     H_    0.383592 0.509518 0.100780 0.156164
O62   O     O_2   0.449393 0.424739 0.035314 -0.417044
C103  C     C_2   0.117228 0.971662 0.940567 0.322800
H31   H     H_    0.130852 0.032860 0.897538 0.134760
O63   O     O_2   0.055269 0.962045 0.957448 -0.380245
C104  C     C_2   0.885432 0.960689 0.062305 0.354239
H32   H     H_    0.888827 0.022671 0.107394 0.141935
O64   O     O_2   0.939821 0.917364 0.038647 -0.412988
Br5   Br    Br    0.610125 0.531739 0.095296 -0.295003
Br6   Br    Br    0.398251 0.435848 0.883199 -0.304542
Br7   Br    Br    0.098023 0.954013 0.112732 -0.308954
Br8   Br    Br    0.885575 0.908052 0.891810 -0.327826
Br9   Br    Br    0.866142 0.206168 0.942544 -0.394054
Br10  Br    Br    0.122536 0.236936 0.062219 -0.363478
Br11  Br    Br    0.367264 0.711094 0.943819 -0.351145
Br12  Br    Br    0.602636 0.924049 0.103522 -0.393935
Br13  Br    Br    0.518040 0.902972 0.412159 -0.334114
Br14  Br    Br    0.484501 0.902201 0.585766 -0.329744
Br15  Br    Br    0.017989 0.402948 0.412166 -0.332187
Br16  Br    Br    0.984510 0.402194 0.585771 -0.330877

loop_
_geom_bond_atom_site_label_1
_geom_bond_atom_site_label_2
_ccdc_geom_bond_type
Cr2   O22   S    
C79   O15   A    
C87   C88   S    
Cr6   O30   S    
C58   C62   A    
C55   C59   A    
C53   C97   S    
C14   C18   A    
C57   H1    S    
C35   C36   A    
C84   C87   D    
C50   C71   S    
Cr11  O35   S    
Cr10  O34   S    
C32   C75   S    
C76   O12   A    
C13   H9    S    
Cr3   O43   S    
C21   C89   A    
C101  H29   S    
Cr8   O28   S    
Cr3   O19   S    
C48   O36   A    
Cr1   O45   S    
C31   C76   S    
C50   C54   A    
C100  O60   D    
C2    O26   A    
C35   Br15  S    
C32   C36   A    
Cr7   O19   S    
C16   C20   A    
C34   Br14  S    
C77   O13   A    
C38   C42   A    
C33   Br13  S    
C95   O55   D    
C85   C86   S    
Cr6   O50   S    
C104  O64   D    
C27   H15   S    
C56   C100  S    
C77   O41   A    
C46   O34   A    
C29   C33   A    
C15   H11   S    
C39   H19   S    
C66   O38   A    
Cr10  O14   S    
C23   C67   S    
Cr11  O11   S    
C22   C66   S    
C9    C13   A    
C52   C69   S    
C46   C82   S    
C11   C15   A    
C55   C99   S    
C12   C16   A    
C61   C77   S    
C102  H30   S    
C93   O53   D    
C49   C72   S    
Cr7   O31   S    
Cr8   O52   S    
Cr12  O20   S    
Cr1   O21   S    
C8    C92   A    
C51   C70   S    
Cr5   O29   S    
C54   C98   S    
C68   O4    A    
C51   C55   A    
C81   C86   D    
C60   H4    S    
Cr10  O38   S    
C7    Br7   S    
Cr8   O32   S    
C101  O61   D    
C83   C88   D    
C48   O32   A    
C96   H24   S    
Cr9   O33   S    
C99   H27   S    
C36   Br16  S    
C6    Br6   S    
Cr6   O18   S    
C80   O16   A    
C64   C80   S    
Cr2   O42   S    
C1    C12   S    
C69   O49   A    
Cr12  O36   S    
Cr4   O24   S    
C2    C11   S    
C78   O14   A    
C41   C49   A    
C75   O7    A    
C94   O54   D    
C60   C64   A    
C7    C11   A    
Cr1   O1    S    
Cr2   O2    S    
C20   Br12  S    
C4    O28   A    
C73   O5    A    
C78   O42   A    
C84   H7    S    
Cr5   O49   S    
C100  H28   S    
C30   C34   A    
C67   O39   A    
Cr2   O18   S    
C82   H5    S    
C20   C24   A    
C45   O33   A    
C91   C103  S    
Cr8   O20   S    
C30   C73   S    
C53   C57   A    
C104  H32   S    
C98   H26   S    
C47   O35   A    
C29   C74   S    
C97   O57   D    
C25   C26   A    
C14   H10   S    
Cr7   O27   S    
C17   C21   A    
C66   O2    A    
Cr11  O19   S    
Cr11  O39   S    
C58   H2    S    
C65   O1    A    
C15   C19   A    
C95   H23   S    
Cr10  O10   S    
C5    C9    A    
C8    Br8   S    
C67   O3    A    
Cr4   O20   S    
Cr4   O4    S    
C48   C84   S    
C42   Br2   S    
C103  H31   S    
Cr1   O41   S    
C85   C93   S    
C8    C12   A    
C7    C91   A    
Cr6   O6    S    
Cr4   O44   S    
C33   C34   A    
C22   C90   A    
Cr3   O23   S    
C69   O45   A    
C40   H20   S    
C1    O25   A    
C70   O50   A    
Cr5   O17   S    
C38   H18   S    
C42   C50   A    
C37   H17   S    
C46   O30   A    
C98   O58   D    
C103  O63   D    
C73   O9    A    
C97   H25   S    
Cr6   O26   S    
Cr9   O9    S    
Cr2   O46   S    
C74   O6    A    
C28   H16   S    
Cr11  O15   S    
C24   C92   A    
C23   C91   A    
C59   C63   A    
Cr12  O16   S    
C45   O29   A    
C1    O21   A    
C96   O56   D    
C72   O48   A    
Cr1   O17   S    
C94   H22   S    
C19   C23   A    
C54   C58   A    
C25   C30   A    
Cr9   O13   S    
Cr12  O12   S    
C21   C65   S    
C27   C32   A    
C18   C22   A    
Cr9   O17   S    
C62   C78   S    
C28   C31   A    
C45   C81   S    
C26   H14   S    
C92   C104  S    
C25   H13   S    
C44   C52   A    
C6    C10   A    
C37   C61   A    
C41   Br1   S    
Cr8   O8    S    
C57   C61   A    
C63   C79   S    
Cr7   O7    S    
C2    O22   A    
C82   C85   D    
C39   C63   A    
C3    O27   A    
C40   C64   A    
C13   C17   A    
C16   H12   S    
Cr9   O37   S    
C86   C94   S    
C70   O46   A    
C68   O40   A    
Cr5   O5    S    
C3    C10   S    
C6    C90   A    
C3    O23   A    
C44   Br4   S    
C87   C95   S    
C76   O8    A    
C43   C51   A    
Cr12  O40   S    
C75   O11   A    
C47   O31   A    
C49   C53   A    
C74   O10   A    
C31   C35   A    
C88   C96   S    
C71   O51   A    
C71   O47   A    
C72   O52   A    
C89   C101  S    
C37   C41   A    
C90   C102  S    
C18   Br10  S    
C59   H3    S    
Cr7   O51   S    
C17   Br9   S    
C24   C68   S    
C43   Br3   S    
C47   C83   S    
C19   Br11  S    
Cr3   O3    S    
C40   C44   A    
C56   C60   A    
C81   H6    S    
C39   C43   A    
C26   C29   A    
C102  O62   D    
C93   H21   S    
Cr4   O48   S    
C65   O37   A    
C27   C28   A    
C99   O59   D    
Cr5   O25   S    
C83   H8    S    
C5    Br5   S    
Cr10  O18   S    
C79   O43   A    
C4    C9    S    
Cr3   O47   S    
C80   O44   A    
C5    C89   A    
C52   C56   A    
C10   C14   A    
C38   C62   A    
C4    O24   A    
