data_mof_unit_19937.cif
_audit_creation_date              2013-03-05T15:44:37-0500
_audit_creation_method            fapswitch 2.2
_symmetry_space_group_name_H-M    P1
_symmetry_Int_Tables_number       1
_space_group_crystal_system       triclinic
_cell_length_a                    19.143516
_cell_length_b                    11.178805
_cell_length_c                    18.764305
_cell_angle_alpha                 89.751882
_cell_angle_beta                  90.021256
_cell_angle_gamma                 90.52312
_cell_volume                      4015.38666066

loop_
_atom_site_label
_atom_site_type_symbol
_atom_site_description
_atom_site_fract_x
_atom_site_fract_y
_atom_site_fract_z
_atom_type_partial_charge
O1    O     O_R   0.787540 0.042690 0.170470 -0.477011
O2    O     O_R   0.212460 0.042690 0.829530 -0.395840
O3    O     O_R   0.287540 0.542690 0.170470 -0.386385
O4    O     O_R   0.712460 0.542690 0.829530 -0.441574
O5    O     O_R   0.765660 0.292160 0.175050 -0.480315
O6    O     O_R   0.234340 0.292160 0.824950 -0.495910
O7    O     O_R   0.265660 0.792160 0.175050 -0.463098
O8    O     O_R   0.734340 0.792160 0.824950 -0.492538
C1    C     C_R   0.713353 0.337359 0.138558 0.485232
C2    C     C_R   0.266883 0.384661 0.849108 0.624950
C3    C     C_R   0.229812 0.877080 0.146389 0.498702
C4    C     C_R   0.768550 0.881307 0.851349 0.607528
O9    O     O_R   0.670190 0.408980 0.168550 -0.482386
O10   O     O_R   0.329810 0.408980 0.831450 -0.449608
O11   O     O_R   0.170190 0.908980 0.168550 -0.486086
O12   O     O_R   0.829810 0.908980 0.831450 -0.483153
O13   O     O_R   0.556580 0.251450 0.175160 -0.479980
O14   O     O_R   0.443420 0.251450 0.824840 -0.424629
O15   O     O_R   0.056580 0.751450 0.175160 -0.461880
O16   O     O_R   0.943420 0.751450 0.824840 -0.481178
C5    C     C_R   0.532716 0.153798 0.145664 0.577977
C6    C     C_R   0.470289 0.156882 0.851959 0.660618
C7    C     C_R   0.030264 0.655707 0.147864 0.575867
C8    C     C_R   0.966790 0.652439 0.854641 0.594933
O17   O     O_R   0.545920 0.049510 0.170320 -0.446618
O18   O     O_R   0.454080 0.049510 0.829680 -0.455014
O19   O     O_R   0.045920 0.549510 0.170320 -0.503956
O20   O     O_R   0.954080 0.549510 0.829680 -0.444451
O21   O     O_R   0.681390 0.957840 0.176710 -0.497760
O22   O     O_R   0.318610 0.957840 0.823290 -0.507434
O23   O     O_R   0.181390 0.457840 0.176710 -0.484068
O24   O     O_R   0.818610 0.457840 0.823290 -0.467441
C9    C     C_R   0.731849 0.007675 0.139443 0.508751
C10   C     C_R   0.274063 0.023540 0.859606 0.603116
C11   C     C_R   0.228866 0.515508 0.139018 0.563075
C12   C     C_R   0.758362 0.470347 0.851903 0.600854
O25   O     O_R   0.787500 0.044280 0.330990 -0.415267
O26   O     O_R   0.212500 0.044280 0.669010 -0.425527
O27   O     O_R   0.287500 0.544280 0.330990 -0.412884
O28   O     O_R   0.712500 0.544280 0.669010 -0.425539
O29   O     O_R   0.765610 0.293630 0.323860 -0.483860
O30   O     O_R   0.234390 0.293630 0.676140 -0.511380
O31   O     O_R   0.265610 0.793630 0.323860 -0.491518
O32   O     O_R   0.734390 0.793630 0.676140 -0.500901
C13   C     C_R   0.730290 0.383718 0.350445 0.555410
C14   C     C_R   0.269091 0.379505 0.648951 0.592421
C15   C     C_R   0.230303 0.883749 0.350433 0.543584
C16   C     C_R   0.769084 0.879508 0.648957 0.603313
O33   O     O_R   0.670140 0.410570 0.329080 -0.467684
O34   O     O_R   0.329860 0.410570 0.670920 -0.498954
O35   O     O_R   0.170140 0.910570 0.329080 -0.471414
O36   O     O_R   0.829860 0.910570 0.670920 -0.496018
O37   O     O_R   0.556540 0.252920 0.323970 -0.473934
O38   O     O_R   0.443460 0.252920 0.676030 -0.523463
O39   O     O_R   0.056540 0.752920 0.323970 -0.472465
O40   O     O_R   0.943460 0.752920 0.676030 -0.520041
C17   C     C_R   0.535914 0.154215 0.355620 0.568524
C18   C     C_R   0.468860 0.159088 0.647657 0.583787
C19   C     C_R   0.035885 0.654222 0.355605 0.572471
C20   C     C_R   0.968859 0.659083 0.647655 0.590406
O41   O     O_R   0.545870 0.051100 0.330840 -0.522648
O42   O     O_R   0.454130 0.051100 0.669160 -0.489006
O43   O     O_R   0.045870 0.551100 0.330840 -0.516709
O44   O     O_R   0.954130 0.551100 0.669160 -0.486582
O45   O     O_R   0.681340 0.959300 0.325510 -0.521546
O46   O     O_R   0.318660 0.959300 0.674490 -0.506055
O47   O     O_R   0.181340 0.459300 0.325510 -0.518173
O48   O     O_R   0.818660 0.459300 0.674490 -0.505840
C21   C     C_R   0.740345 0.980204 0.357363 0.575634
C22   C     C_R   0.260464 0.978756 0.643038 0.617901
C23   C     C_R   0.240359 0.480150 0.357345 0.579997
C24   C     C_R   0.760434 0.478640 0.643078 0.616399
Cr1   Cr    Cr6+3 0.772000 0.169640 0.250110 1.158165
Cr2   Cr    Cr6+3 0.228000 0.169640 0.749890 1.188915
Cr3   Cr    Cr6+3 0.272000 0.669640 0.250110 1.194987
Cr4   Cr    Cr6+3 0.728000 0.669640 0.749890 1.181116
Cr5   Cr    Cr6+3 0.614960 0.323350 0.249260 1.152051
Cr6   Cr    Cr6+3 0.385040 0.323350 0.750740 1.165766
Cr7   Cr    Cr6+3 0.114960 0.823350 0.249260 1.153216
Cr8   Cr    Cr6+3 0.885040 0.823350 0.750740 1.124487
Cr9   Cr    Cr6+3 0.616670 0.010620 0.250840 1.116695
Cr10  Cr    Cr6+3 0.383330 0.010620 0.749160 1.137419
Cr11  Cr    Cr6+3 0.116670 0.510620 0.250840 1.108970
Cr12  Cr    Cr6+3 0.883330 0.510620 0.749160 1.153876
O49   O     O_3   0.667880 0.167870 0.250070 -0.353457
O50   O     O_3   0.332120 0.167870 0.749930 -0.344966
O51   O     O_3   0.167880 0.667870 0.250070 -0.356054
O52   O     O_3   0.832120 0.667870 0.749930 -0.355774
C25   C     C_R   0.506323 0.170715 0.921847 -0.005558
C26   C     C_R   0.503182 0.158545 0.071948 -0.013500
C27   C     C_R   0.993254 0.649439 0.929538 0.003458
C28   C     C_R   0.992632 0.666126 0.079090 0.053263
C29   C     C_R   0.505137 0.279086 0.962531 -0.101047
C30   C     C_R   0.495155 0.269745 0.037609 -0.101350
C31   C     C_R   0.014396 0.755611 0.962453 -0.114990
C32   C     C_R   0.002459 0.769595 0.036093 -0.086068
C33   C     C_R   0.508084 0.054343 0.030253 0.150606
C34   C     C_R   0.520182 0.063252 0.957077 0.138316
C35   C     C_R   0.971354 0.558666 0.047327 0.170376
C36   C     C_R   0.977321 0.547369 0.972927 0.134722
C37   C     C_R   0.518662 0.395758 0.933958 0.156492
C38   C     C_R   0.482972 0.373695 0.078133 0.160642
C39   C     C_R   0.045757 0.849045 0.923093 0.158730
C40   C     C_R   0.998084 0.886604 0.063797 0.184456
C41   C     C_R   0.046943 0.963875 0.951921 0.173011
C42   C     C_R   0.019037 0.984246 0.020424 0.145251
C43   C     C_R   0.529616 0.492236 0.981313 0.127306
C44   C     C_R   0.512891 0.480690 0.054258 0.134418
C45   C     C_R   0.708644 0.872829 0.036414 0.044893
C46   C     C_R   0.284735 0.880112 0.958190 -0.000458
C47   C     C_R   0.180791 0.420637 0.025187 -0.060022
C48   C     C_R   0.711508 0.331926 0.942805 -0.004294
C49   C     C_R   0.705584 0.861320 0.962879 -0.027665
C50   C     C_R   0.255176 0.843965 0.021850 -0.070281
C51   C     C_R   0.186765 0.397033 0.952446 -0.105234
C52   C     C_R   0.699554 0.305740 0.013693 -0.158393
H1    H     H_    0.679759 0.783515 0.940865 0.232702
H2    H     H_    0.243245 0.751333 0.030956 0.128144
H3    H     H_    0.151813 0.333668 0.927481 0.240026
H4    H     H_    0.668973 0.226857 0.027974 0.050518
C53   C     C_R   0.746751 0.933892 0.918596 0.037434
C54   C     C_R   0.250933 0.924653 0.077369 0.010540
C55   C     C_R   0.241208 0.445876 0.913011 0.036505
C56   C     C_R   0.728397 0.376305 0.067059 0.045128
C57   C     C_R   0.785148 0.031728 0.946915 -0.036647
C58   C     C_R   0.264484 0.046915 0.064858 0.006973
C59   C     C_R   0.284282 0.532676 0.943724 -0.033928
C60   C     C_R   0.765529 0.483658 0.052271 0.091132
C61   C     C_R   0.786309 0.046757 0.021038 -0.078683
C62   C     C_R   0.276423 0.084866 0.992850 0.042397
C63   C     C_R   0.287036 0.542557 0.018089 -0.106943
C64   C     C_R   0.777311 0.513769 0.979285 0.040075
C65   C     C_R   0.743582 0.972284 0.065337 -0.029326
C66   C     C_R   0.273175 0.997259 0.937462 0.020724
C67   C     C_R   0.232494 0.491448 0.060603 -0.027482
C68   C     C_R   0.751014 0.434543 0.925640 0.052429
C69   C     C_R   0.529794 0.056265 0.476121 -0.070263
C70   C     C_R   0.534671 0.073889 0.549420 -0.006999
C71   C     C_R   0.029676 0.556229 0.476078 -0.070780
C72   C     C_R   0.034588 0.573823 0.549374 -0.006371
C73   C     C_R   0.504000 0.175549 0.578744 0.032171
C74   C     C_R   0.513491 0.155274 0.430679 -0.019141
C75   C     C_R   0.003975 0.675516 0.578725 0.031236
C76   C     C_R   0.013436 0.655291 0.430654 -0.019110
C77   C     C_R   0.486908 0.275366 0.534700 -0.043464
C78   C     C_R   0.490178 0.262792 0.460238 -0.045529
C79   C     C_R   0.986908 0.775363 0.534699 -0.043255
C80   C     C_R   0.990200 0.762848 0.460237 -0.044637
C81   C     C_R   0.787995 0.034325 0.478287 0.195157
C82   C     C_R   0.190349 0.968464 0.533481 0.157607
C83   C     C_R   0.288071 0.534221 0.478238 0.193838
C84   C     C_R   0.690275 0.468129 0.533570 0.157784
C85   C     C_R   0.776161 0.027327 0.552291 0.027993
C86   C     C_R   0.189161 0.987049 0.460153 -0.028562
C87   C     C_R   0.276295 0.527252 0.552246 0.030131
C88   C     C_R   0.689069 0.486736 0.460241 -0.030599
C89   C     C_R   0.746555 0.922060 0.579676 0.029882
C90   C     C_R   0.246037 0.942158 0.419098 0.006183
C91   C     C_R   0.246584 0.422085 0.579666 0.032160
C92   C     C_R   0.745969 0.441963 0.419165 0.004990
C93   C     C_R   0.712583 0.840216 0.534821 -0.187439
C94   C     C_R   0.310803 0.930344 0.451700 -0.093988
C95   C     C_R   0.212521 0.340317 0.534835 -0.186912
C96   C     C_R   0.810731 0.430100 0.451766 -0.092780
H5    H     H_    0.689009 0.758687 0.555409 0.179967
H6    H     H_    0.356535 0.909058 0.420413 0.212588
H7    H     H_    0.188871 0.258867 0.555445 0.179986
H8    H     H_    0.856463 0.408841 0.420473 0.215056
C97   C     C_R   0.711772 0.859237 0.462306 -0.202249
C98   C     C_R   0.315703 0.939661 0.525777 -0.137733
C99   C     C_R   0.211715 0.359297 0.462317 -0.202179
C100  C     C_R   0.815635 0.439409 0.525837 -0.138387
H9    H     H_    0.683716 0.797693 0.428601 0.193675
H10   H     H_    0.366713 0.934249 0.550531 0.187390
H11   H     H_    0.183590 0.297819 0.428634 0.194571
H12   H     H_    0.866652 0.434033 0.550579 0.187241
C101  C     C_R   0.749893 0.953497 0.432941 0.004786
C102  C     C_R   0.254746 0.950244 0.567292 0.017037
C103  C     C_R   0.249908 0.453444 0.432921 0.003364
C104  C     C_R   0.754687 0.449988 0.567361 0.017496
N1    N     N_R   0.502363 0.939329 0.062961 0.169925
O53   O     O_R   0.451164 0.918014 0.107112 -0.222282
O54   O     O_R   0.557597 0.873809 0.066552 -0.244659
N2    N     N_R   0.545639 0.963421 0.917042 0.110539
O55   O     O_R   0.598087 0.980527 0.874117 -0.340267
O56   O     O_R   0.503405 0.875610 0.902905 -0.225426
N3    N     N_R   0.946070 0.460896 0.091604 0.103654
O57   O     O_R   0.919774 0.480103 0.154448 -0.279089
O58   O     O_R   0.958471 0.351430 0.074774 -0.199577
N4    N     N_R   0.970084 0.431234 0.941752 0.137827
O59   O     O_R   0.022500 0.384983 0.907856 -0.266095
O60   O     O_R   0.908797 0.381390 0.936525 -0.267554
N5    N     N_R   0.842125 0.113758 0.450963 0.111078
O61   O     O_R   0.858626 0.210775 0.484336 -0.364817
O62   O     O_R   0.888222 0.074276 0.406430 -0.239801
N6    N     N_R   0.126912 0.968461 0.574179 0.035087
O63   O     O_R   0.093262 0.067966 0.583132 -0.360322
O64   O     O_R   0.115320 0.879987 0.618066 -0.297962
N7    N     N_R   0.342142 0.613714 0.450865 0.110271
O65   O     O_R   0.358486 0.710930 0.484108 -0.364749
O66   O     O_R   0.388287 0.574260 0.406376 -0.237423
N8    N     N_R   0.626859 0.468236 0.574310 0.035011
O67   O     O_R   0.593237 0.567785 0.583206 -0.358674
O68   O     O_R   0.615298 0.379898 0.618306 -0.298156
C105  C     C_2   0.798857 0.122133 0.602948 0.323285
H13   H     H_    0.852218 0.155174 0.603845 0.188900
O69   O     O_2   0.757800 0.160129 0.646994 -0.415203
C106  C     C_2   0.129965 0.056121 0.429025 0.260246
H14   H     H_    0.080125 0.060105 0.455754 0.166134
O70   O     O_2   0.137462 0.115022 0.374545 -0.470611
C107  C     C_2   0.299174 0.621998 0.602856 0.322244
H15   H     H_    0.352563 0.654923 0.603622 0.189623
O71   O     O_2   0.258241 0.660108 0.646983 -0.424139
C108  C     C_2   0.629838 0.555762 0.429144 0.260999
H16   H     H_    0.579983 0.559561 0.455854 0.166450
O72   O     O_2   0.637316 0.614828 0.374725 -0.471248
N9    N     N_R   0.525348 0.419606 0.858859 0.118729
O73   O     O_R   0.568359 0.359987 0.819420 -0.266834
O74   O     O_R   0.489330 0.505174 0.829830 -0.283692
N10   N     N_R   0.440402 0.369020 0.142129 0.106452
O75   O     O_R   0.399407 0.277709 0.153863 -0.316720
O76   O     O_R   0.435880 0.459913 0.184863 -0.208465
N11   N     N_R   0.083095 0.823876 0.858207 0.099159
O77   O     O_R   0.123996 0.731664 0.855108 -0.289316
O78   O     O_R   0.075002 0.889730 0.801542 -0.217956
N12   N     N_R   0.958958 0.906353 0.128200 0.090890
O79   O     O_R   0.896244 0.861882 0.134226 -0.267228
O80   O     O_R   0.988392 0.953830 0.183980 -0.229568
N13   N     N_R   0.076414 0.060666 0.911665 0.143481
O81   O     O_R   0.043075 0.103461 0.856899 -0.241173
O82   O     O_R   0.128765 0.120336 0.937840 -0.313277
N14   N     N_R   0.006282 0.104560 0.041791 0.104069
O83   O     O_R   0.011732 0.137304 0.107950 -0.220018
O84   O     O_R   0.990216 0.183371 0.993677 -0.214006
N15   N     N_R   0.556193 0.603161 0.954530 0.124092
O85   O     O_R   0.603874 0.606690 0.905405 -0.270721
O86   O     O_R   0.530638 0.702056 0.977557 -0.174786
N16   N     N_R   0.527654 0.574977 0.104216 0.149403
O87   O     O_R   0.567630 0.553748 0.158620 -0.246708
O88   O     O_R   0.488465 0.668857 0.106560 -0.156468
C109  C     C_2   0.687495 0.768856 0.081486 0.383449
H17   H     H_    0.701824 0.763602 0.137196 0.156907
O89   O     O_2   0.656831 0.683294 0.055895 -0.454110
C110  C     C_2   0.356672 0.839838 0.945029 0.258142
H18   H     H_    0.376905 0.827948 0.892005 0.197345
O90   O     O_2   0.396454 0.822157 0.994140 -0.392982
C111  C     C_2   0.126752 0.352453 0.063235 0.376483
H19   H     H_    0.087083 0.397202 0.093146 0.167275
O91   O     O_2   0.127859 0.243650 0.062513 -0.367003
C112  C     C_2   0.682377 0.247601 0.889431 0.312910
H20   H     H_    0.651464 0.172319 0.907646 0.124744
O92   O     O_2   0.693236 0.258532 0.825616 -0.349710
C113  C     C_2   0.830212 0.110695 0.900620 0.319970
H21   H     H_    0.880112 0.143634 0.919434 0.210823
O93   O     O_2   0.812743 0.137660 0.840140 -0.409008
C114  C     C_2   0.271005 0.126138 0.128189 0.325892
H22   H     H_    0.286819 0.088496 0.179053 0.140089
O94   O     O_2   0.256564 0.231852 0.125972 -0.450971
C115  C     C_2   0.329911 0.606307 0.896720 0.255904
H23   H     H_    0.384947 0.618112 0.908443 0.137469
O95   O     O_2   0.306337 0.650052 0.842028 -0.430586
C116  C     C_2   0.787719 0.559159 0.114762 0.342792
H24   H     H_    0.767273 0.541931 0.167507 0.149715
O96   O     O_2   0.830399 0.639927 0.110765 -0.406212
C117  C     C_2   0.838292 0.131449 0.052056 0.278641
H25   H     H_    0.874605 0.101605 0.092342 0.222288
O97   O     O_2   0.842717 0.234400 0.031422 -0.447970
C118  C     C_2   0.308099 0.203142 0.978460 0.209050
H26   H     H_    0.302613 0.277135 0.014455 0.182444
O98   O     O_2   0.345883 0.217555 0.927187 -0.562922
C119  C     C_2   0.351190 0.597769 0.047208 0.315224
H27   H     H_    0.399903 0.575060 0.023006 0.115571
O99   O     O_2   0.350622 0.676114 0.091981 -0.365121
C120  C     C_2   0.815628 0.624842 0.954812 0.241554
H28   H     H_    0.835784 0.630938 0.901353 0.099871
O100  O     O_2   0.823598 0.713569 0.991088 -0.493773
C121  C     C_2   0.537993 0.931931 0.449769 0.230802
H29   H     H_    0.580127 0.908463 0.414473 0.161744
O101  O     O_2   0.497379 0.853473 0.469098 -0.457647
C122  C     C_2   0.571562 0.985468 0.595792 0.284915
H30   H     H_    0.577648 0.893330 0.579530 0.146369
O102  O     O_2   0.597397 0.016280 0.652439 -0.414429
C123  C     C_2   0.037822 0.431892 0.449711 0.231835
H31   H     H_    0.079989 0.408360 0.414469 0.161108
O103  O     O_2   0.997140 0.353499 0.468982 -0.457441
C124  C     C_2   0.071463 0.485333 0.595707 0.282946
H32   H     H_    0.077461 0.393174 0.579446 0.146437
O104  O     O_2   0.097388 0.516112 0.652315 -0.424044
C125  C     C_2   0.466659 0.392353 0.566527 0.294096
H33   H     H_    0.488219 0.421069 0.617022 0.223220
O105  O     O_2   0.424831 0.457894 0.537788 -0.509690
C126  C     C_2   0.467230 0.360144 0.412447 0.359172
H34   H     H_    0.488736 0.448942 0.418873 0.167364
O106  O     O_2   0.424968 0.340451 0.365015 -0.411551
C127  C     C_2   0.966631 0.892320 0.566537 0.293925
H35   H     H_    0.988269 0.921116 0.616981 0.221587
O107  O     O_2   0.924657 0.957693 0.537881 -0.509257
C128  C     C_2   0.967361 0.860342 0.412490 0.359127
H36   H     H_    0.988827 0.949142 0.419079 0.167093
O108  O     O_2   0.925194 0.840795 0.364948 -0.416282

loop_
_geom_bond_atom_site_label_1
_geom_bond_atom_site_label_2
_geom_bond_distance
_ccdc_geom_bond_type
C37   C43   1.414495 A    
C80   C128  1.477032 S    
O4    C12   1.269709 A    
O39   C19   1.308657 A    
C74   C78   1.402553 A    
N11   O77   1.301666 A    
Cr7   O51   2.019751 S    
C77   C78   1.406364 A    
C59   C115  1.483096 S    
C98   C102  1.409445 A    
C86   C90   1.429939 A    
O25   C21   1.248329 A    
C112  O92   1.220834 D    
C119  H27   1.070489 S    
O21   C9    1.311388 A    
C110  H18   1.077027 S    
C120  H28   1.076566 S    
C1    O9    1.287175 A    
O44   Cr12  2.068727 S    
C39   N11   1.442132 S    
C3    O11   1.269598 A    
C4    O12   1.266150 A    
C83   C87   1.408679 A    
C27   C36   1.429550 A    
C73   C77   1.426062 A    
O2    C10   1.325945 A    
N7    O65   1.291335 A    
O17   Cr9   2.076000 S    
C62   C66   1.432059 A    
C13   C92   1.476565 S    
C35   N3    1.449785 S    
C5    C26   1.495046 S    
N1    O54   1.293320 A    
O31   Cr3   1.967501 S    
N16   O88   1.296515 A    
C51   C55   1.385139 A    
N8    O67   1.302045 A    
O16   Cr8   1.958040 S    
C45   C65   1.403324 A    
C96   H8    1.083103 S    
C29   C37   1.429494 A    
O13   C5    1.304855 A    
O28   Cr4   2.089418 S    
O12   Cr8   2.088065 S    
C84   C104  1.402336 A    
O15   C7    1.286998 A    
N13   O81   1.301204 A    
O46   Cr10  1.953886 S    
C16   C89   1.449235 S    
C83   C103  1.437489 A    
O48   C24   1.280402 A    
N14   O84   1.297597 A    
C61   C65   1.426593 A    
C118  O98   1.213185 D    
C32   C40   1.412831 A    
C128  H36   1.078488 S    
C98   H10   1.083272 S    
C70   C122  1.495915 S    
C36   N4    1.431815 S    
Cr12  O52   2.020662 S    
N6    O63   1.302036 A    
C115  O95   1.222841 D    
C70   C73   1.398859 A    
O7    Cr3   1.964825 S    
C71   C72   1.393195 A    
C17   O41   1.260941 A    
C19   O43   1.260993 A    
C20   O44   1.299664 A    
C126  O106  1.221906 D    
Cr8   O52   2.003883 S    
C124  O104  1.221751 D    
C18   C73   1.467941 S    
O46   C22   1.280466 A    
C99   H11   1.076307 S    
C46   C110  1.474013 S    
C6    C25   1.489532 S    
C59   C63   1.401180 A    
C57   C61   1.401842 A    
C16   O36   1.279679 A    
C30   C38   1.412685 A    
N5    O61   1.291366 A    
O27   C23   1.248346 A    
C58   C114  1.489666 S    
O31   C15   1.318101 A    
C93   H5    1.083118 S    
O32   C16   1.267781 A    
C69   C74   1.430891 A    
O47   Cr11  1.956959 S    
N4    O59   1.300587 A    
C79   C80   1.406308 A    
C72   C75   1.398900 A    
C33   C34   1.395565 A    
C127  O107  1.214844 D    
O5    C1    1.316275 A    
C69   C121  1.486925 S    
C17   C74   1.472681 S    
O24   C12   1.281451 A    
C20   C75   1.467957 S    
C113  H21   1.080375 S    
C108  O72   1.221363 D    
C10   C66   1.488998 S    
O8    Cr4   1.971772 S    
N2    O55   1.299689 A    
C109  H17   1.082149 S    
O32   Cr4   1.957456 S    
C81   C85   1.408789 A    
C81   N5    1.450792 S    
O11   Cr7   2.073151 S    
C4    C53   1.457144 S    
C114  O94   1.216648 D    
C43   C44   1.410926 A    
O27   Cr3   2.084230 S    
O3    Cr3   2.088562 S    
C46   C50   1.379323 A    
O8    C4    1.288213 A    
C93   C97   1.376385 A    
Cr5   O49   2.019751 S    
C121  H29   1.078812 S    
C99   C103  1.388419 A    
C48   C68   1.404552 A    
C97   C101  1.388429 A    
N10   O75   1.299944 A    
C31   C39   1.406788 A    
C105  O69   1.221005 D    
O22   C10   1.321825 A    
C87   C91   1.397537 A    
C84   C88   1.390918 A    
C88   C92   1.430044 A    
C122  H30   1.082829 S    
C2    O10   1.276088 A    
C11   C67   1.498685 S    
N9    O73   1.297897 A    
C52   H4    1.086645 S    
C53   C57   1.417352 A    
C55   C59   1.394087 A    
O3    C11   1.302720 A    
C64   C68   1.431875 A    
C125  H33   1.082170 S    
C39   C41   1.395138 A    
C117  O97   1.214898 D    
Cr1   O49   1.993140 S    
C85   C105  1.488473 S    
Cr3   O51   1.993140 S    
C51   H3    1.078369 S    
C49   H1    1.080116 S    
C46   C66   1.384199 A    
C3    C54   1.454007 S    
C24   C104  1.461667 S    
C48   C52   1.379489 A    
O26   Cr2   2.089418 S    
C5    O17   1.279717 A    
O29   C13   1.318054 A    
O28   C24   1.277866 A    
O14   C6    1.283031 A    
C8    O20   1.265700 A    
N11   O78   1.300648 A    
C116  H24   1.080335 S    
O40   Cr8   1.965374 S    
C25   C34   1.396188 A    
O41   Cr9   2.076970 S    
C110  O90   1.212001 D    
C120  O100  1.213860 D    
C34   N2    1.436920 S    
O35   Cr7   2.074240 S    
C96   C100  1.397294 A    
O29   Cr1   1.967501 S    
C49   C53   1.397383 A    
C47   C111  1.463682 S    
N12   O79   1.300000 A    
C123  H31   1.078844 S    
C97   H9    1.076371 S    
C7    C28   1.482404 S    
C72   C124  1.495853 S    
Cr9   O49   2.004918 S    
C100  H12   1.083273 S    
C28   C35   1.400461 A    
C18   O42   1.299713 A    
Cr11  O51   2.004918 S    
O26   C22   1.277822 A    
O20   Cr12  2.073561 S    
C40   C42   1.413933 A    
N1    O53   1.303234 A    
N8    O68   1.301839 A    
C92   C96   1.389435 A    
C58   C62   1.432271 A    
O34   Cr6   2.077209 S    
O30   C14   1.267883 A    
O25   Cr1   2.084230 S    
C21   C101  1.459758 S    
C94   H6    1.083106 S    
C106  H14   1.079453 S    
N15   O85   1.297723 A    
O6    Cr2   1.971772 S    
C60   C116  1.506470 S    
C95   C99   1.376394 A    
C26   C33   1.409869 A    
C56   C60   1.415679 A    
C62   C118  1.473499 S    
C100  C104  1.409408 A    
O42   Cr10  2.068727 S    
O18   Cr10  2.073561 S    
C84   N8    1.434886 S    
C128  O108  1.221925 D    
C12   C68   1.445248 S    
C26   C30   1.407310 A    
C111  O91   1.216796 D    
O24   Cr12  1.949068 S    
O30   Cr2   1.957456 S    
O48   Cr12  1.953886 S    
N6    O64   1.301803 A    
C2    C55   1.470158 S    
C127  H35   1.082164 S    
O37   C17   1.308684 A    
C15   O35   1.257714 A    
C112  H20   1.078811 S    
Cr10  O50   2.020662 S    
C25   C29   1.435078 A    
O40   C20   1.278528 A    
O43   Cr11  2.076970 S    
C41   N13   1.428889 S    
O7    C3    1.291728 A    
O21   Cr9   1.959535 S    
O39   Cr7   1.952284 S    
O45   Cr9   1.956959 S    
C107  H15   1.083252 S    
C94   C98   1.397406 A    
C45   C109  1.487702 S    
O13   Cr5   1.954605 S    
O15   Cr7   1.954605 S    
C77   C125  1.494454 S    
C44   N16   1.439622 S    
O23   C11   1.314404 A    
C40   N12   1.440898 S    
C89   C93   1.401371 A    
C61   C117  1.487458 S    
N16   O87   1.297976 A    
N4    O60   1.298089 A    
C52   C56   1.388664 A    
O6    C2    1.286448 A    
C48   C112  1.483523 S    
C41   C42   1.412373 A    
O1    Cr1   2.088562 S    
O19   Cr11  2.076000 S    
N3    O57   1.301797 A    
N13   O82   1.296456 A    
C47   C67   1.427462 A    
C79   C127  1.494386 S    
O45   C21   1.297550 A    
C14   C91   1.449266 S    
N14   O83   1.299668 A    
N2    O56   1.294317 A    
O47   C23   1.297523 A    
C85   C89   1.397440 A    
C63   C119  1.475267 S    
C118  H26   1.076046 S    
C6    O18   1.307358 A    
N7    O66   1.297178 A    
O36   Cr8   2.077209 S    
C86   C106  1.494370 S    
O38   Cr6   1.965374 S    
O22   Cr10  1.949068 S    
C29   C30   1.425006 A    
C123  O103  1.220760 D    
O37   Cr5   1.952284 S    
C31   C32   1.410238 A    
C28   C32   1.418539 A    
C76   C80   1.402645 A    
N10   O76   1.300609 A    
O1    C9    1.273839 A    
C105  H13   1.083222 S    
C75   C79   1.426021 A    
C126  H34   1.078403 S    
C122  O102  1.221785 D    
C63   C67   1.427859 A    
C124  H32   1.082847 S    
C1    C56   1.437147 S    
O23   Cr11  1.959535 S    
C23   C103  1.459713 S    
C78   C126  1.476999 S    
O16   C8    1.319626 A    
O33   Cr5   2.074240 S    
N5    O62   1.297170 A    
C38   C44   1.393691 A    
C7    O19   1.295672 A    
C117  H25   1.080580 S    
Cr4   O52   1.993502 S    
O2    Cr2   2.076037 S    
O14   Cr6   1.958040 S    
C82   C102  1.402386 A    
Cr6   O50   2.003883 S    
O5    Cr1   1.964825 S    
N15   O86   1.289333 A    
C60   C64   1.426415 A    
O9    Cr5   2.073151 S    
N3    O58   1.289275 A    
C83   N7    1.450717 S    
C113  O93   1.220338 D    
C108  H16   1.079427 S    
C22   C102  1.461807 S    
C116  O96   1.214246 D    
C27   C31   1.396908 A    
C109  O89   1.218005 D    
C54   C58   1.407543 A    
C95   H7    1.083107 S    
C9    C65   1.465341 S    
C71   C76   1.430873 A    
C35   C36   1.407080 A    
C64   C120  1.506433 S    
C114  H22   1.085479 S    
C81   C101  1.437581 A    
C13   O33   1.257642 A    
Cr2   O50   1.993502 S    
C57   C113  1.502699 S    
C45   C49   1.387539 A    
C82   N6    1.434811 S    
C50   H2    1.071372 S    
C107  O71   1.220975 D    
C19   C76   1.472639 S    
N12   O80   1.301399 A    
C121  O101  1.220773 D    
C88   C108  1.494386 S    
C91   C95   1.401346 A    
C115  H23   1.083222 S    
C8    C27   1.494068 S    
O38   C18   1.278462 A    
C119  O99   1.216355 D    
C43   N15   1.425598 S    
C111  H19   1.073135 S    
C33   N1    1.425621 S    
C38   N10   1.452001 S    
N9    O74   1.301689 A    
C69   C70   1.393265 A    
C14   O34   1.279597 A    
C71   C123  1.486947 S    
C87   C107  1.488428 S    
C125  O105  1.214820 D    
C42   N14   1.428296 S    
O10   Cr6   2.088065 S    
O4    Cr4   2.076037 S    
C90   C94   1.389484 A    
C50   C54   1.383851 A    
C37   N9    1.438574 S    
C106  O70   1.221369 D    
C82   C86   1.390850 A    
C47   C51   1.396250 A    
C15   C90   1.476684 S    
