data_mof_unit_49102.cif
_audit_creation_date              2012-10-26T20:18:16-0400
_audit_creation_method            fapswitch 2.2
_symmetry_space_group_name_H-M    P1
_symmetry_Int_Tables_number       1
_space_group_crystal_system       triclinic
_cell_length_a                    23.458634
_cell_length_b                    8.744687
_cell_length_c                    7.4468
_cell_angle_alpha                 103.388339
_cell_angle_beta                  94.601787
_cell_angle_gamma                 92.436363
_cell_volume                      1478.37556925

loop_
_atom_site_label
_atom_site_type_symbol
_atom_type_description
_atom_site_fract_x
_atom_site_fract_y
_atom_site_fract_z
_atom_type_partial_charge
C1    C     C_R   0.498877 0.200161 0.453916 0.561929
C2    C     C_R   0.697319 0.513897 0.334903 -0.152800
C3    C     C_R   0.243239 0.481798 0.665535 -0.061758
C4    C     C_R   0.756771 0.517033 0.334305 -0.062394
C5    C     C_R   0.208901 0.491928 0.506387 0.234641
C6    C     C_R   0.791084 0.506904 0.493504 0.234782
C7    C     C_2   0.505897 0.035113 0.432120 0.106113
C8    C     C_2   0.495163 0.964371 0.571324 0.122417
C9    C     C_R   0.390937 0.499485 0.501700 0.540511
C10   C     C_R   0.609060 0.500386 0.498281 0.539754
C11   C     C_R   0.885670 0.633156 0.596990 0.371382
C12   C     C_R   0.501207 0.799546 0.546481 0.598504
C13   C     C_R   0.114320 0.365594 0.402984 0.371355
C14   C     C_R   0.875602 0.379194 0.389759 0.379136
C15   C     C_R   0.124383 0.619555 0.610218 0.379169
C16   C     C_R   0.935097 0.369511 0.402399 0.014844
C17   C     C_R   0.064889 0.629232 0.597582 0.014748
C18   C     C_R   0.970092 0.503166 0.495697 -0.045696
C19   C     C_R   0.029895 0.495575 0.504283 -0.045692
C20   C     C_R   0.945176 0.643801 0.580521 0.012272
C21   C     C_R   0.054812 0.354943 0.419454 0.012257
C22   C     C_R   0.959509 0.226349 0.334488 -0.127112
C23   C     C_R   0.234280 0.505863 0.346695 -0.064867
C24   C     C_R   0.040477 0.772397 0.665485 -0.127143
C25   C     C_R   0.019140 0.213254 0.350095 -0.019178
C26   C     C_R   0.980847 0.785492 0.649871 -0.019168
C27   C     C_R   0.041732 0.050644 0.309168 0.056795
C28   C     C_R   0.091752 0.018081 0.408427 -0.031588
C29   C     C_R   0.116846 0.874552 0.353659 -0.077619
C30   C     C_R   0.089084 0.754047 0.213817 -0.085450
C31   C     C_R   0.036137 0.777171 0.128849 -0.103561
C32   C     C_R   0.012606 0.923797 0.175516 -0.116374
C33   C     C_R   0.958253 0.948101 0.690784 0.056824
C34   C     C_R   0.765680 0.493214 0.653237 -0.064934
C35   C     C_R   0.987375 0.074952 0.824438 -0.116361
C36   C     C_R   0.963839 0.221571 0.871105 -0.103539
C37   C     C_R   0.910891 0.244684 0.786132 -0.085520
C38   C     C_R   0.883135 0.124176 0.646283 -0.077839
C39   C     C_R   0.908234 0.980655 0.591515 -0.031615
C40   C     C_3   0.591094 0.953661 0.283681 -0.299114
C41   C     C_3   0.411632 0.062026 0.726897 -0.292098
C42   C     C_R   0.293614 0.508220 0.345310 -0.144901
C43   C     C_R   0.706351 0.491187 0.654643 -0.145786
C44   C     C_R   0.328352 0.498086 0.504518 0.000978
C45   C     C_R   0.671640 0.501411 0.495416 0.000172
C46   C     C_R   0.302694 0.485248 0.664953 -0.151216
Cu1   Cu    Cu3+1 0.506340 0.517380 0.684380 0.949160
Cu2   Cu    Cu3+1 0.493660 0.482620 0.315620 0.950186
H1    H     H_    0.931127 0.122527 0.280513 0.157187
H2    H     H_    0.776260 0.527311 0.210258 0.127067
H3    H     H_    0.453379 0.383440 0.949089 0.233107
H4    H     H_    0.546296 0.617606 0.051196 0.248323
H5    H     H_    0.112779 0.105399 0.524819 0.130443
H6    H     H_    0.157506 0.856027 0.422054 0.156895
H7    H     H_    0.107958 0.641726 0.174352 0.122161
H8    H     H_    0.013725 0.682255 0.023948 0.123089
H9    H     H_    0.972278 0.936896 0.102012 0.127753
H10   H     H_    0.027704 0.061860 0.897947 0.127777
H11   H     H_    0.986248 0.316491 0.976010 0.123086
H12   H     H_    0.068858 0.876221 0.719456 0.157200
H13   H     H_    0.892013 0.356998 0.825598 0.122124
H14   H     H_    0.842474 0.142691 0.577884 0.156614
H15   H     H_    0.887211 0.893333 0.475120 0.130384
H16   H     H_    0.513201 0.983184 0.148034 0.277904
H17   H     H_    0.605513 0.882757 0.153329 0.141699
H18   H     H_    0.606494 0.900817 0.399463 0.148455
H19   H     H_    0.610227 0.076147 0.308215 0.150536
H20   H     H_    0.498375 0.127363 0.831019 0.273442
H21   H     H_    0.398011 0.104960 0.868271 0.144262
H22   H     H_    0.387451 0.948012 0.661667 0.161402
H23   H     H_    0.207971 0.515310 0.223882 0.125854
H24   H     H_    0.401230 0.149471 0.644277 0.145271
H25   H     H_    0.791968 0.483757 0.776089 0.125713
H26   H     H_    0.312239 0.518928 0.219975 0.130304
H27   H     H_    0.687708 0.480693 0.780022 0.128672
H28   H     H_    0.328454 0.476658 0.789211 0.123997
H29   H     H_    0.671581 0.522479 0.210603 0.123052
H30   H     H_    0.223769 0.471325 0.789548 0.127174
N1    N     N_R   0.852093 0.507425 0.491689 -0.401144
N2    N     N_R   0.147893 0.491333 0.508278 -0.401214
N3    N     N_2   0.484110 0.456420 0.038520 -0.261793
N4    N     N_2   0.515890 0.543580 0.961480 -0.250976
N5    N     N_2   0.529174 0.953027 0.267501 -0.514739
N6    N     N_2   0.472531 0.040915 0.739302 -0.531651
O1    O     O_R   0.504120 0.286130 0.619770 -0.516761
O2    O     O_2   0.138195 0.255312 0.278490 -0.503929
O3    O     O_2   0.841410 0.258892 0.282713 -0.518314
O4    O     O_2   0.158573 0.739863 0.717264 -0.517562
O5    O     O_R   0.495880 0.713870 0.380230 -0.478689
O6    O     O_R   0.493410 0.256770 0.308360 -0.507246
O7    O     O_R   0.506590 0.743230 0.691640 -0.483294
O8    O     O_R   0.423230 0.514630 0.655730 -0.507851
O9    O     O_R   0.576770 0.485370 0.344270 -0.510933
O10   O     O_R   0.412530 0.485280 0.344320 -0.506136
O11   O     O_R   0.587470 0.514720 0.655680 -0.509145
O12   O     O_2   0.861797 0.743447 0.721483 -0.504170

loop_
_geom_bond_atom_site_label_1
_geom_bond_atom_site_label_2
_ccdc_geom_bond_type
C11   O12   S    
C7    N5    S    
C1    O6    A    
Cu1   O8    S    
C12   O7    A    
C35   C36   A    
C36   H11   S    
C46   H28   S    
N3    N4    D    
C7    C8    D    
C33   C39   A    
C23   C42   A    
Cu2   O10   S    
C35   H10   S    
Cu1   O1    S    
C36   C37   A    
C19   C21   A    
C37   C38   A    
C24   C26   A    
C14   O3    S    
C30   C31   A    
C29   H6    S    
Cu2   N3    S    
C18   C19   A    
Cu1   N4    S    
C1    C7    S    
C31   C32   A    
C22   C25   A    
C13   O2    S    
C31   H8    S    
H3    N3    S    
C24   H12   S    
C13   N2    A    
C40   H18   S    
C1    O1    A    
C40   N5    S    
C42   C44   A    
C32   H9    S    
C9    O8    A    
C44   C46   A    
C2    C45   A    
C43   H27   S    
C11   C20   A    
C42   H26   S    
C17   C24   A    
Cu2   O9    S    
H20   N6    S    
Cu1   Cu2   S    
C23   H23   S    
C12   O5    A    
C4    C6    A    
C17   C19   A    
C10   O9    A    
C41   N6    S    
C40   H19   S    
C6    C34   A    
C4    H2    S    
C2    C4    A    
H16   N5    S    
C29   C30   A    
C26   C33   S    
C15   N2    A    
C5    C23   A    
C8    C12   S    
C10   C45   S    
C13   C21   A    
C14   N1    A    
C5    N2    S    
H4    N4    S    
C43   C45   A    
C11   N1    A    
C22   H1    S    
Cu2   O5    S    
C41   H24   S    
C14   C16   A    
C41   H21   S    
C15   C17   A    
C21   C25   A    
C28   C29   A    
C9    C44   S    
C16   C22   A    
C27   C32   A    
C8    N6    S    
Cu1   O7    S    
C34   C43   A    
C3    C5    A    
C37   H13   S    
C28   H5    S    
C25   C27   S    
C39   H15   S    
C30   H7    S    
C3    C46   A    
C40   H17   S    
C2    H29   S    
C6    N1    S    
C38   C39   A    
C20   C26   A    
C10   O11   A    
C33   C35   A    
C18   C20   A    
C34   H25   S    
C16   C18   A    
C27   C28   A    
Cu1   O11   S    
C41   H22   S    
Cu2   O6    S    
C3    H30   S    
C9    O10   A    
C15   O4    S    
C38   H14   S    
