data_mof_unit_43252.cif
_audit_creation_date              2012-12-11T14:08:45-0500
_audit_creation_method            fapswitch 2.2
_symmetry_space_group_name_H-M    P1
_symmetry_Int_Tables_number       1
_space_group_crystal_system       triclinic
_cell_length_a                    28.145073
_cell_length_b                    7.243816
_cell_length_c                    17.117625
_cell_angle_alpha                 90.00266
_cell_angle_beta                  101.503883
_cell_angle_gamma                 90.000212
_cell_volume                      3419.79454061

loop_
_atom_site_label
_atom_site_type_symbol
_atom_type_description
_atom_site_fract_x
_atom_site_fract_y
_atom_site_fract_z
_atom_type_partial_charge
O1    O     O_R   0.000700 0.436510 0.857920 -0.531973
O2    O     O_R   0.999300 0.563490 0.142080 -0.532107
O3    O     O_R   0.999300 0.936510 0.642080 -0.531975
O4    O     O_R   0.000700 0.063490 0.357920 -0.532111
O5    O     O_R   0.930080 0.766380 0.721890 -0.541116
O6    O     O_R   0.069920 0.233620 0.278110 -0.542216
O7    O     O_R   0.069920 0.266380 0.778110 -0.541127
O8    O     O_R   0.930080 0.733620 0.221890 -0.542219
C1    C     C_R   0.910470 0.597360 0.709885 0.691178
C2    C     C_R   0.089134 0.402480 0.291814 0.696089
C3    C     C_R   0.089529 0.097362 0.790121 0.691185
C4    C     C_R   0.910867 0.902477 0.208187 0.696096
O9    O     O_R   0.996180 0.766230 0.862310 -0.542338
O10   O     O_R   0.003820 0.233770 0.137690 -0.542478
O11   O     O_R   0.003820 0.266230 0.637690 -0.542330
O12   O     O_R   0.996180 0.733770 0.362310 -0.542478
O13   O     O_R   0.065870 0.936460 0.783500 -0.538486
O14   O     O_R   0.934130 0.063540 0.216500 -0.539633
O15   O     O_R   0.934130 0.436460 0.716500 -0.538486
O16   O     O_R   0.065870 0.563540 0.283500 -0.539634
C5    C     C_R   0.998468 0.596496 0.894363 0.759415
C6    C     C_R   0.001521 0.403502 0.105634 0.759889
C7    C     C_R   0.001532 0.096493 0.605637 0.759462
C8    C     C_R   0.998479 0.903505 0.394365 0.759902
O17   O     O_3   0.022790 0.603020 0.723980 -0.378645
O18   O     O_3   0.977210 0.396980 0.276020 -0.378988
O19   O     O_3   0.977210 0.103020 0.776020 -0.378661
O20   O     O_3   0.022790 0.896980 0.223980 -0.378990
V1    V     V_3+5 0.995770 0.877900 0.754830 1.408814
V2    V     V_3+5 0.004230 0.122100 0.245170 1.406373
V3    V     V_3+5 0.004230 0.377900 0.745170 1.408811
V4    V     V_3+5 0.995770 0.622100 0.254830 1.406372
C9    C     C_2   0.001722 0.082307 0.519469 -0.330559
C10   C     C_2   0.998306 0.917688 0.480538 -0.330788
C11   C     C_2   0.998279 0.582309 0.980533 -0.330548
C12   C     C_2   0.001693 0.417686 0.019459 -0.330774
H1    H     H_    0.004512 0.210111 0.487507 0.154110
H2    H     H_    0.995519 0.789884 0.512501 0.154219
H3    H     H_    0.995489 0.710113 0.012500 0.154107
H4    H     H_    0.004480 0.289881 0.987491 0.154213
C13   C     C_R   0.687463 0.985420 0.014304 0.556805
C14   C     C_R   0.317235 0.001148 0.959499 0.555813
C15   C     C_R   0.312539 0.485442 0.485700 0.556792
C16   C     C_R   0.682772 0.501051 0.540558 0.555848
O21   O     O_2   0.719473 0.001632 0.965801 -0.539968
O22   O     O_2   0.285877 0.968462 0.007926 -0.541332
O23   O     O_2   0.280527 0.501659 0.534203 -0.539981
O24   O     O_2   0.714137 0.468241 0.492153 -0.541274
N1    N     N_R   0.705349 0.956035 0.093213 -0.544509
N2    N     N_R   0.298588 0.043632 0.881662 -0.542396
N3    N     N_R   0.294655 0.456057 0.406787 -0.544504
N4    N     N_R   0.701413 0.543612 0.618387 -0.542447
C17   C     C_R   0.676166 0.944633 0.147464 0.551748
C18   C     C_R   0.327963 0.069483 0.827993 0.554398
C19   C     C_R   0.323842 0.444653 0.352538 0.551745
C20   C     C_R   0.672037 0.569500 0.672049 0.554441
C21   C     C_R   0.778617 0.768021 0.138980 -0.091318
C22   C     C_R   0.217474 0.898975 0.847847 -0.094429
C23   C     C_R   0.221390 0.268058 0.360950 -0.091304
C24   C     C_R   0.782498 0.398908 0.652727 -0.094498
C25   C     C_R   0.828604 0.754462 0.167942 -0.195679
C26   C     C_R   0.166871 0.912118 0.826547 -0.189324
C27   C     C_R   0.171402 0.254494 0.331993 -0.195695
C28   C     C_R   0.833102 0.412038 0.674018 -0.189238
C29   C     C_R   0.835256 0.087749 0.161313 -0.194401
C30   C     C_R   0.173057 0.244778 0.819876 -0.193670
C31   C     C_R   0.164741 0.587739 0.338754 -0.194420
C32   C     C_R   0.826960 0.744883 0.679633 -0.193464
C33   C     C_R   0.785443 0.100657 0.132283 -0.093944
C34   C     C_R   0.223827 0.231150 0.841168 -0.088276
C35   C     C_R   0.214555 0.600651 0.367779 -0.093942
C36   C     C_R   0.776190 0.731267 0.658346 -0.088387
C37   C     C_R   0.756945 0.941162 0.120884 0.407483
C38   C     C_R   0.246410 0.058105 0.855670 0.395489
C39   C     C_R   0.243059 0.441180 0.379110 0.407427
C40   C     C_R   0.753587 0.558132 0.644382 0.395863
C41   C     C_R   0.605171 0.982523 0.040229 -0.077881
C42   C     C_R   0.399439 0.015236 0.932904 -0.076550
C43   C     C_R   0.394834 0.482534 0.459785 -0.077879
C44   C     C_R   0.600566 0.515195 0.567136 -0.076533
C45   C     C_R   0.636630 0.996642 0.984478 -0.075386
C46   C     C_R   0.368286 0.991298 0.988553 -0.083023
C47   C     C_R   0.363372 0.496656 0.515532 -0.075390
C48   C     C_R   0.631722 0.491220 0.511494 -0.083053
C49   C     C_R   0.616210 0.017173 0.901438 0.120426
C50   C     C_R   0.389301 0.954700 0.070379 0.125111
C51   C     C_R   0.383789 0.517180 0.598576 0.120460
C52   C     C_R   0.610710 0.454609 0.429668 0.125098
C53   C     C_R   0.625029 0.959534 0.123325 -0.073918
C54   C     C_R   0.379129 0.046934 0.850873 -0.075109
C55   C     C_R   0.374980 0.459555 0.376684 -0.073918
C56   C     C_R   0.620873 0.546922 0.649167 -0.075141
C57   C     C_R   0.857591 0.914426 0.179495 -0.049447
C58   C     C_R   0.143720 0.085284 0.812563 -0.052637
C59   C     C_R   0.142410 0.414435 0.320507 -0.049457
C60   C     C_R   0.856276 0.585284 0.687467 -0.052656
H5    H     H_    0.856162 0.214252 0.169167 0.136837
H6    H     H_    0.156867 0.380419 0.809519 0.133294
H7    H     H_    0.143830 0.714221 0.330956 0.136840
H8    H     H_    0.843167 0.880594 0.689551 0.133181
H9    H     H_    0.768870 0.234938 0.118981 0.112337
H10   H     H_    0.245599 0.355539 0.847322 0.116998
H11   H     H_    0.231123 0.734920 0.381132 0.112371
H12   H     H_    0.754434 0.855715 0.651769 0.116735
C61   C     C_R   0.482151 0.027972 0.904408 0.009112
C62   C     C_R   0.522651 0.980676 0.068077 0.010569
C63   C     C_R   0.517851 0.527967 0.595622 0.009113
C64   C     C_R   0.477358 0.480654 0.431948 0.010568
C65   C     C_R   0.471266 0.976360 0.040491 0.006394
C66   C     C_R   0.533687 0.011655 0.930822 0.003430
C67   C     C_R   0.528742 0.476316 0.459542 0.006394
C68   C     C_R   0.466315 0.511658 0.569201 0.003424
C69   C     C_R   0.450985 0.006401 0.959238 0.073641
C70   C     C_R   0.553816 0.991863 0.012987 0.074408
C71   C     C_R   0.549020 0.506369 0.540796 0.073644
C72   C     C_R   0.446189 0.491860 0.487034 0.074408
C73   C     C_R   0.460891 0.064594 0.824326 -0.195495
C74   C     C_R   0.543494 0.978263 0.149997 -0.187941
C75   C     C_R   0.539108 0.564600 0.675705 -0.195488
C76   C     C_R   0.456519 0.478252 0.350026 -0.187937
C77   C     C_R   0.410735 0.057878 0.795261 0.109804
C78   C     C_R   0.593316 0.956123 0.179000 0.121457
C79   C     C_R   0.589264 0.557880 0.704774 0.109803
C80   C     C_R   0.406696 0.456151 0.321014 0.121449
O25   O     O_2   0.307339 0.120248 0.753206 -0.544569
O26   O     O_2   0.697512 0.921084 0.224532 -0.544023
O27   O     O_2   0.692659 0.620359 0.746826 -0.544509
O28   O     O_2   0.302500 0.421096 0.275466 -0.544022
C81   C     C_R   0.565583 0.011927 0.876930 -0.194008
C82   C     C_R   0.439753 0.937448 0.092432 -0.181177
C83   C     C_R   0.434416 0.511940 0.623089 -0.194004
C84   C     C_R   0.560258 0.437376 0.407606 -0.181164
H13   H     H_    0.145948 0.785725 0.821471 0.135762
H14   H     H_    0.844426 0.618941 0.181057 0.133885
H15   H     H_    0.854008 0.285564 0.679525 0.135761
H16   H     H_    0.155584 0.118988 0.318826 0.133905
H17   H     H_    0.234258 0.764454 0.858939 0.114528
H18   H     H_    0.756668 0.644076 0.130666 0.112613
H19   H     H_    0.765693 0.264318 0.642049 0.114255
H20   H     H_    0.243342 0.144129 0.369212 0.112637
H21   H     H_    0.482992 0.102806 0.782755 0.135830
H22   H     H_    0.520937 0.999908 0.192731 0.135258
H23   H     H_    0.517006 0.602832 0.717275 0.135822
H24   H     H_    0.479081 0.499880 0.307299 0.135261
H25   H     H_    0.551345 0.002953 0.814303 0.140692
H26   H     H_    0.454436 0.886339 0.150892 0.134671
H27   H     H_    0.448652 0.502975 0.685717 0.140697
H28   H     H_    0.545575 0.386260 0.349144 0.134662
C85   C     C_3   0.647921 0.047016 0.838916 -0.284050
C86   C     C_3   0.622183 0.070297 0.751489 -0.811426
H29   H     H_    0.603736 0.941055 0.727748 0.235080
H30   H     H_    0.595190 0.183136 0.744560 0.239049
H31   H     H_    0.649356 0.104569 0.714753 0.234903
H32   H     H_    0.670054 0.172955 0.855545 0.214547
H33   H     H_    0.673070 0.928939 0.839899 0.244584
C87   C     C_3   0.358786 0.935973 0.134914 -0.266236
C88   C     C_3   0.386120 0.926140 0.222180 -0.838454
H34   H     H_    0.407529 0.798202 0.234365 0.236101
H35   H     H_    0.411587 0.042898 0.237389 0.237836
H36   H     H_    0.359728 0.929522 0.262516 0.241234
H37   H     H_    0.335021 0.059151 0.131703 0.224833
H38   H     H_    0.335874 0.810409 0.122730 0.218744
C89   C     C_3   0.352075 0.547006 0.661096 -0.284058
C90   C     C_3   0.377811 0.570288 0.748526 -0.811475
H39   H     H_    0.396259 0.441051 0.772262 0.235074
H40   H     H_    0.404802 0.683135 0.755463 0.239060
H41   H     H_    0.350635 0.604548 0.785261 0.234899
H42   H     H_    0.329942 0.672940 0.644473 0.214570
H43   H     H_    0.326928 0.428921 0.660103 0.244527
C91   C     C_3   0.641230 0.435875 0.365140 -0.266239
C92   C     C_3   0.613901 0.426044 0.277871 -0.838443
H44   H     H_    0.592489 0.298110 0.265680 0.236097
H45   H     H_    0.588436 0.542803 0.262664 0.237837
H46   H     H_    0.640295 0.429418 0.237539 0.241237
H47   H     H_    0.664999 0.559048 0.368362 0.224792
H48   H     H_    0.664138 0.310304 0.377322 0.218771
C93   C     C_3   0.391867 0.053690 0.704880 -0.299549
C94   C     C_3   0.428739 0.005462 0.652973 -0.793927
H49   H     H_    0.453705 0.122868 0.650351 0.230172
H50   H     H_    0.449985 0.881199 0.676152 0.233699
H51   H     H_    0.409299 0.976389 0.591109 0.235325
H52   H     H_    0.362983 0.948379 0.691200 0.219945
H53   H     H_    0.375788 0.187663 0.684720 0.219484
C95   C     C_3   0.612080 0.929021 0.268967 -0.305263
C96   C     C_3   0.574430 0.915437 0.322485 -0.813960
H54   H     H_    0.555097 0.048404 0.323995 0.225903
H55   H     H_    0.547844 0.803765 0.301954 0.229176
H56   H     H_    0.593148 0.882857 0.384404 0.241417
H57   H     H_    0.633111 0.799508 0.277844 0.228016
H58   H     H_    0.637255 0.042402 0.292547 0.223739
C97   C     C_3   0.608131 0.553698 0.795154 -0.299559
C98   C     C_3   0.571259 0.505434 0.847055 -0.793869
H59   H     H_    0.546289 0.622828 0.849685 0.230162
H60   H     H_    0.550016 0.381163 0.823865 0.233694
H61   H     H_    0.590699 0.476357 0.908920 0.235315
H62   H     H_    0.637020 0.448411 0.808829 0.219914
H63   H     H_    0.624203 0.687683 0.815320 0.219483
C99   C     C_3   0.387935 0.429101 0.231042 -0.305262
C100  C     C_3   0.425586 0.415546 0.177525 -0.813940
H64   H     H_    0.444927 0.548506 0.176045 0.225896
H65   H     H_    0.452165 0.303844 0.198036 0.229181
H66   H     H_    0.406868 0.383024 0.115599 0.241413
H67   H     H_    0.366903 0.299593 0.222144 0.228025
H68   H     H_    0.362762 0.542495 0.207477 0.223728

loop_
_geom_bond_atom_site_label_1
_geom_bond_atom_site_label_2
_ccdc_geom_bond_type
O17   V3    S    
C51   C89   S    
C61   C66   A    
N1    C17   A    
O1    C5    A    
C88   H34   S    
C80   C99   S    
O19   V1    S    
O13   V1    S    
C63   C68   A    
C64   C76   A    
O3    C7    A    
C89   C90   S    
C14   C46   A    
C44   C48   A    
O15   V3    S    
C94   H49   S    
C34   C38   A    
C91   H48   S    
C24   H19   S    
C42   C54   A    
O7    C3    A    
C92   H45   S    
C41   C53   A    
C32   C60   A    
C62   C70   A    
C23   H20   S    
C26   H13   S    
O9    V1    S    
C90   H39   S    
N3    C39   S    
C18   C54   A    
N2    C38   S    
C74   C78   A    
O4    C8    A    
C25   C57   A    
C96   H55   S    
C31   C35   A    
C82   H26   S    
C53   C78   A    
C21   C37   A    
C93   H52   S    
C27   C59   A    
O1    V3    S    
C15   C47   A    
C95   C96   S    
C66   C81   A    
O2    V4    S    
C14   O22   S    
C20   O27   S    
C51   C83   A    
O3    V1    S    
C50   C87   S    
C97   H62   S    
C73   C77   A    
C49   C81   A    
C76   C80   A    
C1    O15   A    
C11   C12   D    
C2    O16   A    
C7    C9    S    
C86   H31   S    
C76   H24   S    
O2    C6    A    
C100  H66   S    
C19   C55   A    
C83   H27   S    
C99   C100  S    
O14   V2    S    
C66   C70   A    
C81   H25   S    
C49   C85   S    
C65   C69   A    
C30   C58   A    
C45   C49   A    
C16   N4    A    
O11   C7    A    
C28   H15   S    
C87   H38   S    
C100  H64   S    
O12   C8    A    
C43   C72   A    
C62   C74   A    
C31   C59   A    
C99   H67   S    
C61   C73   A    
O10   V2    S    
C63   C75   A    
C92   H46   S    
C25   H14   S    
O5    V1    S    
C91   H47   S    
C75   H23   S    
C18   O25   S    
C52   C91   S    
C97   C98   S    
O8    V4    S    
C98   H61   S    
C97   H63   S    
C12   H4    S    
O7    V3    S    
C28   C60   A    
C56   C79   A    
O18   V4    S    
C50   C82   A    
C96   H56   S    
C77   C93   S    
C36   H12   S    
N4    C40   S    
C93   H53   S    
O11   V3    S    
C24   C40   A    
C8    C10   S    
C32   C36   A    
C24   C28   A    
C98   H60   S    
C44   C56   A    
C11   H3    S    
C85   H32   S    
C32   H8    S    
O5    C1    A    
C86   H30   S    
C42   C46   A    
C1    C60   S    
C44   C71   A    
C41   C45   A    
O8    C4    A    
C13   C45   A    
C9    C10   D    
O9    C5    A    
C36   C40   A    
N2    C18   A    
C33   C37   A    
C92   H44   S    
C63   C71   A    
C22   C26   A    
C14   N2    A    
C22   H17   S    
O6    V2    S    
C87   H37   S    
C88   H36   S    
C75   C79   A    
C55   C80   A    
C26   C58   A    
C17   C53   A    
O10   C6    A    
C54   C77   A    
N1    C37   S    
C4    C57   S    
C42   C69   A    
C52   C84   A    
C79   C97   S    
C41   C70   A    
C23   C39   A    
C68   C72   A    
C73   H21   S    
C22   C38   A    
O16   V4    S    
C61   C69   A    
C35   H11   S    
C3    O13   A    
C95   H58   S    
C10   H2    S    
C84   H28   S    
C43   C55   A    
C90   H41   S    
C48   C52   A    
C3    C58   S    
C74   H22   S    
C47   C51   A    
O6    C2    A    
C94   H50   S    
C34   H10   S    
C21   C25   A    
C5    C11   S    
C31   H7    S    
O12   V4    S    
C13   N1    A    
C6    C12   S    
C23   C27   A    
C64   C67   A    
C16   C48   A    
C99   H68   S    
C27   H16   S    
C64   C72   A    
C90   H40   S    
C89   H42   S    
C85   H33   S    
C29   H5    S    
O20   V2    S    
C46   C50   A    
C85   C86   S    
C98   H59   S    
C35   C39   A    
C15   N3    A    
C96   H54   S    
C30   C34   A    
C2    C59   S    
C29   C33   A    
C78   C95   S    
C29   C57   A    
C21   H18   S    
N3    C19   A    
C68   C83   A    
C89   H43   S    
C9    H1    S    
C94   H51   S    
C17   O26   S    
C30   H6    S    
C43   C47   A    
N4    C20   A    
C67   C84   A    
C20   C56   A    
C87   C88   S    
C19   O28   S    
C88   H35   S    
C93   C94   S    
C91   C92   S    
C4    O14   A    
C65   C82   A    
C100  H65   S    
C13   O21   S    
C86   H29   S    
C67   C71   A    
C15   O23   S    
C95   H57   S    
O4    V2    S    
C16   O24   S    
C33   H9    S    
C62   C65   A    
