data_mof_unit_57925.cif
_audit_creation_date              2012-12-11T15:47:07-0500
_audit_creation_method            fapswitch 2.2
_symmetry_space_group_name_H-M    P1
_symmetry_Int_Tables_number       1
_space_group_crystal_system       triclinic
_cell_length_a                    20.1629
_cell_length_b                    7.257623
_cell_length_c                    13.565441
_cell_angle_alpha                 90.000013
_cell_angle_beta                  103.010371
_cell_angle_gamma                 90.0
_cell_volume                      1934.13638289

loop_
_atom_site_label
_atom_site_type_symbol
_atom_type_description
_atom_site_fract_x
_atom_site_fract_y
_atom_site_fract_z
_atom_type_partial_charge
O1    O     O_R   0.449560 0.506810 0.599700 -0.534740
O2    O     O_R   0.550440 0.006810 0.400300 -0.534740
O3    O     O_R   0.587960 0.180060 0.595760 -0.545936
O4    O     O_R   0.412040 0.680060 0.404240 -0.545936
C1    C     C_R   0.614902 0.344202 0.617570 0.681732
C2    C     C_R   0.385098 0.844202 0.382430 0.681732
O5    O     O_R   0.452380 0.177430 0.611700 -0.538578
O6    O     O_R   0.547620 0.677430 0.388300 -0.538578
O7    O     O_R   0.413900 0.001890 0.416350 -0.540856
O8    O     O_R   0.586100 0.501890 0.583650 -0.540856
C3    C     C_R   0.436437 0.345694 0.637661 0.685255
C4    C     C_R   0.563563 0.845693 0.362339 0.685256
O9    O     O_3   0.487530 0.337490 0.435890 -0.378978
O10   O     O_3   0.512470 0.837490 0.564110 -0.378978
V1    V     V_3+5 0.502310 0.064660 0.511890 1.408051
V2    V     V_3+5 0.497690 0.564660 0.488110 1.408051
C5    C     C_R   0.609331 0.871362 0.109555 -0.159086
C6    C     C_R   0.390668 0.371369 0.890444 -0.159087
H1    H     H_    0.515807 0.866062 0.159912 0.105605
H2    H     H_    0.484192 0.366075 0.840086 0.105605
H3    H     H_    0.692393 0.884239 0.983580 0.124007
H4    H     H_    0.307607 0.384237 0.016420 0.124007
H5    H     H_    0.583197 0.879269 0.030563 0.114932
H6    H     H_    0.416802 0.379280 0.969435 0.114933
C7    C     C_R   0.603351 0.853858 0.284926 -0.023836
C8    C     C_R   0.396650 0.353859 0.715074 -0.023837
C9    C     C_R   0.931540 0.849774 0.316498 -0.168294
C10   C     C_R   0.068460 0.349781 0.683501 -0.168293
C11   C     C_R   0.896061 0.841971 0.393038 -0.119608
C12   C     C_R   0.103939 0.341984 0.606961 -0.119607
C13   C     C_R   0.825143 0.844486 0.369899 -0.157098
C14   C     C_R   0.174857 0.344495 0.630101 -0.157096
C15   C     C_R   0.787533 0.855024 0.268272 0.076083
C16   C     C_R   0.212467 0.355025 0.731729 0.076082
C17   C     C_R   0.824349 0.862838 0.190093 0.067330
C18   C     C_R   0.175651 0.362836 0.809908 0.067329
C19   C     C_R   0.714795 0.858041 0.241618 0.071251
C20   C     C_R   0.285205 0.358041 0.758383 0.071252
C21   C     C_R   0.680748 0.868535 0.137800 0.140169
C22   C     C_R   0.319252 0.368537 0.862200 0.140169
C23   C     C_R   0.718036 0.876110 0.062805 -0.202231
C24   C     C_R   0.281964 0.376108 0.937196 -0.202232
C25   C     C_R   0.788634 0.873378 0.088317 -0.191257
C26   C     C_R   0.211366 0.373373 0.911684 -0.191256
C27   C     C_R   0.674386 0.850992 0.314284 -0.211036
C28   C     C_R   0.325615 0.350988 0.685717 -0.211037
C29   C     C_R   0.570867 0.863919 0.182792 -0.174584
C30   C     C_R   0.429132 0.363927 0.817207 -0.174584
C31   C     C_R   0.896446 0.860087 0.215413 -0.067590
C32   C     C_R   0.103554 0.360086 0.784587 -0.067591
H7    H     H_    0.696194 0.843061 0.394325 0.093313
H8    H     H_    0.303807 0.343050 0.605678 0.093314
H9    H     H_    0.801558 0.837953 0.433532 0.107769
H10   H     H_    0.198442 0.337970 0.566467 0.107769
H11   H     H_    0.923758 0.833910 0.471183 0.120724
H12   H     H_    0.076242 0.333931 0.528816 0.120723
C33   C     C_R   0.217425 0.023147 0.223381 -0.153471
C34   C     C_R   0.782575 0.523147 0.776617 -0.153471
H13   H     H_    0.193497 0.156023 0.204538 0.119263
H14   H     H_    0.806503 0.656022 0.795458 0.119264
C35   C     C_R   0.282607 0.018707 0.286795 -0.160949
C36   C     C_R   0.717393 0.518706 0.713203 -0.160950
H15   H     H_    0.306558 0.147769 0.314881 0.118036
H16   H     H_    0.693443 0.647768 0.685115 0.118036
C37   C     C_R   0.316158 0.850169 0.313678 -0.038515
C38   C     C_R   0.683841 0.350169 0.686323 -0.038515
C39   C     C_R   0.282710 0.686183 0.275016 -0.158035
C40   C     C_R   0.717289 0.186184 0.724986 -0.158034
H17   H     H_    0.306756 0.553426 0.293800 0.118300
H18   H     H_    0.693242 0.053428 0.706205 0.118300
C41   C     C_R   0.217530 0.690583 0.211597 -0.156817
C42   C     C_R   0.782470 0.190583 0.788405 -0.156817
H19   H     H_    0.193699 0.561429 0.183424 0.118130
H20   H     H_    0.806300 0.061430 0.816580 0.118130
C43   C     C_R   0.183816 0.859100 0.185040 -0.035559
C44   C     C_R   0.816184 0.359100 0.814960 -0.035559
O11   O     O_R   0.913920 0.203370 0.916260 -0.539732
O12   O     O_R   0.086080 0.703370 0.083740 -0.539732
O13   O     O_R   0.047620 0.535540 0.888290 -0.537834
O14   O     O_R   0.952380 0.035540 0.111710 -0.537834
C45   C     C_R   0.063762 0.368296 0.862393 0.679698
C46   C     C_R   0.936238 0.868297 0.137607 0.679698
O15   O     O_R   0.912040 0.532780 0.904220 -0.545765
O16   O     O_R   0.087960 0.032780 0.095780 -0.545765
O17   O     O_R   0.949550 0.708160 0.099720 -0.534800
O18   O     O_R   0.050450 0.208160 0.900280 -0.534800
C47   C     C_R   0.885408 0.364927 0.883078 0.673791
C48   C     C_R   0.114592 0.864927 0.116922 0.673791
O19   O     O_3   0.012480 0.375300 0.064060 -0.378452
O20   O     O_3   0.987520 0.875300 0.935940 -0.378452
V3    V     V_3+5 0.997690 0.648180 0.988110 1.409836
V4    V     V_3+5 0.002310 0.148180 0.011890 1.409835
H21   H     H_    0.986698 0.847732 0.336115 0.103472
H22   H     H_    0.013302 0.347743 0.663883 0.103471
H23   H     H_    0.815026 0.879619 0.027153 0.116890
H24   H     H_    0.184974 0.379610 0.972848 0.116890

loop_
_geom_bond_atom_site_label_1
_geom_bond_atom_site_label_2
_ccdc_geom_bond_type
C34   C36   A    
C38   C40   A    
O11   V4    S    
O4    V2    S    
C9    C11   A    
O15   C47   A    
O1    C3    A    
C42   C44   A    
O2    C4    A    
C2    O7    A    
O17   V3    S    
C34   C44   A    
C21   C23   A    
O5    C3    A    
C5    H5    S    
C6    H6    S    
C20   C22   A    
H1    C29   S    
C33   H13   S    
C27   H7    S    
C34   H14   S    
C28   H8    S    
C10   H22   S    
C5    C21   A    
C35   H15   S    
C6    C22   A    
C36   H16   S    
C10   C32   A    
C2    C37   S    
C37   C39   A    
C17   C31   A    
C25   H23   S    
C13   C15   A    
C12   C14   A    
C17   C25   A    
C7    C29   A    
O13   V3    S    
C45   O18   A    
C8    C30   A    
C22   C24   A    
O6    V2    S    
C23   C25   A    
C24   C26   A    
C14   H10   S    
C36   C38   A    
C5    C29   A    
C42   H20   S    
O13   C45   A    
C11   H11   S    
C3    C8    S    
C12   H12   S    
C15   C19   A    
C40   C42   A    
C39   H17   S    
C14   C16   A    
C31   C46   S    
O14   V4    S    
C26   H24   S    
O6    C4    A    
O1    V2    S    
C13   H9    S    
O19   V4    S    
O2    V1    S    
C44   C47   S    
O11   C47   A    
H2    C30   S    
H3    C23   S    
O4    C2    A    
C9    H21   S    
C19   C27   A    
C7    C27   A    
C18   C32   A    
C41   H19   S    
O12   C48   A    
C16   C20   A    
O16   C48   A    
C1    C38   S    
O3    C1    A    
C6    C30   A    
C33   C35   A    
O12   V3    S    
C46   O17   A    
O15   V3    S    
C4    C7    S    
C33   C43   A    
C10   C12   A    
O7    V1    S    
C1    O8    A    
C19   C21   A    
O8    V2    S    
C41   C43   A    
O20   V3    S    
H4    C24   S    
O5    V1    S    
C15   C17   A    
O14   C46   A    
C39   C41   A    
C20   C28   A    
C18   C26   A    
C8    C28   A    
C35   C37   A    
C43   C48   S    
C16   C18   A    
C11   C13   A    
O9    V2    S    
C40   H18   S    
O10   V1    S    
O3    V1    S    
O18   V4    S    
O16   V4    S    
C9    C31   A    
C32   C45   S    
