data_mof_unit_22335.cif
_audit_creation_date              2012-12-10T19:26:39-0500
_audit_creation_method            fapswitch 2.2
_symmetry_space_group_name_H-M    P1
_symmetry_Int_Tables_number       1
_space_group_crystal_system       triclinic
_cell_length_a                    19.214193
_cell_length_b                    10.50281
_cell_length_c                    9.754306
_cell_angle_alpha                 90.730866
_cell_angle_beta                  90.76533
_cell_angle_gamma                 89.926905
_cell_volume                      1968.11145151

loop_
_atom_site_label
_atom_site_type_symbol
_atom_type_description
_atom_site_fract_x
_atom_site_fract_y
_atom_site_fract_z
_atom_type_partial_charge
C1    C     C_R   0.500960 0.257599 0.499110 0.908906
C2    C     C_R   0.499040 0.742401 0.500890 0.908906
C3    C     C_3   0.547424 0.043183 0.593862 -0.321913
C4    C     C_3   0.452578 0.956816 0.406137 -0.321910
C5    C     C_3   0.564372 0.955068 0.470004 -0.328526
C6    C     C_3   0.435629 0.044931 0.529995 -0.328524
C7    C     C_3   0.499019 0.877317 0.502248 -0.115592
C8    C     C_3   0.500982 0.122683 0.497751 -0.115594
C9    C     C_3   0.482365 0.964069 0.623821 0.655091
C10   C     C_3   0.517636 0.035930 0.376177 0.655092
C11   C     C_3   0.509710 0.385484 0.047449 -0.264460
C12   C     C_3   0.490290 0.614516 0.952551 -0.264466
C13   C     C_3   0.558889 0.457364 0.951985 -0.261109
C14   C     C_3   0.441111 0.542636 0.048015 -0.261094
C15   C     C_3   0.451670 0.429457 0.950646 0.688407
C16   C     C_3   0.548330 0.570543 0.049355 0.688390
C17   C     C_R   0.365623 0.500206 0.498963 0.860225
C18   C     C_R   0.634377 0.499795 0.501037 0.860220
C19   C     C_R   0.252897 0.502830 0.617592 -0.179559
C20   C     C_R   0.747100 0.497211 0.382398 -0.179565
C21   C     C_R   0.181030 0.504863 0.613634 -0.193541
C22   C     C_R   0.818967 0.495200 0.386346 -0.193555
C23   C     C_R   0.145175 0.506035 0.487735 0.030763
C24   C     C_R   0.854823 0.494016 0.512240 0.030790
C25   C     C_R   0.181531 0.508327 0.362412 0.174781
C26   C     C_R   0.818469 0.491689 0.637566 0.174708
C27   C     C_R   0.254374 0.504894 0.368709 -0.189863
C28   C     C_R   0.745626 0.495112 0.631280 -0.189885
C29   C     C_R   0.289880 0.502202 0.495340 -0.085049
C30   C     C_R   0.710119 0.497811 0.504655 -0.085033
C31   C     C_R   0.930262 0.495534 0.508122 0.270266
C32   C     C_R   0.069735 0.504526 0.491849 0.270288
H1    H     H_    0.279351 0.501070 0.716346 0.189523
H2    H     H_    0.720646 0.498978 0.283648 0.189523
H3    H     H_    0.153153 0.503504 0.709501 0.153910
H4    H     H_    0.846843 0.496581 0.290477 0.153908
H5    H     H_    0.284044 0.504373 0.275444 0.165228
H6    H     H_    0.715959 0.495621 0.724548 0.165221
H7    H     H_    0.615968 0.913543 0.445515 0.161789
H8    H     H_    0.384033 0.086456 0.554485 0.161792
H9    H     H_    0.585014 0.082799 0.670560 0.159799
H10   H     H_    0.414988 0.917200 0.329439 0.159801
H11   H     H_    0.608124 0.422485 0.906432 0.144975
H12   H     H_    0.391876 0.577514 0.093567 0.144978
H13   H     H_    0.517493 0.289917 0.092107 0.200853
H14   H     H_    0.482506 0.710083 0.907893 0.200851
N1    N     N_R   0.032858 0.422940 0.410693 -0.186956
N2    N     N_R   0.967138 0.577119 0.589283 -0.186945
N3    N     N_R   0.964030 0.419086 0.418036 -0.170437
N4    N     N_R   0.035967 0.580973 0.581939 -0.170438
N5    N     N_3   0.499950 0.500030 0.863290 -0.112982
N6    N     N_3   0.500050 0.499970 0.136710 -0.112982
O1    O     O_R   0.500000 0.313960 0.616610 -0.605900
O2    O     O_R   0.500000 0.686040 0.383390 -0.605900
O3    O     O_R   0.500030 0.313950 0.383350 -0.590136
O4    O     O_R   0.499970 0.686050 0.616650 -0.590136
O5    O     O_R   0.398120 0.499990 0.616660 -0.576669
O6    O     O_R   0.601880 0.500010 0.383340 -0.576673
O7    O     O_R   0.398150 0.499980 0.383410 -0.642729
O8    O     O_R   0.601850 0.500020 0.616590 -0.642727
Zn1   Zn    Zn3+2 0.499980 0.500010 0.655740 0.992435
Zn2   Zn    Zn3+2 0.500020 0.499990 0.344260 0.992433
O9    O     O_3   0.399384 0.354048 0.887538 -0.595791
C33   C     C_3   0.361221 0.291936 0.989215 -0.399471
H15   H     H_    0.337044 0.360986 0.061645 0.165741
H16   H     H_    0.394386 0.223020 0.045988 0.178236
H17   H     H_    0.318493 0.237371 0.938566 0.197634
O10   O     O_3   0.600614 0.645954 0.112466 -0.595810
C34   C     C_3   0.638788 0.708044 0.010788 -0.399346
H18   H     H_    0.605619 0.776927 0.953941 0.178218
H19   H     H_    0.662998 0.638956 0.938409 0.165714
H20   H     H_    0.681500 0.762661 0.061463 0.197610
C35   C     C_3   0.142163 0.516453 0.225731 -0.392115
C36   C     C_3   0.185817 0.549623 0.100981 -0.906164
H21   H     H_    0.215688 0.638671 0.120423 0.264629
H22   H     H_    0.221728 0.470305 0.075083 0.251814
H23   H     H_    0.150856 0.564577 0.011011 0.259508
H24   H     H_    0.116040 0.423971 0.204110 0.224209
H25   H     H_    0.101383 0.591160 0.234792 0.217204
C37   C     C_3   0.857840 0.483547 0.774241 -0.391974
C38   C     C_3   0.814197 0.450180 0.898974 -0.905911
H26   H     H_    0.778255 0.529438 0.924983 0.251731
H27   H     H_    0.784359 0.361100 0.879420 0.264594
H28   H     H_    0.849163 0.435171 0.988933 0.259466
H29   H     H_    0.898664 0.408912 0.765114 0.217171
H30   H     H_    0.883915 0.576074 0.795928 0.224126
O11   O     O_3   0.464463 0.915644 0.752800 -0.623625
C39   C     C_3   0.445529 0.017215 0.840281 -0.327028
H31   H     H_    0.396975 0.063878 0.803327 0.192651
H32   H     H_    0.488133 0.088348 0.852119 0.180930
H33   H     H_    0.434885 0.978646 0.943179 0.180054
O12   O     O_3   0.535539 0.084353 0.247198 -0.623626
C40   C     C_3   0.554472 0.982781 0.159718 -0.327008
H34   H     H_    0.511867 0.911647 0.147882 0.180931
H35   H     H_    0.603026 0.936117 0.196671 0.192641
H36   H     H_    0.565115 0.021347 0.056819 0.180054

loop_
_geom_bond_atom_site_label_1
_geom_bond_atom_site_label_2
_ccdc_geom_bond_type
O6    Zn2   S    
O11   C39   S    
C40   H34   S    
C27   C29   A    
C1    C8    S    
C17   C29   S    
C35   C36   S    
C39   H32   S    
C2    C7    S    
N5    Zn1   S    
C38   H28   S    
C6    C9    S    
C38   H26   S    
N1    N3    A    
C20   C30   A    
C36   H22   S    
C19   C21   A    
C24   C26   A    
O3    Zn2   S    
C34   H19   S    
C1    O1    A    
C37   H30   S    
C11   N6    S    
C13   N5    S    
O1    Zn1   S    
C18   O6    A    
C14   N6    S    
C12   C16   S    
O10   C34   S    
C36   H23   S    
C35   H24   S    
C18   C30   S    
C15   N5    S    
C25   C35   S    
C20   H2    S    
N2    N4    A    
C10   O12   S    
C40   H35   S    
C11   C15   S    
C31   N3    A    
C4    C7    S    
C38   H27   S    
C36   H21   S    
C33   H17   S    
C12   H14   S    
C3    C8    S    
C19   H1    S    
C5    C7    S    
C6    C8    S    
O2    Zn2   S    
C26   C37   S    
O8    Zn1   S    
C33   H16   S    
C34   H20   S    
C37   H29   S    
C3    C9    S    
C39   H33   S    
C28   H6    S    
C35   H25   S    
C32   N4    A    
C17   O7    A    
C16   O10   S    
C4    C6    S    
C20   C22   A    
C40   H36   S    
C31   N2    A    
C21   C23   A    
C2    O2    A    
C32   N1    A    
C6    H8    S    
C11   H13   S    
C4    C10   S    
C19   C29   A    
C13   H11   S    
C12   N5    S    
C14   H12   S    
C18   O8    A    
C7    C9    S    
C3    H9    S    
O7    Zn2   S    
O4    Zn1   S    
C16   N6    S    
C12   C14   S    
C37   C38   S    
C3    C5    S    
O5    Zn1   S    
C21   H3    S    
C25   C27   A    
C22   H4    S    
C26   C28   A    
C23   C32   S    
C5    H7    S    
C1    O3    A    
C24   C31   S    
C5    C10   S    
N6    Zn2   S    
C9    O11   S    
C11   C13   S    
C4    H10   S    
C27   H5    S    
C33   H15   S    
C28   C30   A    
O12   C40   S    
C22   C24   A    
C23   C25   A    
C34   H18   S    
O9    C33   S    
C39   H31   S    
C8    C10   S    
C13   C16   S    
C15   O9    S    
C14   C15   S    
C2    O4    A    
C17   O5    A    
