data_mof_unit_32509.cif
_audit_creation_date              2012-12-10T21:31:59-0500
_audit_creation_method            fapswitch 2.2
_symmetry_space_group_name_H-M    P1
_symmetry_Int_Tables_number       1
_space_group_crystal_system       triclinic
_cell_length_a                    15.459652
_cell_length_b                    16.1027
_cell_length_c                    16.885935
_cell_angle_alpha                 92.399414
_cell_angle_beta                  88.316952
_cell_angle_gamma                 109.885503
_cell_volume                      3948.99870701

loop_
_atom_site_label
_atom_site_type_symbol
_atom_type_description
_atom_site_fract_x
_atom_site_fract_y
_atom_site_fract_z
_atom_type_partial_charge
C1    C     C_R   0.502927 0.489813 0.347208 0.882416
C2    C     C_R   0.499105 0.510903 0.652862 0.883976
C3    C     C_R   0.895415 0.387251 0.476488 -0.226814
C4    C     C_R   0.090534 0.582382 0.415371 -0.224050
C5    C     C_R   0.937749 0.324906 0.485620 -0.252401
C6    C     C_R   0.047655 0.644295 0.405520 -0.249077
C7    C     C_R   0.516346 0.487253 0.261943 -0.056856
C8    C     C_R   0.500097 0.518292 0.738734 -0.059713
C9    C     C_R   0.540926 0.566072 0.221415 -0.235027
C10   C     C_R   0.491054 0.443371 0.781576 -0.238291
C11   C     C_R   0.554773 0.565100 0.140464 -0.201009
C12   C     C_R   0.496869 0.449883 0.862906 -0.198896
C13   C     C_R   0.542370 0.484676 0.098431 0.292326
C14   C     C_R   0.512888 0.532034 0.903042 0.295260
C15   C     C_R   0.523158 0.405794 0.139254 0.101504
C16   C     C_R   0.518794 0.607259 0.860657 0.097116
C17   C     C_R   0.509678 0.407691 0.221310 -0.252434
C18   C     C_R   0.512426 0.599750 0.778181 -0.253899
C19   C     C_R   0.547550 0.780531 0.535094 -0.027936
C20   C     C_R   0.451570 0.219243 0.465744 -0.027140
C21   C     C_R   0.544713 0.866614 0.533112 -0.274939
C22   C     C_R   0.454546 0.133195 0.467537 -0.274275
C23   C     C_R   0.326335 0.444792 0.500983 0.888109
C24   C     C_R   0.673681 0.554962 0.496786 0.883591
C25   C     C_R   0.480634 0.884232 0.484425 0.333230
C26   C     C_R   0.519691 0.115854 0.515147 0.333899
C27   C     C_R   0.421586 0.813815 0.439189 -0.308428
C28   C     C_R   0.579625 0.186496 0.559534 -0.312656
C29   C     C_R   0.426873 0.728859 0.442875 0.004042
C30   C     C_R   0.574180 0.271407 0.556061 -0.000679
C31   C     C_R   0.226177 0.409046 0.494097 -0.103193
C32   C     C_R   0.773190 0.587445 0.482920 -0.103563
C33   C     C_R   0.078933 0.289071 0.503325 0.109699
C34   C     C_R   0.911878 0.691626 0.424408 0.108876
C35   C     C_R   0.175802 0.320316 0.506748 -0.214249
C36   C     C_R   0.819118 0.669187 0.449734 -0.212134
C37   C     C_R   0.181541 0.466359 0.473302 -0.268870
C38   C     C_R   0.819160 0.528348 0.492787 -0.260688
C39   C     C_R   0.086455 0.438330 0.466266 0.072578
C40   C     C_R   0.906874 0.543210 0.461133 0.074053
C41   C     C_R   0.033965 0.349734 0.484689 0.121244
C42   C     C_R   0.955956 0.627295 0.430149 0.118878
C43   C     C_R   0.042515 0.499275 0.447679 0.084664
C44   C     C_R   0.947407 0.476464 0.462398 0.083235
H1    H     H_    0.406479 0.081308 0.432039 0.150212
H2    H     H_    0.592015 0.918300 0.569347 0.151014
H3    H     H_    0.371523 0.824721 0.401185 0.140743
H4    H     H_    0.630501 0.175793 0.596712 0.142334
H5    H     H_    0.784389 0.469467 0.525113 0.154801
H6    H     H_    0.222161 0.534896 0.466586 0.162789
H7    H     H_    0.488813 0.390401 0.894409 0.156090
H8    H     H_    0.572636 0.626921 0.110305 0.157052
H9    H     H_    0.492860 0.347075 0.253259 0.157416
H10   H     H_    0.519152 0.657737 0.744816 0.159053
N1    N     N_2   0.542048 0.480285 0.015059 -0.215166
N2    N     N_2   0.519388 0.539585 0.986178 -0.209602
N3    N     N_R   0.489120 0.713640 0.490430 -0.084382
N4    N     N_R   0.510880 0.286360 0.509570 -0.083581
N5    N     N_2   0.472736 0.970044 0.478980 -0.191725
N6    N     N_2   0.527635 0.030054 0.520515 -0.192151
O1    O     O_R   0.503890 0.423710 0.387290 -0.618220
O2    O     O_R   0.496110 0.576290 0.612710 -0.618303
O3    O     O_R   0.496910 0.560910 0.381140 -0.624293
O4    O     O_R   0.503090 0.439090 0.618860 -0.622375
O5    O     O_R   0.373240 0.392210 0.504830 -0.620244
O6    O     O_R   0.626760 0.607790 0.495170 -0.621315
O7    O     O_R   0.366260 0.529410 0.498680 -0.617254
O8    O     O_R   0.633740 0.470590 0.501320 -0.616766
Zn1   Zn    Zn3+2 0.504660 0.408390 0.504100 0.937214
Zn2   Zn    Zn3+2 0.495340 0.591610 0.495900 0.936156
H11   H     H_    0.893720 0.257955 0.496422 0.144789
H12   H     H_    0.088310 0.706148 0.379874 0.141619
H13   H     H_    0.401834 0.232571 0.429139 0.123913
H14   H     H_    0.596473 0.766996 0.572515 0.125410
H15   H     H_    0.381040 0.674928 0.407777 0.125329
H16   H     H_    0.620733 0.325517 0.590469 0.128416
H17   H     H_    0.781102 0.713518 0.442546 0.150743
H18   H     H_    0.212982 0.277178 0.521184 0.150144
C45   C     C_3   0.022547 0.193509 0.521695 -0.435159
C46   C     C_3   0.077238 0.133152 0.540792 -0.349392
C47   C     C_3   0.012750 0.040719 0.560398 -0.889616
H19   H     H_    0.972607 0.043437 0.615500 0.260484
H20   H     H_    0.964371 0.012123 0.511231 0.268456
H21   H     H_    0.053558 0.997038 0.569508 0.252837
H22   H     H_    0.121147 0.127715 0.488862 0.219779
H23   H     H_    0.121405 0.160771 0.592952 0.224609
H24   H     H_    0.976573 0.194404 0.573389 0.204089
H25   H     H_    0.979092 0.163449 0.469610 0.201527
C48   C     C_3   0.963835 0.781359 0.389526 -0.432475
C49   C     C_3   0.910164 0.845761 0.385340 -0.351497
C50   C     C_3   0.969851 0.932821 0.349918 -0.892001
H26   H     H_    0.032454 0.964109 0.385764 0.266074
H27   H     H_    0.990731 0.921242 0.288087 0.262806
H28   H     H_    0.930248 0.978823 0.349335 0.250221
H29   H     H_    0.848971 0.816243 0.347380 0.224354
H30   H     H_    0.887319 0.859890 0.445884 0.220542
H31   H     H_    0.025747 0.814057 0.425978 0.202948
H32   H     H_    0.986858 0.769857 0.328312 0.202253
H33   H     H_    0.821121 0.363181 0.478308 0.151716
H34   H     H_    0.160877 0.600144 0.394281 0.139346
H35   H     H_    0.479883 0.379478 0.752320 0.169845
H36   H     H_    0.549382 0.628696 0.252153 0.168654
C51   C     C_3   0.512165 0.318892 0.095623 -0.431514
C52   C     C_3   0.605511 0.315177 0.065894 -0.327060
C53   C     C_3   0.594630 0.227844 0.021419 -0.886753
H37   H     H_    0.563391 0.171565 0.060945 0.261860
H38   H     H_    0.550422 0.219970 0.968990 0.260085
H39   H     H_    0.663173 0.226946 0.000776 0.250466
H40   H     H_    0.638820 0.370116 0.025438 0.231126
H41   H     H_    0.651314 0.322315 0.117165 0.224807
H42   H     H_    0.479992 0.262745 0.135248 0.196714
H43   H     H_    0.465014 0.310071 0.045065 0.206400
C54   C     C_3   0.533676 0.695823 0.902433 -0.428353
C55   C     C_3   0.634226 0.739318 0.927031 -0.331345
C56   C     C_3   0.649211 0.828004 0.970438 -0.890544
H44   H     H_    0.631750 0.873828 0.931588 0.262214
H45   H     H_    0.605816 0.818699 0.025194 0.260945
H46   H     H_    0.722511 0.858040 0.987227 0.250229
H47   H     H_    0.654176 0.695744 0.966694 0.230551
H48   H     H_    0.679667 0.750058 0.873405 0.221371
H49   H     H_    0.515422 0.740646 0.862829 0.197571
H50   H     H_    0.487185 0.686974 0.955279 0.209488

loop_
_geom_bond_atom_site_label_1
_geom_bond_atom_site_label_2
_ccdc_geom_bond_type
C14   N2    S    
N1    N2    D    
C5    H11   S    
C27   C29   A    
C34   C42   A    
C16   C54   S    
C47   H21   S    
C45   H24   S    
C47   H19   S    
C49   H29   S    
C39   C41   A    
C38   H5    S    
C19   N3    A    
C6    H12   S    
C53   H38   S    
C32   C36   A    
C19   C21   A    
C21   H2    S    
C36   H17   S    
C52   H40   S    
C27   H3    S    
C56   H44   S    
O2    Zn2   S    
C51   H42   S    
C23   O7    A    
C52   C53   S    
C5    C41   A    
C11   H8    S    
C54   H50   S    
O8    Zn1   S    
C56   H45   S    
C46   H23   S    
C32   C38   A    
N3    Zn2   S    
C55   H47   S    
C24   O6    A    
C40   C42   A    
N5    N6    D    
C1    O3    A    
C45   H25   S    
C47   H20   S    
C2    O4    A    
C55   C56   S    
C10   H35   S    
C53   H39   S    
C3    C44   A    
C29   N3    A    
C4    C6    A    
C50   H26   S    
C24   O8    A    
C33   C45   S    
C39   C43   A    
C7    C17   A    
C8    C18   A    
C31   C37   A    
C48   H31   S    
C51   H43   S    
C23   C31   S    
C43   C44   A    
C24   C32   S    
C46   H22   S    
C3    H33   S    
C50   H27   S    
C30   H16   S    
O3    Zn2   S    
C56   H46   S    
O4    Zn1   S    
C9    C11   A    
C9    H36   S    
C10   C12   A    
C16   C18   A    
C20   C22   A    
C4    H34   S    
C22   C26   A    
C14   C16   A    
C20   N4    A    
C17   H9    S    
C12   H7    S    
C52   H41   S    
C54   C55   S    
O1    Zn1   S    
C15   C17   A    
C21   C25   A    
C28   H4    S    
C1    C7    S    
C19   H14   S    
C2    C8    S    
C12   C14   A    
C46   C47   S    
C3    C5    A    
C1    O1    A    
N4    Zn1   S    
C49   H30   S    
C29   H15   S    
C4    C43   A    
C25   C27   A    
C53   H37   S    
C35   H18   S    
C26   C28   A    
C48   H32   S    
O7    Zn2   S    
C33   C41   A    
C23   O5    A    
C13   C15   A    
C34   C48   S    
C37   C39   A    
C50   H28   S    
C38   C40   A    
C37   H6    S    
C11   C13   A    
C49   C50   S    
O6    Zn2   S    
O5    Zn1   S    
C30   N4    A    
C31   C35   A    
C28   C30   A    
C33   C35   A    
C20   H13   S    
C34   C36   A    
C18   H10   S    
C45   C46   S    
C7    C9    A    
C40   C44   A    
C22   H1    S    
C54   H49   S    
C8    C10   A    
C6    C42   A    
C51   C52   S    
C25   N5    S    
C15   C51   S    
C48   C49   S    
C26   N6    S    
C55   H48   S    
C2    O2    A    
C13   N1    S    
