data_mof_unit_43568.cif
_audit_creation_date              2013-03-05T16:10:40-0500
_audit_creation_method            fapswitch 2.2
_symmetry_space_group_name_H-M    P1
_symmetry_Int_Tables_number       1
_space_group_crystal_system       triclinic
_cell_length_a                    8.180377
_cell_length_b                    15.109
_cell_length_c                    18.722329
_cell_angle_alpha                 101.942443
_cell_angle_beta                  91.337587
_cell_angle_gamma                 99.174402
_cell_volume                      2231.17821085

loop_
_atom_site_label
_atom_site_type_symbol
_atom_site_description
_atom_site_fract_x
_atom_site_fract_y
_atom_site_fract_z
_atom_type_partial_charge
P1    P     P_3+3 0.039430 0.410940 0.333230 0.512043
O1    O     O_2   0.871960 0.437280 0.322960 -0.350722
O2    O     O_3   0.121410 0.444460 0.412450 -0.390970
O3    O     O_3   0.661450 0.607570 0.372550 -0.331395
O4    O     O_2   0.765983 0.539616 0.243765 -0.368573
O5    O     O_3   0.999268 0.291079 0.308325 -0.606479
O6    O     O_3   0.719133 0.709288 0.262848 -0.518731
H1    H     H_    0.742784 0.801978 0.361441 0.144652
C1    C     C_3   0.632159 0.854339 0.276434 -0.779051
H2    H     H_    0.753088 0.886080 0.260028 0.293038
H3    H     H_    0.547047 0.828308 0.226877 0.272857
P2    P     P_3+3 0.676770 0.715000 0.563590 0.456558
P3    P     P_3+3 0.127974 0.773032 0.410481 0.437009
O7    O     O_2   0.852310 0.726980 0.542430 -0.379482
O8    O     O_3   0.084010 0.657370 0.410280 -0.373737
O9    O     O_2   0.005994 0.819859 0.461114 -0.400611
O10   O     O_3   0.695299 0.748006 0.659135 -0.566233
O11   O     O_3   0.069722 0.786872 0.323299 -0.506971
C2    C     C_3   0.158785 0.735337 0.271753 0.265535
H4    H     H_    0.134052 0.661739 0.274550 0.055613
H5    H     H_    0.293020 0.762111 0.281403 0.027044
C3    C     C_3   0.106183 0.742152 0.194492 -0.065581
H6    H     H_    0.976226 0.706513 0.180487 0.154761
C4    C     C_3   0.241544 0.743287 0.627717 0.437546
H7    H     H_    0.356232 0.718578 0.609059 0.089424
H8    H     H_    0.143481 0.721596 0.582806 0.134567
C5    C     C_3   0.274262 0.847693 0.648570 -0.978020
H9    H     H_    0.379163 0.871703 0.690419 0.276458
H10   H     H_    0.305688 0.876767 0.599975 0.221208
H11   H     H_    0.161774 0.873141 0.670930 0.265138
Ba1   Ba    Ba6+2 0.853520 0.540910 0.466490 1.597735
C6    C     C_3   0.979452 0.251908 0.369878 0.255478
H12   H     H_    0.859646 0.261385 0.393084 0.047935
H13   H     H_    0.075279 0.283591 0.413912 0.143628
C7    C     C_3   0.988530 0.150076 0.345991 0.140981
H14   H     H_    0.946742 0.125226 0.287438 0.191016
H15   H     H_    0.120687 0.142446 0.351410 0.093525
C8    C     C_3   0.732686 0.675531 0.688867 0.437529
H16   H     H_    0.849331 0.655339 0.667815 0.090187
H17   H     H_    0.630637 0.615744 0.675666 0.124341
C9    C     C_3   0.754602 0.707785 0.771578 -0.986847
H18   H     H_    0.862651 0.764116 0.786385 0.282521
H19   H     H_    0.775638 0.650618 0.797463 0.209433
H20   H     H_    0.641349 0.733168 0.793012 0.264451
P4    P     P_3+3 0.150290 0.589140 0.666780 0.458576
O12   O     O_2   0.317750 0.562750 0.677090 -0.373855
O13   O     O_3   0.068300 0.555620 0.587560 -0.414092
O14   O     O_3   0.528270 0.392500 0.627460 -0.386539
O15   O     O_3   0.192574 0.709322 0.689297 -0.568981
P5    P     P_3+3 0.063250 0.225604 0.589104 0.460077
O16   O     O_3   0.609290 0.386840 0.459690 -0.332527
O17   O     O_3   0.105700 0.342700 0.589730 -0.344010
O18   O     O_2   0.188361 0.180390 0.539312 -0.399239
O19   O     O_3   0.125126 0.213371 0.676052 -0.517084
Ba2   Ba    Ba6+2 0.336320 0.459170 0.533520 1.597301
P6    P     P_3+3 0.642862 0.600900 0.278974 0.518806
C10   C     C_3   0.654586 0.775894 0.312959 0.341927
H21   H     H_    0.532679 0.749642 0.332123 0.010910
H22   H     H_    0.579164 0.907014 0.314920 0.244181
O20   O     O_3   0.580430 0.613240 0.540320 -0.396341
C11   C     C_3   0.565352 0.260909 0.288239 0.610550
H23   H     H_    0.694009 0.274880 0.309855 0.003414
C12   C     C_3   0.553486 0.188650 0.216136 -0.137799
H24   H     H_    0.422677 0.170293 0.193530 0.171215
H25   H     H_    0.629837 0.218095 0.175607 0.095038
P7    P     P_3+3 0.516595 0.269752 0.429733 0.480982
O21   O     O_2   0.337390 0.273050 0.457610 -0.359633
O22   O     O_3   0.455912 0.226679 0.336273 -0.595203
H26   H     H_    0.186275 0.706917 0.154849 0.053870
C13   C     C_3   0.994657 0.224864 0.722577 0.174829
H27   H     H_    0.952223 0.291489 0.723212 0.079685
H28   H     H_    0.889749 0.167288 0.704414 0.071616
C14   C     C_3   0.055748 0.223914 0.800276 -0.054485
H29   H     H_    0.117122 0.293992 0.828331 0.118237
H30   H     H_    0.149054 0.177399 0.798038 0.158656
P8    P     P_3+3 0.542894 0.400388 0.721262 0.462956
C15   C     C_3   0.531352 0.225922 0.682690 0.545833
H31   H     H_    0.666947 0.243227 0.677663 -0.035092
O23   O     O_2   0.410872 0.456826 0.754305 -0.380383
O24   O     O_3   0.476706 0.290799 0.738001 -0.501994
H32   H     H_    0.465272 0.222542 0.629441 0.131657
H33   H     H_    0.557444 0.132254 0.754248 0.296692
C16   C     C_3   0.493710 0.131540 0.701120 -0.944054
H34   H     H_    0.537483 0.079869 0.658037 0.210582
H35   H     H_    0.358072 0.111260 0.704525 0.273639
C17   C     C_R   0.989131 0.459562 0.046921 0.008581
C18   C     C_R   0.887334 0.413593 0.092232 0.096638
C19   C     C_R   0.723424 0.374054 0.067542 -0.132666
C20   C     C_R   0.660819 0.380293 0.998963 -0.123560
C21   C     C_R   0.762555 0.423642 0.952608 0.137353
C22   C     C_R   0.927714 0.462982 0.976268 0.017760
C23   C     C_R   0.702717 0.425377 0.882220 -0.139654
C24   C     C_R   0.807769 0.461874 0.832882 -0.030557
C25   C     C_R   0.972582 0.504502 0.857167 -0.004576
C26   C     C_R   0.031285 0.505349 0.929345 -0.012870
C27   C     C_R   0.754323 0.454994 0.759402 0.167010
C28   C     C_R   0.864670 0.488852 0.711304 -0.522436
C29   C     C_R   0.023694 0.537113 0.735096 0.279112
C30   C     C_R   0.078830 0.546059 0.809592 -0.031915
C31   C     C_R   0.152327 0.501257 0.071869 -0.015526
C32   C     C_R   0.210959 0.501944 0.143999 0.002932
C33   C     C_R   0.106499 0.457883 0.190884 -0.051293
C34   C     C_R   0.949059 0.409201 0.161945 -0.096840
H36   H     H_    0.642826 0.338947 0.101535 0.168371
H37   H     H_    0.533435 0.349583 0.981595 0.143969
H38   H     H_    0.823301 0.481187 0.654729 0.175286
H39   H     H_    0.575229 0.394812 0.865783 0.172569
H40   H     H_    0.869665 0.370586 0.194040 0.155486
C35   C     C_R   0.237534 0.593370 0.837962 -0.130325
C36   C     C_R   0.297902 0.590856 0.908267 0.112401
C37   C     C_R   0.194912 0.546522 0.954128 0.012508
C38   C     C_R   0.255507 0.544340 0.025186 0.016344
C39   C     C_R   0.461494 0.630980 0.933090 -0.168244
C40   C     C_R   0.522157 0.627683 0.002734 -0.167932
C41   C     C_R   0.419659 0.585344 0.049395 0.118446
C42   C     C_R   0.374318 0.546602 0.168881 -0.031033
C43   C     C_R   0.478410 0.585126 0.120212 -0.232775
C44   C     C_R   0.427005 0.553713 0.242401 0.216232
C45   C     C_R   0.314988 0.521183 0.290525 -0.367243
C46   C     C_R   0.161225 0.467168 0.265581 0.292138
H41   H     H_    0.318107 0.630628 0.805409 0.165146
H42   H     H_    0.543180 0.664464 0.898441 0.138596
H43   H     H_    0.649090 0.659105 0.020380 0.149608
H44   H     H_    0.604727 0.617487 0.137165 0.178449
H45   H     H_    0.352769 0.532747 0.347892 0.184206
C47   C     C_R   0.848528 0.173692 0.552017 0.187931
C48   C     C_R   0.781478 0.079980 0.546276 0.005192
C49   C     C_R   0.647734 0.890176 0.529472 -0.044349
C50   C     C_R   0.795695 0.929598 0.571988 -0.065954
C51   C     C_R   0.863165 0.021937 0.578723 -0.243315
C52   C     C_R   0.581479 0.795087 0.518489 0.256760
H46   H     H_    0.863160 0.889864 0.600046 0.174149
H47   H     H_    0.979796 0.047125 0.610157 0.173076
C53   C     C_R   0.431788 0.760859 0.476728 -0.530943
C54   C     C_R   0.609694 0.192904 0.478915 0.190541
C55   C     C_R   0.545118 0.099060 0.470535 0.036789
C56   C     C_R   0.629004 0.042720 0.505379 0.044588
C57   C     C_R   0.401612 0.059296 0.426202 -0.046892
C58   C     C_R   0.338408 0.967149 0.417322 -0.200040
C59   C     C_R   0.413992 0.910950 0.453497 -0.019474
C60   C     C_R   0.563719 0.947809 0.496195 -0.018262
C61   C     C_R   0.344023 0.818581 0.447156 0.163280
C62   C     C_R   0.757805 0.229312 0.521295 -0.466672
H48   H     H_    0.231797 0.940144 0.379979 0.174900
H49   H     H_    0.336897 0.098249 0.396858 0.166841
H50   H     H_    0.378262 0.689298 0.470771 0.178690
H51   H     H_    0.809056 0.301031 0.526139 0.161534
O25   O     O_3   0.884621 0.099219 0.387472 -0.624886
C63   C     C_3   0.939824 0.015795 0.388296 -0.105548
H52   H     H_    0.037858 0.027356 0.432615 0.156950
H53   H     H_    0.983792 0.983754 0.334712 0.154268
H54   H     H_    0.835757 0.966547 0.401339 0.160749
N1    N     N_R   0.519901 0.345794 0.275381 0.203885
O26   O     O_R   0.453159 0.350751 0.212829 -0.498524
O27   O     O_R   0.536371 0.416157 0.329505 -0.353000
N2    N     N_R   0.611235 0.105534 0.226784 0.263674
O28   O     O_R   0.721467 0.072266 0.185021 -0.347085
O29   O     O_R   0.535162 0.056909 0.269566 -0.348764
N3    N     N_R   0.918101 0.192533 0.842028 0.242008
O30   O     O_R   0.917474 0.119045 0.868062 -0.348811
O31   O     O_R   0.794809 0.237366 0.853166 -0.417232
N4    N     N_R   0.120939 0.837764 0.188244 0.281407
O32   O     O_R   0.264860 0.890885 0.198512 -0.346995
O33   O     O_R   0.992135 0.868724 0.167615 -0.348886

loop_
_geom_bond_atom_site_label_1
_geom_bond_atom_site_label_2
_geom_bond_distance
_ccdc_geom_bond_type
O14   Ba2   2.771686 S    
P7    O22   1.765454 S    
C18   C19   1.403488 A    
C12   H25   1.112211 S    
C47   C48   1.415547 A    
P2    C52   1.864869 S    
C5    H10   1.107769 S    
C9    H19   1.107819 S    
C14   H29   1.112232 S    
O14   P8    1.735436 S    
O4    P6    1.543395 D    
O5    C6    1.401795 S    
C2    H4    1.110441 S    
P8    O23   1.543620 D    
O7    Ba1   2.877575 S    
C52   C53   1.401517 A    
C49   C50   1.407943 A    
C40   C41   1.403531 A    
C21   C22   1.407804 A    
C54   C55   1.406867 A    
C15   H31   1.109124 S    
C62   H51   1.082074 S    
P5    O19   1.748216 S    
P3    O11   1.752633 S    
N2    O28   1.300755 A    
C2    H5    1.104961 S    
C43   H44   1.080235 S    
C4    H8    1.108405 S    
C12   N2    1.458883 S    
C39   C40   1.397651 A    
C17   C22   1.417878 A    
C63   H53   1.114240 S    
C8    H16   1.104330 S    
C3    N4    1.459486 S    
C15   C16   1.521832 S    
C57   H49   1.071477 S    
C30   C35   1.411857 A    
C47   C62   1.402433 A    
P1    Ba1   3.390515 S    
C42   C43   1.411317 A    
P1    O1    1.505120 D    
C9    H18   1.110634 S    
C11   C12   1.540718 S    
C44   C45   1.404010 A    
C23   C24   1.411594 A    
C36   C37   1.409816 A    
O2    Ba2   2.785491 S    
C39   H42   1.082376 S    
C16   H34   1.109209 S    
C41   C43   1.400517 A    
O12   Ba2   2.837490 S    
P5    O17   1.745312 S    
N3    O31   1.299531 A    
C13   H27   1.113837 S    
P5    C47   1.860371 S    
P4    O15   1.752338 S    
N1    O27   1.295104 A    
C17   C31   1.406492 A    
C49   C60   1.419201 A    
C3    H26   1.110836 S    
O16   Ba2   2.896259 S    
C11   H23   1.090845 S    
O17   Ba2   2.750237 S    
C7    O25   1.409123 S    
C50   H46   1.078694 S    
C54   C62   1.400749 A    
P7    O21   1.572321 D    
Ba1   O13   2.784856 S    
Ba2   O20   2.793902 S    
O3    P6    1.735582 S    
C5    H11   1.110871 S    
C14   H30   1.112941 S    
C33   C34   1.411990 A    
O6    P6    1.746402 S    
C19   H36   1.081150 S    
C28   C29   1.399439 A    
N4    O33   1.300441 A    
P4    O13   1.562222 S    
C59   C60   1.414887 A    
C53   H50   1.081688 S    
P5    O18   1.545024 D    
P1    O5    1.748901 S    
C32   C33   1.428077 A    
C2    C3    1.528012 S    
C4    H7    1.102101 S    
C8    C9    1.521340 S    
C55   C57   1.396863 A    
C63   H54   1.104959 S    
C17   C18   1.409920 A    
O11   C2    1.403984 S    
P4    O12   1.505494 D    
C12   H24   1.112086 S    
O1    Ba1   2.836965 S    
P1    O2    1.562196 S    
O16   P7    1.777910 S    
C6    H13   1.100077 S    
Ba1   O20   2.897090 S    
P2    O10   1.750889 S    
C6    C7    1.525113 S    
H1    C10   1.109271 S    
C53   C61   1.401260 A    
C58   H48   1.075114 S    
C23   H39   1.080843 S    
C21   C23   1.401871 A    
N3    O30   1.301043 A    
O19   C13   1.402815 S    
C15   H32   1.110713 S    
C45   C46   1.397783 A    
C4    C5    1.522516 S    
C27   C28   1.403126 A    
C13   C14   1.530720 S    
C24   C25   1.418648 A    
P3    C61   1.851645 S    
O25   C63   1.407876 S    
O2    Ba1   2.908838 S    
C1    H3    1.109857 S    
C36   C39   1.403591 A    
C34   H40   1.079697 S    
C18   C34   1.406655 A    
C28   H38   1.081612 S    
C45   H45   1.081321 S    
C16   H35   1.109989 S    
P2    O7    1.491679 D    
C29   C30   1.428335 A    
C24   C27   1.411663 A    
P3    O8    1.726278 S    
P2    Ba1   3.416224 S    
C9    H20   1.110581 S    
C51   H47   1.080172 S    
C40   H43   1.083788 S    
C49   C52   1.422814 A    
C33   C46   1.430189 A    
O13   Ba2   2.909736 S    
C50   C51   1.394763 A    
C1    H2    1.107619 S    
C15   O24   1.405086 S    
C4    O15   1.397828 S    
C56   C60   1.421481 A    
C37   C38   1.417463 A    
C7    H15   1.109871 S    
P6    C44   1.853443 S    
P8    O24   1.752090 S    
Ba1   O16   2.794471 S    
C55   C56   1.419965 A    
C11   N1    1.454897 S    
Ba2   O21   2.877875 S    
C58   C59   1.395655 A    
O8    Ba1   2.749514 S    
C59   C61   1.401059 A    
N4    O32   1.300572 A    
C14   N3    1.458757 S    
P4    C29   1.882733 S    
C6    H12   1.099390 S    
N2    O29   1.299856 A    
C20   C21   1.403556 A    
C48   C51   1.404647 A    
C26   C37   1.407114 A    
C35   C36   1.405065 A    
P8    C27   1.850813 S    
C8    H17   1.109716 S    
C11   O22   1.400067 S    
C35   H41   1.079445 S    
C10   H21   1.109059 S    
C25   C30   1.427097 A    
C31   C32   1.419933 A    
C42   C44   1.410069 A    
C1    C10   1.518209 S    
O10   C8    1.397701 S    
C25   C26   1.420377 A    
O6    C10   1.404837 S    
O3    Ba1   2.772194 S    
C57   C58   1.379842 A    
C22   C26   1.412069 A    
P7    C54   1.862192 S    
P2    O20   1.579606 S    
C19   C20   1.398035 A    
P4    Ba2   3.391064 S    
H33   C16   1.109452 S    
P3    O9    1.544879 D    
C20   H37   1.083718 S    
C5    H9    1.110675 S    
C32   C42   1.418240 A    
C3    H6    1.111253 S    
C13   H28   1.111199 S    
C7    H14   1.109436 S    
C48   C56   1.418470 A    
C31   C38   1.412359 A    
Ba1   Ba2   4.545770 S    
N1    O26   1.301815 A    
C63   H52   1.107433 S    
C1    H22   1.108063 S    
P1    C46   1.884897 S    
C38   C41   1.408025 A    
