data_mof_unit_39059.cif
_audit_creation_date              2012-10-26T20:21:30-0400
_audit_creation_method            fapswitch 2.2
_symmetry_space_group_name_H-M    P1
_symmetry_Int_Tables_number       1
_space_group_crystal_system       triclinic
_cell_length_a                    10.733008
_cell_length_b                    9.750462
_cell_length_c                    11.646792
_cell_angle_alpha                 87.003238
_cell_angle_beta                  92.936056
_cell_angle_gamma                 92.257437
_cell_volume                      1214.76917117

loop_
_atom_site_label
_atom_site_type_symbol
_atom_type_description
_atom_site_fract_x
_atom_site_fract_y
_atom_site_fract_z
_atom_type_partial_charge
C1    C     C_R   0.263089 0.498153 0.497710 0.616371
C2    C     C_R   0.929480 0.532418 0.397525 0.215080
C3    C     C_R   0.942399 0.479212 0.605273 0.172962
C4    C     C_R   0.059120 0.528363 0.395454 0.178487
C5    C     C_R   0.871683 0.506754 0.502292 -0.049392
C6    C     C_R   0.128958 0.494929 0.497743 -0.051597
C7    C     C_R   0.415774 0.074530 0.429050 0.133685
C8    C     C_R   0.583900 0.928012 0.567279 0.120414
C9    C     C_R   0.564024 0.068927 0.583598 0.111300
C10   C     C_R   0.426491 0.928285 0.420760 0.098734
C11   C     C_3   0.283082 0.125433 0.400952 -0.205789
C12   C     C_R   0.737149 0.502116 0.502669 0.621095
C13   C     C_3   0.255586 0.223499 0.294025 -0.250460
C14   C     C_3   0.314512 0.190416 0.183254 -0.416249
C15   C     C_3   0.718664 0.887883 0.589711 -0.221886
C16   C     C_3   0.745634 0.808570 0.705332 -0.284262
C17   C     C_3   0.885275 0.813413 0.738583 -0.402058
C18   C     C_3   0.560623 0.100222 0.709498 -0.235949
C19   C     C_3   0.681528 0.168942 0.757239 -0.272680
C20   C     C_3   0.678977 0.181993 0.887167 -0.415782
C21   C     C_3   0.372889 0.865510 0.311119 -0.206433
C22   C     C_3   0.467763 0.881051 0.215546 -0.293713
C23   C     C_R   0.501123 0.502616 0.284579 0.584054
C24   C     C_3   0.411439 0.831615 0.101084 -0.422125
C25   C     C_R   0.500490 0.497344 0.715504 0.586448
C26   C     C_1   0.503088 0.505834 0.162637 0.022919
C27   C     C_1   0.501520 0.493570 0.837611 0.030217
C28   C     C_1   0.503544 0.502370 0.060044 -0.021008
C29   C     C_1   0.502593 0.496557 0.940297 -0.014911
C30   C     C_R   0.071467 0.470947 0.602596 0.213887
Cl1   Cl    Cl    0.161751 0.435091 0.731429 -0.528628
Cl2   Cl    Cl    0.839477 0.569280 0.268841 -0.524815
Cl3   Cl    Cl    0.871619 0.462389 0.738902 -0.634468
Cl4   Cl    Cl    0.133486 0.565934 0.264826 -0.608372
Cu1   Cu    Cu3+1 0.500000 0.640660 0.500000 0.966119
Cu2   Cu    Cu3+1 0.500000 0.359340 0.500000 0.966940
H1    H     H_    0.417405 0.191640 0.195562 0.168016
H2    H     H_    0.902808 0.751925 0.820355 0.223106
H3    H     H_    0.696077 0.852253 0.775313 0.152088
H4    H     H_    0.714295 0.699895 0.700014 0.234417
H5    H     H_    0.752735 0.836464 0.516005 0.185353
H6    H     H_    0.779325 0.983017 0.587608 0.114241
H7    H     H_    0.593867 0.233534 0.909421 0.158078
H8    H     H_    0.680039 0.078540 0.931859 0.146553
H9    H     H_    0.762364 0.242978 0.918117 0.220474
H10   H     H_    0.763497 0.109058 0.740404 0.167321
H11   H     H_    0.694072 0.271159 0.713986 0.250714
H12   H     H_    0.276358 0.091633 0.152033 0.152693
H13   H     H_    0.477163 0.158084 0.724778 0.188391
H14   H     H_    0.542835 0.003522 0.762001 0.112912
H15   H     H_    0.362085 0.730331 0.113677 0.203233
H16   H     H_    0.343447 0.905412 0.062245 0.157695
H17   H     H_    0.486501 0.822780 0.039988 0.150258
H18   H     H_    0.499740 0.989618 0.202534 0.145868
H19   H     H_    0.553906 0.825559 0.240073 0.215746
H20   H     H_    0.338640 0.759347 0.327275 0.232945
H21   H     H_    0.286696 0.913245 0.276786 0.132033
H22   H     H_    0.290801 0.270933 0.115521 0.180049
H23   H     H_    0.152684 0.222725 0.276873 0.175602
H24   H     H_    0.281759 0.330661 0.310417 0.228363
H25   H     H_    0.214764 0.037516 0.394936 0.095483
H26   H     H_    0.248005 0.166047 0.479212 0.169169
H27   H     H_    0.938491 0.770631 0.670228 0.185099
H28   H     H_    0.919208 0.920831 0.751561 0.150925
N1    N     N_R   0.500000 0.852070 0.500000 -0.238161
N2    N     N_R   0.500000 0.147930 0.500000 -0.236177
O1    O     O_R   0.319640 0.618740 0.499990 -0.484963
O2    O     O_R   0.680360 0.381260 0.500010 -0.479384
O3    O     O_R   0.680360 0.618740 0.500010 -0.505361
O4    O     O_R   0.319640 0.381260 0.499990 -0.513857
O5    O     O_R   0.500010 0.618790 0.337200 -0.511239
O6    O     O_R   0.499990 0.381210 0.662800 -0.509194
O7    O     O_R   0.499990 0.618790 0.662800 -0.497885
O8    O     O_R   0.500010 0.381210 0.337200 -0.498743

loop_
_geom_bond_atom_site_label_1
_geom_bond_atom_site_label_2
_ccdc_geom_bond_type
C24   H16   S    
C21   H20   S    
C2    C4    A    
C12   O3    A    
Cu2   O2    S    
C21   H21   S    
C22   H19   S    
C13   H23   S    
C8    C9    A    
C25   C27   S    
C4    Cl4   S    
C11   C13   S    
Cu2   N2    S    
C26   C28   T    
C19   C20   S    
C18   H14   S    
Cu1   O1    S    
C3    C5    A    
C11   H26   S    
C7    C10   A    
C24   H15   S    
C18   H13   S    
C19   H10   S    
Cu1   O5    S    
C8    N1    A    
C22   H18   S    
C25   O6    A    
C13   C14   S    
C17   H27   S    
C7    N2    A    
C7    C11   S    
C12   O2    A    
Cu1   O3    S    
Cu2   O8    S    
C16   H4    S    
C3    C30   A    
C4    C6    A    
C28   C29   S    
C6    C30   A    
C25   O7    A    
Cu2   O4    S    
C8    C15   S    
C19   H11   S    
C17   H2    S    
C10   C21   S    
C30   Cl1   S    
C14   H22   S    
C22   C24   S    
C23   C26   S    
C2    C5    A    
C27   C29   T    
C3    Cl3   S    
C23   O8    A    
Cu2   O6    S    
C15   C16   S    
C23   O5    A    
C9    C18   S    
C20   H7    S    
C15   H5    S    
C5    C12   S    
C2    Cl2   S    
C18   C19   S    
C20   H9    S    
C1    C6    S    
C13   H24   S    
Cu1   N1    S    
C9    N2    A    
Cu1   O7    S    
C14   H1    S    
C14   H12   S    
C17   H28   S    
C16   H3    S    
C20   H8    S    
C24   H17   S    
C21   C22   S    
C1    O1    A    
C1    O4    A    
C15   H6    S    
C10   N1    A    
C16   C17   S    
C11   H25   S    
Cu1   Cu2   S    
