data_mof_unit_54084.cif
_audit_creation_date              2012-12-11T14:23:05-0500
_audit_creation_method            fapswitch 2.2
_symmetry_space_group_name_H-M    P1
_symmetry_Int_Tables_number       1
_space_group_crystal_system       triclinic
_cell_length_a                    11.013516
_cell_length_b                    10.999756
_cell_length_c                    18.89722
_cell_angle_alpha                 90.098366
_cell_angle_beta                  90.264893
_cell_angle_gamma                 59.477578
_cell_volume                      1972.07047864

loop_
_atom_site_label
_atom_site_type_symbol
_atom_type_description
_atom_site_fract_x
_atom_site_fract_y
_atom_site_fract_z
_atom_type_partial_charge
C1    C     C_R   0.240588 0.643953 0.611011 0.529560
C2    C     C_3   0.665458 0.539415 0.810475 -0.261258
C3    C     C_3   0.689049 0.666316 0.815562 0.061363
C4    C     C_3   0.650704 0.622122 0.683452 0.035774
C5    C     C_3   0.802383 0.593572 0.694389 -0.204822
C6    C     C_3   0.629122 0.523155 0.733344 -0.255098
C7    C     C_R   0.686530 0.164760 0.825199 0.001712
C8    C     C_R   0.802007 0.149613 0.784462 0.039882
C9    C     C_R   0.793966 0.147177 0.709096 0.034049
C10   C     C_R   0.552127 0.200374 0.718569 -0.142279
C11   C     C_R   0.561334 0.197814 0.790669 -0.152759
C12   C     C_R   0.630635 0.590451 0.609198 0.556987
C13   C     C_R   0.925401 0.135027 0.815661 -0.084402
C14   C     C_R   0.040478 0.108070 0.774162 -0.135486
C15   C     C_R   0.035113 0.097290 0.701159 -0.134032
C16   C     C_R   0.914359 0.114003 0.668813 -0.075108
C17   C     C_R   0.665109 0.179001 0.676457 0.006249
C18   C     C_R   0.193747 0.657932 0.837371 0.003854
C19   C     C_R   0.201182 0.542596 0.799864 0.037735
C20   C     C_R   0.193884 0.546396 0.724479 0.042965
C21   C     C_R   0.217846 0.753694 0.727181 -0.136768
C22   C     C_R   0.213118 0.756043 0.800263 -0.139561
C23   C     C_R   0.628769 0.228167 0.603019 0.525994
C24   C     C_R   0.211194 0.425714 0.835742 -0.098713
C25   C     C_R   0.198600 0.322995 0.799381 -0.150041
C26   C     C_R   0.174394 0.335266 0.726822 -0.162708
C27   C     C_R   0.170396 0.446359 0.689598 -0.104368
C28   C     C_R   0.205872 0.652591 0.687510 0.015764
C29   C     C_R   0.719049 0.692143 0.180290 -0.002288
C30   C     C_R   0.791903 0.552454 0.210017 0.037750
C31   C     C_R   0.737484 0.530837 0.271542 0.016912
C32   C     C_R   0.600077 0.784686 0.291856 -0.142153
C33   C     C_R   0.626795 0.806864 0.222535 -0.166062
C34   C     C_R   0.221466 0.652644 0.401021 0.548184
C35   C     C_R   0.913795 0.431548 0.180788 -0.093011
C36   C     C_R   0.963941 0.296644 0.206330 -0.147146
C37   C     C_R   0.893058 0.276465 0.260064 -0.114907
C38   C     C_R   0.773601 0.391736 0.288013 -0.073849
C39   C     C_R   0.653585 0.646910 0.316374 0.006406
C40   C     C_R   0.675666 0.112506 0.183479 0.005474
C41   C     C_R   0.540145 0.194971 0.211167 0.016631
C42   C     C_R   0.523168 0.187297 0.283667 0.035959
C43   C     C_R   0.776535 0.072671 0.301427 -0.183479
C44   C     C_R   0.793345 0.047208 0.229020 -0.161884
C45   C     C_R   0.638350 0.618540 0.390201 0.548754
C46   C     C_R   0.420071 0.273186 0.168273 -0.078412
C47   C     C_R   0.289305 0.304153 0.192288 -0.122466
C48   C     C_R   0.273834 0.272291 0.261479 -0.148312
C49   C     C_R   0.389208 0.214528 0.307123 -0.084175
C50   C     C_R   0.641550 0.152389 0.328567 -0.000667
C51   C     C_R   0.152573 0.668058 0.183076 -0.003466
C52   C     C_R   0.218785 0.736571 0.212918 0.025852
C53   C     C_R   0.196238 0.770504 0.284788 0.033098
C54   C     C_R   0.109936 0.607621 0.299828 -0.147928
C55   C     C_R   0.093158 0.610396 0.227332 -0.151344
C56   C     C_R   0.617773 0.222710 0.397214 0.535396
C57   C     C_R   0.286764 0.790793 0.171127 -0.071229
C58   C     C_R   0.303857 0.899807 0.196608 -0.111008
C59   C     C_R   0.257898 0.951920 0.264272 -0.145093
C60   C     C_R   0.204008 0.889125 0.307993 -0.089720
C61   C     C_R   0.164026 0.685512 0.329474 0.000594
C62   C     C_R   0.701436 0.104551 0.896682 0.564276
C63   C     C_R   0.720598 0.686403 0.889345 0.574845
C64   C     C_R   0.121899 0.703202 0.906759 0.558157
C65   C     C_R   0.694451 0.062054 0.111367 0.528753
C66   C     C_R   0.735668 0.715278 0.105539 0.549581
C67   C     C_3   0.554954 0.797746 0.785067 -0.225231
C68   C     C_R   0.095569 0.707294 0.112043 0.510769
C69   C     C_3   0.545625 0.778147 0.704929 -0.225815
C70   C     C_3   0.818730 0.635934 0.769309 -0.042718
Cr1   Cr    Cr6+3 0.392940 0.397950 0.502230 0.998718
Cr2   Cr    Cr6+3 0.398400 0.708500 0.501260 0.999730
Cr3   Cr    Cr6+3 0.708640 0.393530 0.496460 0.993886
Cr4   Cr    Cr6+3 0.937880 0.938320 0.007620 1.009625
Cr5   Cr    Cr6+3 0.625560 0.937220 0.994510 1.000297
Cr6   Cr    Cr6+3 0.938080 0.625010 0.001190 0.988253
H1    H     H_    0.555547 0.897213 0.794523 0.169124
H2    H     H_    0.698582 0.412944 0.716447 0.134607
H3    H     H_    0.916961 0.547737 0.792262 0.171034
H4    H     H_    0.879576 0.479093 0.687104 0.133540
H5    H     H_    0.452619 0.223002 0.695942 0.162565
H6    H     H_    0.933957 0.148548 0.871621 0.135991
H7    H     H_    0.471806 0.210139 0.819594 0.150042
H8    H     H_    0.136592 0.089569 0.799031 0.090175
H9    H     H_    0.126486 0.071928 0.669383 0.095796
H10   H     H_    0.918388 0.096556 0.612389 0.136867
H11   H     H_    0.230783 0.833070 0.701367 0.135562
H12   H     H_    0.459373 0.810091 0.811602 0.103808
H13   H     H_    0.234172 0.409753 0.891795 0.124483
H14   H     H_    0.215503 0.841166 0.827674 0.133831
H15   H     H_    0.209170 0.233717 0.828234 0.103997
H16   H     H_    0.161462 0.257339 0.698689 0.114394
H17   H     H_    0.144549 0.453860 0.634074 0.142764
H18   H     H_    0.536054 0.874269 0.325681 0.127636
H19   H     H_    0.979654 0.436054 0.140567 0.143923
H20   H     H_    0.576929 0.913392 0.202129 0.131301
H21   H     H_    0.057680 0.208023 0.184151 0.118957
H22   H     H_    0.934430 0.172089 0.280853 0.122298
H23   H     H_    0.436389 0.809217 0.690818 0.122269
H24   H     H_    0.709326 0.374260 0.322973 0.169065
H25   H     H_    0.867746 0.032528 0.335923 0.113973
H26   H     H_    0.427037 0.304831 0.114969 0.143427
H27   H     H_    0.898252 0.978681 0.208443 0.152961
H28   H     H_    0.201707 0.351267 0.156242 0.102801
H29   H     H_    0.172274 0.294757 0.280634 0.115457
H30   H     H_    0.372451 0.184647 0.358960 0.138551
H31   H     H_    0.077226 0.548755 0.332643 0.130777
H32   H     H_    0.317394 0.755904 0.117101 0.128885
H33   H     H_    0.031611 0.569781 0.205866 0.125707
H34   H     H_    0.570949 0.850082 0.675537 0.153774
H35   H     H_    0.347082 0.947749 0.162844 0.127391
H36   H     H_    0.265103 0.040115 0.283574 0.106865
H37   H     H_    0.162470 0.939689 0.358333 0.133621
H38   H     H_    0.827155 0.651322 0.654105 0.160321
H39   H     H_    0.762350 0.441205 0.827588 0.131741
H40   H     H_    0.578287 0.555109 0.845980 0.115420
H41   H     H_    0.518512 0.546343 0.729912 0.123947
O1    O     O_R   0.507340 0.255690 0.581430 -0.524596
O2    O     O_R   0.524510 0.695820 0.424050 -0.495155
O3    O     O_R   0.736370 0.504260 0.414810 -0.525361
O4    O     O_R   0.691220 0.277270 0.422180 -0.523501
O5    O     O_3   0.499990 0.499990 0.499980 -0.260381
O6    O     O_R   0.089570 0.825450 0.930590 -0.516339
O7    O     O_R   0.818700 0.054260 0.929860 -0.495125
O8    O     O_R   0.606310 0.077010 0.915520 -0.522496
O9    O     O_R   0.646730 0.806540 0.917560 -0.492824
O10   O     O_R   0.837290 0.593240 0.915240 -0.520363
O11   O     O_R   0.065320 0.635310 0.931580 -0.498412
O12   O     O_R   0.280360 0.527380 0.578910 -0.516094
O13   O     O_R   0.068470 0.828620 0.091850 -0.529976
O14   O     O_R   0.799150 0.057200 0.079350 -0.496825
O15   O     O_R   0.585220 0.080180 0.076770 -0.544824
O16   O     O_R   0.627170 0.809480 0.067050 -0.508229
O17   O     O_R   0.816200 0.596410 0.076500 -0.533416
O18   O     O_R   0.045770 0.638240 0.081070 -0.543958
O19   O     O_3   0.833840 0.833520 0.001110 -0.264982
O20   O     O_R   0.260600 0.739610 0.584580 -0.536430
O21   O     O_R   0.532370 0.695050 0.573830 -0.507825
O22   O     O_R   0.744850 0.503430 0.576380 -0.525528
O23   O     O_R   0.699080 0.276500 0.571950 -0.527920
O24   O     O_R   0.498860 0.256520 0.419860 -0.528237
O25   O     O_R   0.272490 0.528150 0.429140 -0.491226
O26   O     O_R   0.252110 0.740440 0.423010 -0.535740
I1    I     I_    0.849249 0.813528 0.764193 -0.423907

loop_
_geom_bond_atom_site_label_1
_geom_bond_atom_site_label_2
_ccdc_geom_bond_type
Cr2   O26   S    
Cr4   O7    S    
C21   H11   S    
C8    C13   A    
C5    H38   S    
C41   C42   A    
C54   C55   A    
Cr1   O5    S    
C32   H18   S    
C35   C36   A    
C67   H1    S    
C14   H8    S    
C24   H13   S    
C23   O1    A    
C62   O7    A    
Cr6   O19   S    
C7    C8    A    
C52   C53   A    
C7    C11   A    
C46   H26   S    
C26   C27   A    
C17   C23   S    
C54   H31   S    
C36   C37   A    
C9    C16   A    
C1    O12   A    
C30   C31   A    
C6    H2    S    
C10   C17   A    
C26   H16   S    
C15   C16   A    
C29   C33   A    
Cr6   O18   S    
C18   C19   A    
C2    H39   S    
C32   C39   A    
C37   H22   S    
C66   O17   A    
C53   C61   A    
C44   H27   S    
C34   O25   A    
C19   C20   A    
C8    C9    A    
C64   O11   A    
Cr4   O19   S    
C1    C28   S    
C41   C46   A    
C36   H21   S    
C4    C12   S    
C6    H41   S    
C39   C45   S    
C45   O2    A    
Cr2   O21   S    
Cr4   O6    S    
C59   C60   A    
Cr3   O3    S    
C13   C14   A    
C55   H33   S    
C16   H10   S    
C60   H37   S    
C2    C6    S    
C2    H40   S    
C4    C69   S    
C65   O14   A    
C53   C60   A    
C54   C61   A    
Cr1   O24   S    
Cr4   O14   S    
C34   O26   A    
C25   H15   S    
C58   H35   S    
C23   O23   A    
C3    C70   S    
C24   C25   A    
C4    C6    S    
C10   C11   A    
Cr6   O17   S    
Cr5   O19   S    
C20   C28   A    
C11   H7    S    
C58   C59   A    
C13   H6    S    
C34   C61   S    
C50   C56   S    
C51   C52   A    
Cr5   O8    S    
C37   C38   A    
C43   C44   A    
C43   H25   S    
C7    C62   S    
C29   C30   A    
Cr1   O12   S    
C66   O16   A    
C69   H34   S    
C47   C48   A    
C59   H36   S    
C22   H14   S    
C12   O22   A    
Cr3   O22   S    
C5    H4    S    
C68   O13   A    
C42   C50   A    
Cr1   O25   S    
C56   O24   A    
C69   H23   S    
C45   O3    A    
C9    C17   A    
C40   C41   A    
Cr3   O23   S    
C21   C28   A    
Cr3   O4    S    
C40   C65   S    
Cr4   O13   S    
Cr6   O11   S    
C12   O21   A    
C27   H17   S    
C33   H20   S    
C65   O15   A    
C1    O20   A    
Cr5   O15   S    
C46   C47   A    
Cr2   O20   S    
C47   H28   S    
Cr1   O1    S    
Cr2   O5    S    
C70   H3    S    
C18   C22   A    
C68   O18   A    
C3    C67   S    
C4    C5    S    
C5    C70   S    
C62   O8    A    
Cr5   O16   S    
C43   C50   A    
C67   H12   S    
C49   H30   S    
C48   H29   S    
C20   C27   A    
C3    C63   S    
C64   O6    A    
C30   C35   A    
C10   H5    S    
C70   I1    S    
C31   C38   A    
C15   H9    S    
Cr5   O9    S    
C32   C33   A    
C19   C24   A    
C25   C26   A    
C56   O4    A    
C38   H24   S    
C18   C64   S    
C57   C58   A    
C48   C49   A    
Cr2   O2    S    
C31   C39   A    
C2    C3    S    
C51   C55   A    
C51   C68   S    
C63   O9    A    
C52   C57   A    
C42   C49   A    
C29   C66   S    
C40   C44   A    
C57   H32   S    
Cr3   O5    S    
Cr6   O10   S    
C14   C15   A    
C67   C69   S    
C21   C22   A    
C63   O10   A    
C35   H19   S    
