data_mof_unit_40237.cif
_audit_creation_date              2012-12-10T20:00:01-0500
_audit_creation_method            fapswitch 2.2
_symmetry_space_group_name_H-M    P1
_symmetry_Int_Tables_number       1
_space_group_crystal_system       triclinic
_cell_length_a                    14.955177
_cell_length_b                    14.184931
_cell_length_c                    8.905232
_cell_angle_alpha                 90.670758
_cell_angle_beta                  90.031256
_cell_angle_gamma                 89.992224
_cell_volume                      1889.00972508

loop_
_atom_site_label
_atom_site_type_symbol
_atom_type_description
_atom_site_fract_x
_atom_site_fract_y
_atom_site_fract_z
_atom_type_partial_charge
C1    C     C_R   0.328246 0.500036 0.500247 0.838506
C2    C     C_R   0.672007 0.499973 0.498245 0.927412
C3    C     C_R   0.450133 0.202610 0.398937 -0.122424
C4    C     C_R   0.579477 0.794408 0.501571 -0.130228
C5    C     C_R   0.551560 0.207279 0.602060 -0.151877
C6    C     C_R   0.421868 0.796788 0.506008 -0.141009
C7    C     C_R   0.451598 0.103377 0.395799 0.365490
C8    C     C_R   0.583398 0.893660 0.500799 0.406493
C9    C     C_R   0.552646 0.107379 0.610494 0.380669
C10   C     C_R   0.421316 0.896084 0.513232 0.363819
C11   C     C_R   0.500075 0.499647 0.218564 0.904664
C12   C     C_R   0.500136 0.500339 0.781437 0.947160
C13   C     C_R   0.503347 0.053820 0.503363 -0.071307
C14   C     C_R   0.502970 0.946931 0.506662 -0.054163
C15   C     C_1   0.500112 0.499474 0.065363 -0.177217
C16   C     C_1   0.500133 0.500469 0.934643 -0.170430
C17   C     C_R   0.094406 0.529463 0.631158 -0.148964
C18   C     C_R   0.906654 0.555568 0.392485 -0.155768
C19   C     C_R   0.906525 0.450956 0.606815 -0.278379
C20   C     C_R   0.093565 0.476511 0.370711 -0.159089
C21   C     C_R   0.186796 0.527741 0.633498 0.403720
C22   C     C_R   0.814358 0.553143 0.386460 0.353579
C23   C     C_R   0.813537 0.448304 0.604827 0.414911
C24   C     C_R   0.185909 0.474637 0.368357 0.412257
C25   C     C_R   0.232796 0.500321 0.500909 -0.263383
C26   C     C_R   0.767837 0.499906 0.494915 -0.201097
C27   C     C_R   0.048391 0.503929 0.500884 -0.049946
C28   C     C_R   0.952188 0.504303 0.501068 0.012031
H1    H     H_    0.408870 0.240103 0.319607 0.172658
H2    H     H_    0.641210 0.754880 0.502284 0.187361
H3    H     H_    0.591248 0.249827 0.677925 0.181917
H4    H     H_    0.359020 0.759207 0.507257 0.182017
H5    H     H_    0.058215 0.550656 0.731481 0.179486
H6    H     H_    0.943197 0.596402 0.310645 0.174989
H7    H     H_    0.943414 0.411122 0.689524 0.151514
H8    H     H_    0.056718 0.456242 0.270523 0.175796
N1    N     N_R   0.500000 0.252470 0.500000 -0.131598
N2    N     N_R   0.500000 0.747530 0.500000 -0.131999
O1    O     O_R   0.369060 0.579480 0.500010 -0.617714
O2    O     O_R   0.630940 0.420520 0.499990 -0.574369
O3    O     O_R   0.630940 0.579480 0.499990 -0.634313
O4    O     O_R   0.369060 0.420520 0.500010 -0.606118
O5    O     O_R   0.500000 0.579460 0.285340 -0.605910
O6    O     O_R   0.500000 0.420540 0.714660 -0.611252
O7    O     O_R   0.500000 0.579460 0.714660 -0.605907
O8    O     O_R   0.500000 0.420540 0.285340 -0.626732
Zn1   Zn    Zn3+2 0.500000 0.606140 0.500000 0.961092
Zn2   Zn    Zn3+2 0.500000 0.393860 0.500000 0.966603
O9    O     O_3   0.228363 0.552571 0.767081 -0.743838
H9    H     H_    0.293321 0.540506 0.760930 0.331460
O10   O     O_3   0.773166 0.602074 0.272284 -0.762503
H10   H     H_    0.711763 0.577931 0.257052 0.332257
O11   O     O_3   0.765974 0.397757 0.709984 -0.770138
H11   H     H_    0.808445 0.366125 0.778574 0.329546
O12   O     O_3   0.226492 0.448386 0.234645 -0.743046
H12   H     H_    0.291994 0.456147 0.241620 0.332454
O13   O     O_3   0.394736 0.056438 0.297513 -0.583007
C29   C     C_3   0.443108 0.021470 0.172562 0.079509
H13   H     H_    0.510951 0.996611 0.202853 0.109456
H14   H     H_    0.449239 0.077980 0.087852 0.121426
C30   C     C_3   0.392521 0.937790 0.103638 -0.295893
H15   H     H_    0.374451 0.887521 0.193413 0.253100
H16   H     H_    0.329809 0.963143 0.051064 0.220239
C31   C     C_3   0.448686 0.885410 0.986237 -0.984846
H17   H     H_    0.467222 0.933041 0.893534 0.258633
H18   H     H_    0.409655 0.825534 0.938733 0.275743
H19   H     H_    0.510520 0.857090 0.038201 0.277174
O14   O     O_3   0.666713 0.936057 0.509576 -0.585049
C32   C     C_3   0.695189 0.965255 0.366068 0.089034
H20   H     H_    0.750965 0.015929 0.383500 0.182760
H21   H     H_    0.642663 0.004702 0.305809 0.095004
C33   C     C_3   0.730012 0.882217 0.270460 -0.379198
H22   H     H_    0.783461 0.844873 0.332941 0.254360
H23   H     H_    0.674986 0.831707 0.246397 0.221595
C34   C     C_3   0.767183 0.915801 0.120929 -0.898694
H24   H     H_    0.713151 0.948664 0.054008 0.261351
H25   H     H_    0.794234 0.854716 0.056434 0.285459
H26   H     H_    0.821789 0.967716 0.139535 0.260910
O15   O     O_3   0.604785 0.060397 0.715489 -0.586822
C35   C     C_3   0.598059 0.100070 0.861875 0.055133
H27   H     H_    0.586621 0.041335 0.940624 0.153425
H28   H     H_    0.540332 0.149066 0.877414 0.113348
C36   C     C_3   0.686240 0.147665 0.906806 -0.330956
H29   H     H_    0.740266 0.093949 0.909642 0.234012
H30   H     H_    0.705559 0.201214 0.823070 0.236326
C37   C     C_3   0.678819 0.195283 0.060906 -0.947449
H31   H     H_    0.627505 0.251908 0.058666 0.276887
H32   H     H_    0.744128 0.227153 0.092150 0.271804
H33   H     H_    0.660225 0.143000 0.147236 0.246636
O16   O     O_3   0.339899 0.942154 0.516441 -0.592298
C38   C     C_3   0.319746 0.968403 0.665880 0.084730
H34   H     H_    0.308316 0.904382 0.734567 0.147889
H35   H     H_    0.374477 0.011451 0.716735 0.132531
C39   C     C_3   0.234775 0.028144 0.666354 -0.294944
H36   H     H_    0.245802 0.091912 0.597304 0.241325
H37   H     H_    0.178977 0.986847 0.615786 0.232814
C40   C     C_3   0.208869 0.058749 0.825288 -0.952389
H38   H     H_    0.194054 0.996085 0.894633 0.266437
H39   H     H_    0.148129 0.103666 0.821113 0.275260
H40   H     H_    0.263838 0.100027 0.878299 0.268092

loop_
_geom_bond_atom_site_label_1
_geom_bond_atom_site_label_2
_ccdc_geom_bond_type
C6    H4    S    
O12   H12   S    
C5    N1    A    
C32   C33   S    
C4    C8    A    
C21   O9    S    
C40   H38   S    
O16   C38   S    
O11   H11   S    
C24   O12   S    
C3    C7    A    
C35   C36   S    
C37   H32   S    
C2    O3    A    
C29   H14   S    
C15   C16   T    
C3    H1    S    
C9    O15   S    
C23   C26   A    
C32   H21   S    
C9    C13   A    
C11   C15   S    
C20   C24   A    
O14   C32   S    
C6    N2    A    
C11   O5    A    
C30   H15   S    
C33   H22   S    
C29   C30   S    
C13   C14   S    
C1    C25   S    
C32   H20   S    
C17   H5    S    
C33   C34   S    
C40   H39   S    
C23   O11   S    
O7    Zn1   S    
O8    Zn2   S    
O10   H10   S    
C17   C27   A    
C31   H19   S    
C12   C16   S    
C18   C28   A    
C24   C25   A    
C33   H23   S    
C10   C14   A    
C38   H34   S    
C37   H31   S    
C35   H27   S    
C39   C40   S    
C29   H13   S    
C17   C21   A    
C31   H18   S    
C30   C31   S    
C19   C23   A    
C34   H24   S    
C5    C9    A    
C38   H35   S    
C18   H6    S    
C36   H29   S    
C30   H16   S    
O3    Zn1   S    
C2    C26   S    
O4    Zn2   S    
N1    Zn2   S    
C39   H37   S    
C19   C28   A    
C34   H25   S    
C10   O16   S    
N2    Zn1   S    
C35   H28   S    
C36   H30   S    
C4    N2    A    
C8    O14   S    
C40   H40   S    
O1    Zn1   S    
O2    Zn2   S    
C21   C25   A    
C8    C14   A    
C18   C22   A    
C12   O7    A    
C37   H33   S    
C6    C10   A    
C20   C27   A    
C31   H17   S    
C12   O6    A    
C19   H7    S    
C38   C39   S    
O13   C29   S    
C39   H36   S    
C34   H26   S    
C1    O1    A    
O15   C35   S    
C20   H8    S    
C2    O2    A    
C1    O4    A    
C7    C13   A    
C36   C37   S    
C3    N1    A    
O9    H9    S    
C22   C26   A    
C27   C28   S    
C11   O8    A    
O5    Zn1   S    
C7    O13   S    
C4    H2    S    
O6    Zn2   S    
C22   O10   S    
C5    H3    S    
