data_mof_unit_22700.cif
_audit_creation_date              2012-12-10T16:52:15-0500
_audit_creation_method            fapswitch 2.2
_symmetry_space_group_name_H-M    P1
_symmetry_Int_Tables_number       1
_space_group_crystal_system       triclinic
_cell_length_a                    11.022304
_cell_length_b                    10.881463
_cell_length_c                    9.739635
_cell_angle_alpha                 87.443982
_cell_angle_beta                  102.238983
_cell_angle_gamma                 90.391905
_cell_volume                      1140.47011468

loop_
_atom_site_label
_atom_site_type_symbol
_atom_type_description
_atom_site_fract_x
_atom_site_fract_y
_atom_site_fract_z
_atom_type_partial_charge
C1    C     C_R   0.512600 0.265257 0.505919 0.824706
C2    C     C_2   0.494744 0.866905 0.488524 -0.345321
C3    C     C_2   0.573156 0.066101 0.420759 0.195941
C4    C     C_2   0.545903 0.133414 0.525633 0.005190
C5    C     C_2   0.404905 0.470820 0.901464 -0.190353
C6    C     C_2   0.414536 0.446705 0.058077 0.600599
C7    C     C_R   0.262956 0.496569 0.443762 0.859227
C8    C     C_R   0.498733 0.734559 0.496882 0.851462
C9    C     C_R   0.737054 0.498626 0.556760 0.769901
C10   C     C_2   0.128858 0.479210 0.416496 -0.367029
C11   C     C_2   0.071086 0.474568 0.524634 -0.093814
C12   C     C_2   0.872514 0.505690 0.586828 0.255771
C13   C     C_2   0.938624 0.447368 0.506784 0.109747
C14   C     C_2   0.578632 0.930767 0.434024 -0.173189
Cu1   Cu    Cu3+1 0.500020 0.500020 0.638640 0.927536
Cu2   Cu    Cu3+1 0.499980 0.499980 0.361360 0.989788
H1    H     H_    0.584638 0.473170 0.903817 0.257874
H2    H     H_    0.121513 0.494036 0.629849 0.165998
H3    H     H_    0.078666 0.463864 0.310272 0.173570
H4    H     H_    0.646405 0.882844 0.389391 0.146331
H5    H     H_    0.423728 0.912031 0.530316 0.160832
H6    H     H_    0.314059 0.466635 0.832962 0.154281
N1    N     N_2   0.498650 0.498660 0.846590 -0.297621
N2    N     N_2   0.498620 0.498630 0.152710 -0.015113
O1    O     O_R   0.500020 0.321960 0.617050 -0.575112
O2    O     O_R   0.499980 0.321920 0.382890 -0.569797
O3    O     O_R   0.320700 0.500020 0.574050 -0.586695
O4    O     O_R   0.320660 0.499980 0.339890 -0.537569
O5    O     O_R   0.500020 0.678080 0.617110 -0.563763
O6    O     O_R   0.499980 0.678040 0.382950 -0.595576
O7    O     O_R   0.679340 0.500020 0.660110 -0.595619
O8    O     O_R   0.679300 0.499980 0.425950 -0.569817
C15   C     C_3   0.883412 0.347727 0.408762 -0.894444
H7    H     H_    0.956973 0.292687 0.377869 0.239939
H8    H     H_    0.828963 0.283190 0.463344 0.212137
H9    H     H_    0.823824 0.388648 0.311401 0.268204
O9    O     O_3   0.315777 0.389471 0.102464 -0.613729
C16   C     C_3   0.289629 0.273106 0.043228 0.014781
H10   H     H_    0.293314 0.204028 0.131527 0.175024
H11   H     H_    0.357710 0.242066 0.981699 0.121116
C17   C     C_3   0.158210 0.272816 0.951925 -0.361829
H12   H     H_    0.090907 0.301792 0.014717 0.223901
H13   H     H_    0.152187 0.338802 0.860648 0.194170
C18   C     C_3   0.122626 0.145457 0.897183 -0.902623
H14   H     H_    0.187684 0.115561 0.832202 0.256944
H15   H     H_    0.027218 0.148561 0.831032 0.253549
H16   H     H_    0.124818 0.077482 0.986240 0.254352
O10   O     O_3   0.596535 0.551052 0.109776 -0.584731
C19   C     C_3   0.591879 0.680820 0.115483 0.170751
H17   H     H_    0.662731 0.718145 0.059196 0.121780
H18   H     H_    0.624299 0.709727 0.224126 0.170585
C20   C     C_3   0.466340 0.739467 0.041217 -0.371397
H19   H     H_    0.444965 0.716025 0.929027 0.234587
H20   H     H_    0.390204 0.705022 0.091164 0.226402
C21   C     C_3   0.469027 0.879209 0.046222 -0.951215
H21   H     H_    0.474536 0.906321 0.155468 0.279445
H22   H     H_    0.382146 0.918332 0.979974 0.261083
H23   H     H_    0.549158 0.917658 0.006131 0.255997
O11   O     O_3   0.928773 0.593013 0.678990 -0.627836
C22   C     C_3   0.948557 0.545007 0.819451 0.044355
H24   H     H_    0.050344 0.536362 0.860108 0.152063
H25   H     H_    0.907049 0.452225 0.832385 0.124627
C23   C     C_3   0.896611 0.635301 0.908479 -0.305122
H26   H     H_    0.935661 0.728347 0.894338 0.223502
H27   H     H_    0.794016 0.640839 0.873253 0.233207
C24   C     C_3   0.929383 0.595547 0.064061 -0.920419
H28   H     H_    0.890383 0.503134 0.081440 0.263112
H29   H     H_    0.890431 0.662332 0.126179 0.255326
H30   H     H_    0.031819 0.593070 0.101376 0.258981
C25   C     C_3   0.596859 0.122860 0.284298 -0.864886
H31   H     H_    0.637758 0.055034 0.225166 0.218123
H32   H     H_    0.508765 0.156166 0.216144 0.237982
H33   H     H_    0.664082 0.199339 0.304645 0.245308
C26   C     C_3   0.563359 0.080484 0.676317 -0.887376
H34   H     H_    0.620971 0.143725 0.749768 0.236711
H35   H     H_    0.471774 0.069696 0.705758 0.234778
H36   H     H_    0.614054 0.991628 0.694625 0.250422

loop_
_geom_bond_atom_site_label_1
_geom_bond_atom_site_label_2
_ccdc_geom_bond_type
Cu2   O4    S    
C7    C10   S    
C24   H29   S    
C21   H21   S    
C18   H16   S    
C11   H2    S    
Cu1   O7    S    
O9    C16   S    
C5    H6    S    
Cu2   O8    S    
C17   H13   S    
C17   H12   S    
C7    O3    A    
C4    C26   S    
C5    N1    D    
C20   C21   S    
C10   H3    S    
C1    C4    S    
C6    N2    D    
C23   H27   S    
C19   C20   S    
C25   H33   S    
Cu1   N1    S    
C24   H28   S    
C23   C24   S    
C8    O6    A    
O11   C22   S    
Cu2   N2    S    
C12   C13   D    
C1    O1    A    
C11   C13   S    
H1    N1    S    
C3    C14   S    
C26   H35   S    
C2    H5    S    
C22   C23   S    
C8    O5    A    
O10   C19   S    
C16   H11   S    
C18   H15   S    
Cu1   O5    S    
C21   H22   S    
Cu2   O2    S    
C5    C6    S    
C2    C14   D    
C17   C18   S    
C6    O9    S    
Cu1   O1    S    
C24   H30   S    
C25   H31   S    
C10   C11   D    
C9    O7    A    
Cu2   O6    S    
C3    C4    D    
N2    O10   S    
C14   H4    S    
C3    C25   S    
C15   H7    S    
C20   H19   S    
C16   C17   S    
C22   H25   S    
C19   H17   S    
C26   H34   S    
C21   H23   S    
C15   H9    S    
C22   H24   S    
C25   H32   S    
C18   H14   S    
C15   H8    S    
C9    O8    A    
C9    C12   S    
C12   O11   S    
Cu1   O3    S    
C1    O2    A    
C2    C8    S    
C7    O4    A    
Cu1   Cu2   S    
C13   C15   S    
C20   H20   S    
C23   H26   S    
C19   H18   S    
C26   H36   S    
C16   H10   S    
