data_mof_unit_15067.cif
_audit_creation_date              2012-12-11T14:36:16-0500
_audit_creation_method            fapswitch 2.2
_symmetry_space_group_name_H-M    P1
_symmetry_Int_Tables_number       1
_space_group_crystal_system       triclinic
_cell_length_a                    13.451988
_cell_length_b                    13.468712
_cell_length_c                    27.500707
_cell_angle_alpha                 90.576813
_cell_angle_beta                  90.09007
_cell_angle_gamma                 60.301729
_cell_volume                      4327.86880993

loop_
_atom_site_label
_atom_site_type_symbol
_atom_type_description
_atom_site_fract_x
_atom_site_fract_y
_atom_site_fract_z
_atom_type_partial_charge
C1    C     C_R   0.620197 0.101148 0.570219 0.548299
C2    C     C_1   0.646930 0.709496 0.659073 0.011468
C3    C     C_3   0.804539 0.439144 0.779652 -0.368276
C4    C     C_3   0.143031 0.975980 0.722670 -0.325027
C5    C     C_3   0.158377 0.072789 0.743040 0.011289
C6    C     C_R   0.599514 0.779644 0.568821 0.554147
C7    C     C_3   0.248318 0.058595 0.781522 -0.066632
C8    C     C_1   0.099884 0.200247 0.902488 0.008531
C9    C     C_1   0.233034 0.135919 0.618120 -0.000826
C10   C     C_3   0.064584 0.178367 0.770386 -0.096779
C11   C     C_3   0.155008 0.165171 0.808298 0.047511
C12   C     C_3   0.094251 0.256919 0.739920 -0.117039
C13   C     C_3   0.187233 0.150532 0.713068 0.032708
C14   C     C_1   0.629689 0.734504 0.616812 0.022232
C15   C     C_3   0.184152 0.242666 0.778228 0.010495
C16   C     C_3   0.277926 0.137148 0.750895 -0.083306
C17   C     C_1   0.130103 0.179829 0.860597 -0.021272
C18   C     C_R   0.278144 0.121450 0.569804 0.549724
C19   C     C_1   0.207784 0.143534 0.660528 -0.048455
C20   C     C_3   0.708295 0.223838 0.739029 -0.128272
C21   C     C_3   0.604248 0.284477 0.773876 0.339253
C22   C     C_1   0.689652 0.207049 0.903621 0.037413
C23   C     C_1   0.634667 0.132508 0.618519 0.027015
C24   C     C_3   0.762242 0.122356 0.774634 0.324068
C25   C     C_3   0.732117 0.565574 0.768661 -0.027713
C26   C     C_3   0.659241 0.183874 0.809317 0.003120
C27   C     C_3   0.702296 0.065211 0.748611 0.436240
C28   C     C_3   0.647183 0.166339 0.713445 -0.087639
C29   C     C_3   0.599159 0.127103 0.783125 0.318376
C30   C     C_R   0.622452 0.099836 0.431322 0.536378
C31   C     C_3   0.541858 0.228762 0.747544 -0.128422
C32   C     C_1   0.671682 0.195237 0.861648 0.071568
C33   C     C_1   0.641727 0.151206 0.660920 0.018053
C34   C     C_R   0.699843 0.769679 0.352413 -0.095732
C35   C     C_R   0.717851 0.745460 0.302748 0.016474
C36   C     C_3   0.675752 0.661919 0.806899 0.000112
C37   C     C_R   0.753238 0.686590 0.203735 -0.052686
C38   C     C_R   0.844746 0.672432 0.232887 -0.099008
C39   C     C_R   0.827485 0.701230 0.282187 0.410488
C40   C     C_R   0.772387 0.645633 0.155978 -0.134239
C41   C     C_R   0.682485 0.648495 0.128962 0.003623
C42   C     C_R   0.571392 0.830992 0.424891 0.553270
C43   C     C_R   0.499809 0.822313 0.343711 -0.136764
C44   C     C_R   0.515687 0.800518 0.294034 0.014568
C45   C     C_R   0.624910 0.761820 0.273380 0.004232
C46   C     C_R   0.424925 0.812831 0.265047 -0.116065
C47   C     C_3   0.620051 0.618851 0.739744 0.470297
C48   C     C_R   0.441504 0.786736 0.215678 -0.126467
C49   C     C_R   0.550281 0.744887 0.195104 0.027142
C50   C     C_R   0.642370 0.733397 0.223825 0.044539
C51   C     C_R   0.570619 0.704729 0.147433 -0.127118
C52   C     C_R   0.591524 0.805744 0.373040 -0.031060
C53   C     C_R   0.184817 0.072355 0.362354 0.343019
C54   C     C_R   0.275916 0.121819 0.431497 0.562055
C55   C     C_R   0.153713 0.088161 0.313072 0.020799
C56   C     C_R   0.126526 0.103064 0.211034 0.032258
C57   C     C_R   0.122591 0.015257 0.237050 -0.151958
C58   C     C_3   0.659977 0.690272 0.711492 -0.024199
C59   C     C_R   0.134306 0.009047 0.287502 -0.109168
C60   C     C_R   0.119941 0.108591 0.159656 -0.004911
C61   C     C_R   0.103903 0.209485 0.136505 0.008194
C62   C     C_R   0.187851 0.251313 0.362663 -0.176065
C63   C     C_R   0.161244 0.265819 0.313653 -0.006735
C64   C     C_R   0.148617 0.181668 0.288100 0.010898
C65   C     C_R   0.154939 0.359497 0.289274 -0.090849
C66   C     C_3   0.773514 0.636686 0.739968 -0.156343
C67   C     C_R   0.140655 0.367593 0.239193 -0.116942
C68   C     C_R   0.132373 0.282209 0.213067 0.007174
C69   C     C_3   0.563974 0.714792 0.777927 0.427752
C70   C     C_R   0.134746 0.189394 0.237370 0.055665
C71   C     C_R   0.116976 0.291425 0.163195 -0.144325
C72   C     C_R   0.209940 0.150149 0.386127 0.011086
C73   C     C_R   0.562066 0.236137 0.362268 -0.127640
C74   C     C_R   0.569254 0.253003 0.312577 0.020889
C75   C     C_R   0.580556 0.281236 0.212051 0.026853
C76   C     C_R   0.494402 0.368646 0.240361 -0.121914
C77   C     C_R   0.487612 0.353822 0.290189 -0.118418
C78   C     C_3   0.716214 0.734146 0.778818 -0.120866
C79   C     C_R   0.591915 0.297860 0.162696 -0.131489
C80   C     C_3   0.602476 0.788318 0.749449 -0.107121
C81   C     C_R   0.679660 0.210160 0.135283 -0.003831
C82   C     C_R   0.737333 0.053039 0.356607 -0.092837
C83   C     C_R   0.742530 0.065631 0.306781 0.004983
C84   C     C_R   0.657529 0.165378 0.284447 0.002305
C85   C     C_R   0.828554 0.977259 0.278946 0.385211
C86   C     C_R   0.828220 0.984505 0.228204 0.014319
C87   C     C_R   0.745023 0.086433 0.205733 -0.027983
C88   C     C_R   0.660775 0.177437 0.234040 0.032355
C89   C     C_R   0.748052 0.102404 0.155912 -0.121464
C90   C     C_1   0.695457 0.611827 0.901022 0.023637
C91   C     C_1   0.685157 0.640071 0.859146 0.019775
C92   C     C_R   0.643923 0.134127 0.383926 -0.022692
C93   C     C_R   0.049749 0.236126 0.949914 0.547633
C94   C     C_R   0.711239 0.563909 0.948465 0.545804
C95   C     C_R   0.721838 0.225343 0.951105 0.542587
C96   C     C_R   0.048834 0.244448 0.088534 0.545172
C97   C     C_R   0.707593 0.576269 0.085803 0.547267
C98   C     C_R   0.718264 0.233544 0.089221 0.545770
C99   C     C_3   0.199801 0.339510 0.798366 -0.371682
C100  C     C_3   0.133591 0.006961 0.130122 -0.373930
C101  C     C_3   0.917639 0.884310 0.198914 -0.371244
Cr1   Cr    Cr6+3 0.417550 0.169090 0.500530 1.034829
Cr2   Cr    Cr6+3 0.669180 0.913420 0.499920 1.058839
Cr3   Cr    Cr6+3 0.413260 0.917540 0.499520 1.093441
Cr4   Cr    Cr6+3 0.909170 0.177380 0.020380 1.032463
Cr5   Cr    Cr6+3 0.912710 0.429210 0.018220 1.028943
Cr6   Cr    Cr6+3 0.657170 0.432570 0.019030 1.045340
F1    F     F_    0.552788 0.398309 0.787657 -0.553880
F2    F     F_    0.544571 0.076150 0.805882 -0.633390
F3    F     F_    0.753833 0.951110 0.735234 -0.599797
F4    F     F_    0.875589 0.065646 0.788842 -0.624876
F5    F     F_    0.918979 0.680177 0.310179 -0.599513
F6    F     F_    0.198051 0.978284 0.385862 -0.635815
F7    F     F_    0.456354 0.753849 0.797688 -0.598692
F8    F     F_    0.912416 0.883659 0.301400 -0.608648
F9    F     F_    0.570608 0.559485 0.719392 -0.555044
H1    H     H_    0.755480 0.781861 0.795490 0.212468
H2    H     H_    0.500867 0.708535 0.126146 0.125155
H3    H     H_    0.370771 0.793899 0.194161 0.101331
H4    H     H_    0.342573 0.838075 0.281041 0.131231
H5    H     H_    0.416074 0.851790 0.359699 0.184299
H6    H     H_    0.110696 0.950435 0.218872 0.121669
H7    H     H_    0.548110 0.880512 0.741205 0.170603
H8    H     H_    0.133674 0.938809 0.306086 0.203561
H9    H     H_    0.108289 0.367031 0.145601 0.129943
H10   H     H_    0.137221 0.440051 0.220823 0.108804
H11   H     H_    0.164127 0.424855 0.308744 0.149245
H12   H     H_    0.032376 0.338471 0.722509 0.114385
H13   H     H_    0.201948 0.314710 0.381194 0.154907
H14   H     H_    0.537478 0.380616 0.146566 0.123833
H15   H     H_    0.490222 0.299563 0.383412 0.132629
H16   H     H_    0.432290 0.448370 0.223951 0.109716
H17   H     H_    0.419313 0.421599 0.311293 0.120334
H18   H     H_    0.811714 0.034111 0.133510 0.137872
H19   H     H_    0.801186 0.974696 0.373381 0.214003
H20   H     H_    0.311015 0.977477 0.798915 0.197840
H21   H     H_    0.365287 0.121225 0.742340 0.158003
H22   H     H_    0.220668 0.380410 0.768247 0.150484
H23   H     H_    0.977485 0.193532 0.778795 0.167802
H24   H     H_    0.119620 0.404065 0.816504 0.139119
H25   H     H_    0.270718 0.305284 0.825098 0.178041
H26   H     H_    0.164023 0.007036 0.092658 0.147371
H27   H     H_    0.200693 0.925824 0.145985 0.099751
H28   H     H_    0.051165 0.006893 0.128874 0.146216
H29   H     H_    0.975192 0.810860 0.221919 0.209231
H30   H     H_    0.874933 0.853820 0.172999 0.113932
H31   H     H_    0.971882 0.910318 0.178506 0.098276
H32   H     H_    0.831491 0.389897 0.745013 0.134626
H33   H     H_    0.881296 0.424066 0.800595 0.117772
H34   H     H_    0.753024 0.263737 0.720736 0.148607
H35   H     H_    0.754016 0.410548 0.801338 0.199763
H36   H     H_    0.122349 0.934655 0.752673 0.209679
H37   H     H_    0.072140 0.010303 0.695928 0.155291
H38   H     H_    0.223281 0.911745 0.704476 0.159633
H39   H     H_    0.450730 0.273435 0.736272 0.142981
H40   H     H_    0.858866 0.602718 0.141507 0.125350
H41   H     H_    0.860119 0.603478 0.723957 0.149515
H42   H     H_    0.770669 0.758008 0.375115 0.203869
H43   H     H_    0.930441 0.635198 0.217912 0.117838
O1    O     O_R   0.301710 0.195650 0.554160 -0.500176
O2    O     O_R   0.635520 0.542770 0.964420 -0.487538
O3    O     O_R   0.665950 0.325030 0.970100 -0.490090
O4    O     O_R   0.522390 0.158990 0.550460 -0.493274
O5    O     O_R   0.816620 0.158530 0.074540 -0.525299
O6    O     O_R   0.004460 0.188870 0.069750 -0.499859
O7    O     O_R   0.025800 0.341780 0.072300 -0.521917
O8    O     O_R   0.807650 0.528950 0.067500 -0.503814
O9    O     O_R   0.633420 0.550490 0.071810 -0.520233
O10   O     O_R   0.664000 0.332180 0.069640 -0.499287
O11   O     O_3   0.826350 0.346390 0.019210 -0.249488
O12   O     O_R   0.658900 0.818120 0.449760 -0.502446
O13   O     O_R   0.694390 0.003530 0.554040 -0.489034
O14   O     O_R   0.657700 0.819660 0.549320 -0.486430
O15   O     O_R   0.501930 0.803280 0.552920 -0.492857
O16   O     O_R   0.318170 0.023580 0.549580 -0.490828
O17   O     O_R   0.303010 0.193990 0.446760 -0.534426
O18   O     O_R   0.523600 0.157450 0.450900 -0.501820
O19   O     O_R   0.695690 0.001860 0.446640 -0.520014
O20   O     O_R   0.503220 0.801620 0.445520 -0.482019
O21   O     O_R   0.319370 0.022040 0.450020 -0.451199
O22   O     O_3   0.499990 0.000010 0.499990 -0.289853
O23   O     O_R   0.818720 0.150820 0.967160 -0.495978
O24   O     O_R   0.006410 0.181720 0.970200 -0.487938
O25   O     O_R   0.027890 0.334070 0.964920 -0.506992
O26   O     O_R   0.809600 0.521790 0.967960 -0.501063

loop_
_geom_bond_atom_site_label_1
_geom_bond_atom_site_label_2
_ccdc_geom_bond_type
C4    H38   S    
C87   C88   A    
C73   H15   S    
C26   C32   S    
C55   C59   A    
C27   C29   S    
C93   O24   A    
C73   C74   A    
C16   H21   S    
C24   C27   S    
C21   C26   S    
C20   H34   S    
C63   C65   A    
C61   C96   S    
C85   C86   A    
C36   C69   S    
C7    C11   S    
C12   C13   S    
C21   C31   S    
C101  H29   S    
C62   C63   A    
C22   C32   T    
Cr5   O7    S    
C29   F2    S    
C24   C26   S    
C38   H43   S    
C37   C40   A    
C38   C39   A    
C93   O25   A    
C78   C80   S    
C43   C52   A    
C57   C59   A    
Cr3   O20   S    
C65   C67   A    
C81   C98   S    
Cr1   O17   S    
C15   C16   S    
Cr2   O14   S    
C51   H2    S    
C82   C92   A    
C56   C57   A    
C34   C35   A    
C22   C95   S    
C54   O17   A    
C82   H19   S    
C49   C50   A    
C47   C69   S    
C57   H6    S    
C98   O10   A    
C11   C15   S    
C9    C19   T    
C101  H31   S    
Cr6   O2    S    
C27   F3    S    
C53   F6    S    
Cr1   O4    S    
C49   C51   A    
C74   C77   A    
Cr6   O3    S    
C99   H22   S    
C64   C70   A    
Cr4   O23   S    
C48   H3    S    
C3    H35   S    
C25   C47   S    
C5    C13   S    
C58   C80   S    
C81   C89   A    
C18   O16   A    
C61   C71   A    
Cr3   O22   S    
C3    H32   S    
Cr2   O12   S    
Cr5   O11   S    
C62   H13   S    
C24   F4    S    
C77   H17   S    
C4    H36   S    
C44   C46   A    
C90   C94   S    
Cr3   O16   S    
C53   C55   A    
C47   F9    S    
C66   C78   S    
C46   C48   A    
C69   F7    S    
C3    H33   S    
Cr4   O11   S    
C13   C19   S    
C46   H4    S    
C67   C68   A    
C20   C24   S    
C85   F8    S    
C78   H1    S    
C76   C77   A    
Cr5   O26   S    
C30   C92   S    
C100  H28   S    
C95   O3    A    
Cr1   O1    S    
C5    C7    S    
C40   C41   A    
C86   C87   A    
Cr3   O15   S    
C6    O15   A    
C23   C33   T    
C97   O8    A    
C79   H14   S    
C56   C60   A    
C60   C61   A    
C35   C39   A    
C75   C76   A    
C37   C38   A    
C6    C14   S    
C9    C18   S    
C31   H39   S    
C83   C84   A    
C12   C15   S    
C3    C25   S    
C42   O20   A    
C55   C64   A    
C30   O19   A    
Cr4   O5    S    
C62   C72   A    
C101  H30   S    
C54   O21   A    
Cr4   O24   S    
C94   O2    A    
Cr5   O25   S    
Cr6   O11   S    
C10   C12   S    
C34   H42   S    
C36   C91   S    
C39   F5    S    
C83   C85   A    
C28   C33   S    
C1    C23   S    
C56   C70   A    
C10   C11   S    
C87   C89   A    
C43   C44   A    
Cr2   O13   S    
C41   C97   S    
C99   H24   S    
C67   H10   S    
C10   H23   S    
C35   C45   A    
C65   H11   S    
C53   C72   A    
C44   C45   A    
C58   C66   S    
Cr6   O10   S    
C59   H8    S    
C71   H9    S    
C43   H5    S    
Cr6   O9    S    
C11   C17   S    
C89   H18   S    
Cr2   O22   S    
Cr1   O22   S    
C34   C52   A    
C99   H25   S    
C28   C31   S    
C7    C16   S    
C25   C66   S    
C84   C88   A    
C73   C92   A    
C74   C84   A    
C4    C5    S    
C60   C100  S    
C100  H27   S    
C98   O5    A    
C2    C58   S    
C95   O23   A    
C12   H12   S    
C6    O14   A    
C97   O9    A    
C20   C28   S    
C1    O13   A    
C79   C81   A    
C8    C17   T    
C94   O26   A    
Cr2   O19   S    
Cr5   O8    S    
C5    C10   S    
C29   C31   S    
C36   C78   S    
C47   C58   S    
C15   C99   S    
C37   C50   A    
C76   H16   S    
C90   C91   T    
Cr3   O21   S    
C45   C50   A    
C68   C71   A    
C48   C49   A    
C30   O18   A    
Cr4   O6    S    
C4    H37   S    
C96   O7    A    
C2    C14   T    
C21   F1    S    
C18   O1    A    
C42   O12   A    
C25   C36   S    
C63   C64   A    
C75   C88   A    
C7    H20   S    
C54   C72   S    
C20   C21   S    
C1    O4    A    
C26   C29   S    
C68   C70   A    
C82   C83   A    
C8    C93   S    
C13   C16   S    
C27   C28   S    
Cr1   O18   S    
C96   O6    A    
C40   H40   S    
C69   C80   S    
C100  H26   S    
C86   C101  S    
C75   C79   A    
C41   C51   A    
C66   H41   S    
C42   C52   S    
C80   H7    S    
