data_mof_unit_44056.cif
_audit_creation_date              2012-12-10T20:44:00-0500
_audit_creation_method            fapswitch 2.2
_symmetry_space_group_name_H-M    P1
_symmetry_Int_Tables_number       1
_space_group_crystal_system       triclinic
_cell_length_a                    17.425612
_cell_length_b                    10.638499
_cell_length_c                    9.817521
_cell_angle_alpha                 88.690821
_cell_angle_beta                  90.715966
_cell_angle_gamma                 90.549039
_cell_volume                      1819.29934542

loop_
_atom_site_label
_atom_site_type_symbol
_atom_type_description
_atom_site_fract_x
_atom_site_fract_y
_atom_site_fract_z
_atom_type_partial_charge
C1    C     C_R   0.505822 0.259717 0.501515 0.869220
C2    C     C_R   0.885902 0.566728 0.514311 0.161774
C3    C     C_1   0.966131 0.583486 0.518526 -0.067098
C4    C     C_1   0.034185 0.589222 0.521358 0.007951
C5    C     C_R   0.154540 0.531714 0.634718 -0.020695
C6    C     C_R   0.231710 0.503652 0.621128 -0.281030
C7    C     C_R   0.270768 0.531476 0.499885 -0.163659
C8    C     C_R   0.231834 0.591839 0.389075 -0.129861
C9    C     C_R   0.153555 0.618459 0.401495 0.433481
C10   C     C_R   0.115355 0.585280 0.522115 -0.038999
C11   C     C_R   0.534720 0.059998 0.625397 -0.017852
C12   C     C_R   0.353167 0.506343 0.499122 0.893141
C13   C     C_R   0.525461 0.129224 0.503076 -0.146990
C14   C     C_R   0.533986 0.068646 0.378076 -0.190086
C15   C     C_R   0.531557 0.938660 0.375476 -0.231667
C16   C     C_R   0.519859 0.871486 0.497630 -0.098346
C17   C     C_R   0.528137 0.931925 0.620963 0.099011
C18   C     C_3   0.479825 0.920779 0.744525 -0.467507
C19   C     C_3   0.489859 0.061616 0.756578 0.287506
C20   C     C_R   0.436544 0.462054 0.071098 0.253971
C21   C     C_R   0.557565 0.557111 0.072878 -0.288575
C22   C     C_R   0.557903 0.559409 0.925937 0.512649
C23   C     C_R   0.503314 0.740436 0.498704 0.874206
C24   C     C_R   0.436223 0.462744 0.928853 0.122682
C25   C     C_3   0.395947 0.338842 0.926531 -0.518817
C26   C     C_3   0.396583 0.338334 0.081279 -0.480077
C27   C     C_R   0.646915 0.501190 0.500768 0.859931
C28   C     C_R   0.848372 0.527043 0.632441 -0.182959
C29   C     C_R   0.770321 0.501268 0.626968 -0.206673
C30   C     C_R   0.729863 0.515695 0.503208 -0.021948
C31   C     C_R   0.768507 0.553439 0.384293 -0.212671
C32   C     C_R   0.846692 0.579030 0.390053 -0.163514
H1    H     H_    0.879516 0.515142 0.728102 0.140830
H2    H     H_    0.531895 0.892571 0.278209 0.167629
H3    H     H_    0.419731 0.891860 0.720499 0.141823
H4    H     H_    0.508095 0.864269 0.827263 0.230785
H5    H     H_    0.434335 0.111324 0.746871 0.092204
H6    H     H_    0.602261 0.600850 0.132645 0.167859
H7    H     H_    0.337375 0.345277 0.881109 0.193470
H8    H     H_    0.432573 0.265833 0.885399 0.234541
H9    H     H_    0.338396 0.346066 0.125194 0.199407
H10   H     H_    0.741638 0.470925 0.719386 0.158322
H11   H     H_    0.433083 0.263558 0.128282 0.212154
H12   H     H_    0.738243 0.565322 0.287867 0.144486
H13   H     H_    0.876556 0.607687 0.298069 0.133018
H14   H     H_    0.261877 0.460990 0.707231 0.161854
H15   H     H_    0.534849 0.120392 0.281805 0.166504
N1    N     N_R   0.499490 0.499140 0.142800 -0.124918
N2    N     N_R   0.499490 0.499180 0.857150 -0.150318
O1    O     O_R   0.500010 0.316790 0.614690 -0.649416
O2    O     O_R   0.500000 0.316760 0.385350 -0.615636
O3    O     O_R   0.389120 0.500020 0.614710 -0.617440
O4    O     O_R   0.389110 0.499990 0.385370 -0.601747
O5    O     O_R   0.500000 0.683240 0.614650 -0.582103
O6    O     O_R   0.499990 0.683210 0.385310 -0.624635
O7    O     O_R   0.610890 0.500010 0.614630 -0.574882
O8    O     O_R   0.610880 0.499980 0.385290 -0.627420
Zn1   Zn    Zn3+2 0.500010 0.500020 0.653130 0.963418
Zn2   Zn    Zn3+2 0.499990 0.499980 0.346870 0.941735
O9    O     O_3   0.531008 0.085054 0.879903 -0.646849
C33   C     C_3   0.590817 0.174468 0.865087 0.088239
H16   H     H_    0.570291 0.262006 0.814574 0.177145
H17   H     H_    0.638455 0.134036 0.806204 0.154647
C34   C     C_3   0.620999 0.208220 0.006540 -0.336936
H18   H     H_    0.575594 0.258087 0.061885 0.221762
H19   H     H_    0.635376 0.121020 0.065411 0.231189
C35   C     C_3   0.692319 0.292144 0.997718 -0.983451
H20   H     H_    0.740319 0.240379 0.952011 0.266612
H21   H     H_    0.709926 0.321402 0.101468 0.270427
H22   H     H_    0.680208 0.377449 0.934374 0.262403
O10   O     O_3   0.612183 0.623919 0.846651 -0.609562
C36   C     C_3   0.677671 0.669056 0.917437 0.028477
H23   H     H_    0.724913 0.677276 0.842806 0.174719
H24   H     H_    0.699280 0.601638 0.996872 0.116722
C37   C     C_3   0.663945 0.801189 0.971447 -0.346527
H25   H     H_    0.655846 0.868119 0.883923 0.240812
H26   H     H_    0.611147 0.802831 0.033450 0.216587
C38   C     C_3   0.731821 0.845154 0.058324 -0.958114
H27   H     H_    0.739636 0.781290 0.148424 0.261413
H28   H     H_    0.721113 0.941340 0.094617 0.268410
H29   H     H_    0.785188 0.847011 0.997567 0.261508
C39   C     C_R   0.116540 0.504139 0.767310 0.144344
C40   C     C_R   0.125792 0.386611 0.833897 -0.174854
C41   C     C_R   0.091909 0.362295 0.960289 -0.175502
C42   C     C_R   0.048622 0.454830 0.021499 -0.082211
C43   C     C_R   0.039318 0.571972 0.956591 -0.119253
C44   C     C_R   0.073390 0.596988 0.830538 -0.173933
H30   H     H_    0.158950 0.313617 0.787802 0.127392
H31   H     H_    0.099342 0.271715 0.010902 0.139425
H32   H     H_    0.022558 0.435970 0.119459 0.141514
H33   H     H_    0.005899 0.643605 0.004217 0.127856
H34   H     H_    0.066743 0.689148 0.782962 0.123778
C45   C     C_R   0.271089 0.635354 0.262905 0.162300
C46   C     C_R   0.249101 0.586750 0.136231 -0.088750
C47   C     C_R   0.281267 0.635369 0.016178 -0.163240
C48   C     C_R   0.336158 0.731834 0.021723 -0.143127
C49   C     C_R   0.358469 0.780598 0.147289 -0.122037
C50   C     C_R   0.325574 0.733496 0.267475 -0.119527
H35   H     H_    0.206611 0.512107 0.130612 0.151639
H36   H     H_    0.264002 0.597757 0.918943 0.145756
H37   H     H_    0.361471 0.768563 0.928767 0.133736
H38   H     H_    0.400678 0.855746 0.151337 0.136045
H39   H     H_    0.341881 0.774134 0.363883 0.100788
O11   O     O_3   0.113089 0.670167 0.291825 -0.652577
C51   C     C_3   0.111916 0.802088 0.304624 0.080207
H40   H     H_    0.171234 0.841415 0.314433 0.137121
H41   H     H_    0.078218 0.827953 0.395371 0.135896
C52   C     C_3   0.074109 0.860319 0.177255 -0.306340
H42   H     H_    0.105961 0.831860 0.085633 0.230247
H43   H     H_    0.014052 0.824974 0.168373 0.213136
C53   C     C_3   0.073515 0.003564 0.182547 -0.992208
H44   H     H_    0.041380 0.034278 0.272786 0.268359
H45   H     H_    0.045072 0.042572 0.089177 0.262493
H46   H     H_    0.133139 0.041269 0.187829 0.263872

loop_
_geom_bond_atom_site_label_1
_geom_bond_atom_site_label_2
_ccdc_geom_bond_type
C45   C46   A    
O6    Zn2   S    
C29   H10   S    
C11   C13   A    
C32   H13   S    
C47   C48   A    
C49   C50   A    
O4    Zn2   S    
C7    C8    A    
C42   C43   A    
C51   H41   S    
C11   C19   S    
C23   O5    A    
C40   C41   A    
C18   H3    S    
C28   C29   A    
C43   H33   S    
C25   H8    S    
O5    Zn1   S    
C5    C6    A    
C38   H28   S    
O8    Zn2   S    
C15   C16   A    
C52   H42   S    
C2    C32   A    
C18   C19   S    
C33   H17   S    
C19   H5    S    
C14   H15   S    
C21   H6    S    
C20   C24   A    
O7    Zn1   S    
C8    C9    A    
C50   H39   S    
C13   C14   A    
C1    O1    A    
C15   H2    S    
C49   H38   S    
C21   N1    A    
C40   H30   S    
C21   C22   A    
C27   C30   S    
C33   H16   S    
C36   C37   S    
O11   C51   S    
C12   O3    A    
C26   H11   S    
C7    C12   S    
C51   C52   S    
C31   H12   S    
C35   H20   S    
O1    Zn1   S    
C34   C35   S    
C24   C25   S    
C36   H24   S    
C27   O8    A    
C27   O7    A    
C16   C17   A    
C25   C26   S    
N2    Zn1   S    
O9    C33   S    
C35   H21   S    
C34   H19   S    
C33   C34   S    
C37   H25   S    
C29   C30   A    
C1    O2    A    
C31   C32   A    
C48   C49   A    
C17   C18   S    
C53   H45   S    
C41   C42   A    
C37   H26   S    
C20   N1    A    
O3    Zn1   S    
C22   N2    A    
C28   H1    S    
C16   C23   S    
C1    C13   S    
C41   H31   S    
C4    C10   S    
C3    C4    T    
C22   O10   S    
C44   H34   S    
C43   C44   A    
N1    Zn2   S    
C9    C10   A    
C24   N2    A    
C11   C17   A    
C6    H14   S    
C53   H44   S    
C47   H36   S    
C8    C45   S    
C12   O4    A    
C36   H23   S    
C42   H32   S    
C23   O6    A    
C6    C7    A    
C19   O9    S    
C51   H40   S    
C52   C53   S    
C35   H22   S    
C34   H18   S    
C2    C3    S    
O10   C36   S    
C25   H7    S    
C5    C39   S    
C38   H27   S    
C38   H29   S    
C30   C31   A    
C20   C26   S    
C46   H35   S    
C9    O11   S    
C52   H43   S    
C53   H46   S    
C46   C47   A    
C37   C38   S    
C5    C10   A    
O2    Zn2   S    
C39   C40   A    
C14   C15   A    
C2    C28   A    
C48   H37   S    
C18   H4    S    
C45   C50   A    
C39   C44   A    
C26   H9    S    
