data_mof_unit_16701.cif
_audit_creation_date              2012-12-10T17:39:08-0500
_audit_creation_method            fapswitch 2.2
_symmetry_space_group_name_H-M    P1
_symmetry_Int_Tables_number       1
_space_group_crystal_system       triclinic
_cell_length_a                    12.090619
_cell_length_b                    12.998218
_cell_length_c                    22.883138
_cell_angle_alpha                 90.953755
_cell_angle_beta                  85.359102
_cell_angle_gamma                 92.541936
_cell_volume                      3580.60835347

loop_
_atom_site_label
_atom_site_type_symbol
_atom_type_description
_atom_site_fract_x
_atom_site_fract_y
_atom_site_fract_z
_atom_type_partial_charge
C1    C     C_R   0.519988 0.700408 0.496673 0.902852
C2    C     C_R   0.528542 0.408768 0.295691 -0.263916
C3    C     C_R   0.566215 0.481687 0.767351 0.170631
C4    C     C_R   0.514312 0.399039 0.236262 0.223651
C5    C     C_R   0.471569 0.428754 0.793257 0.141110
C6    C     C_R   0.453899 0.473886 0.209115 -0.023851
C7    C     C_R   0.466969 0.190422 0.502679 -0.098780
C8    C     C_R   0.527419 0.812115 0.491911 -0.077862
C9    C     C_R   0.641999 0.966560 0.501029 -0.163899
C10   C     C_R   0.357228 0.040774 0.477915 -0.154661
C11   C     C_R   0.631978 0.861543 0.493258 -0.263539
C12   C     C_R   0.479007 0.300471 0.503055 0.911971
C13   C     C_R   0.369255 0.145671 0.483539 -0.207417
C14   C     C_R   0.431786 0.871123 0.487261 0.156212
C15   C     C_R   0.555336 0.130008 0.515573 0.114181
C16   C     C_R   0.497829 0.491823 0.610815 0.941281
C17   C     C_R   0.500842 0.501763 0.389047 0.951131
C18   C     C_R   0.445120 0.978489 0.488539 0.097184
C19   C     C_R   0.548113 0.025207 0.502204 0.096994
C20   C     C_R   0.960554 0.425406 0.433870 0.395789
C21   C     C_R   0.038007 0.535276 0.575031 0.389586
C22   C     C_R   0.843000 0.423460 0.444411 0.127342
C23   C     C_R   0.389372 0.387239 0.758699 0.435769
C24   C     C_R   0.154837 0.549762 0.563407 0.171445
C25   C     C_R   0.856275 0.522483 0.531786 0.604434
C26   C     C_R   0.143855 0.488337 0.465672 0.618121
C27   C     C_R   0.973375 0.511390 0.527736 -0.248174
C28   C     C_R   0.026197 0.475602 0.475113 -0.258243
C29   C     C_R   0.397864 0.354176 0.130857 0.595825
C30   C     C_R   0.399689 0.511493 0.881855 0.587346
C31   C     C_R   0.344101 0.523611 0.127368 0.572595
C32   C     C_R   0.479276 0.346996 0.886737 0.565038
C33   C     C_R   0.347264 0.520067 0.066195 -0.099056
C34   C     C_R   0.459415 0.574775 0.234790 0.510626
C35   C     C_R   0.450813 0.343156 0.947097 -0.050576
C36   C     C_R   0.387457 0.431727 0.036919 -0.086129
C37   C     C_R   0.405404 0.430266 0.975600 -0.065066
C38   C     C_R   0.406489 0.343975 0.069483 -0.126333
C39   C     C_R   0.381387 0.516999 0.943188 -0.147174
C40   C     C_R   0.319505 0.604602 0.034161 -0.247515
C41   C     C_R   0.467055 0.254901 0.979395 -0.275102
C42   C     C_R   0.340583 0.605809 0.973224 0.512183
C43   C     C_R   0.438815 0.252354 0.040152 0.519161
C44   C     C_3   0.207603 0.579723 0.383689 0.103911
C45   C     C_R   0.398176 0.405314 0.698297 0.071163
C46   C     C_3   0.101375 0.640528 0.379885 -0.497860
C47   C     C_3   0.123239 0.732193 0.339067 -0.792934
C48   C     C_3   0.804072 0.684618 0.558962 0.081228
C49   C     C_3   0.890808 0.755191 0.586597 -0.441917
C50   C     C_3   0.884025 0.866890 0.568330 -0.867565
C51   C     C_3   0.005943 0.389776 0.335120 0.124595
C52   C     C_3   0.009945 0.295908 0.293898 -0.304283
C53   C     C_3   0.008833 0.327312 0.229964 -0.899056
C54   C     C_3   0.975681 0.575511 0.672144 0.131030
C55   C     C_3   0.016852 0.542182 0.730160 -0.298633
C56   C     C_R   0.474998 0.585388 0.294586 -0.003487
C57   C     C_3   0.012792 0.629522 0.775586 -0.855186
C58   C     C_3   0.422661 0.752661 0.931986 0.175466
C59   C     C_3   0.448311 0.824510 0.983385 -0.466224
C60   C     C_3   0.550290 0.894992 0.967395 -0.913745
C61   C     C_3   0.387616 0.081854 0.057313 0.088649
C62   C     C_3   0.270911 0.090438 0.088267 -0.332229
C63   C     C_3   0.196091 0.997042 0.074390 -0.932675
C64   C     C_3   0.301704 0.234827 0.787740 0.091888
C65   C     C_3   0.185567 0.183969 0.798217 -0.313377
C66   C     C_3   0.190314 0.067203 0.802432 -0.914762
C67   C     C_R   0.490183 0.465251 0.672907 -0.179564
C68   C     C_3   0.546787 0.674428 0.160836 0.097647
C69   C     C_3   0.646675 0.726678 0.188204 -0.354034
C70   C     C_3   0.743810 0.745753 0.142287 -0.907091
C71   C     C_R   0.500521 0.498932 0.325802 -0.187533
C72   C     C_R   0.575411 0.499306 0.707337 -0.250436
H1    H     H_    0.288613 0.673021 0.056470 0.197335
H2    H     H_    0.267571 0.627574 0.407505 0.210372
H3    H     H_    0.033436 0.591625 0.363292 0.211589
H4    H     H_    0.072260 0.669750 0.424126 0.228249
H5    H     H_    0.191089 0.783970 0.354007 0.294619
H6    H     H_    0.046853 0.776508 0.338826 0.256586
H7    H     H_    0.146730 0.705080 0.293641 0.280459
H8    H     H_    0.721321 0.712199 0.574948 0.192423
H9    H     H_    0.814636 0.693541 0.510328 0.123006
H10   H     H_    0.876133 0.752473 0.635050 0.227936
H11   H     H_    0.975368 0.730022 0.572554 0.230763
H12   H     H_    0.502190 0.187761 0.957672 0.191759
H13   H     H_    0.897295 0.873454 0.519910 0.261227
H14   H     H_    0.949483 0.914947 0.588406 0.286921
H15   H     H_    0.801896 0.896547 0.583814 0.267949
H16   H     H_    0.080295 0.439599 0.322348 0.183438
H17   H     H_    0.930657 0.433224 0.328381 0.120471
H18   H     H_    0.086909 0.254436 0.299210 0.243381
H19   H     H_    0.937597 0.242345 0.305264 0.251803
H20   H     H_    0.931564 0.367281 0.223328 0.278781
H21   H     H_    0.012152 0.257599 0.201268 0.273376
H22   H     H_    0.082022 0.379160 0.217151 0.271833
H23   H     H_    0.647006 0.543299 0.688017 0.205413
H24   H     H_    0.884550 0.583961 0.679039 0.190714
H25   H     H_    0.014155 0.651872 0.660145 0.127449
H26   H     H_    0.964417 0.475314 0.747450 0.247198
H27   H     H_    0.103799 0.517590 0.722800 0.273953
H28   H     H_    0.070688 0.694302 0.760671 0.274729
H29   H     H_    0.038155 0.601326 0.817839 0.290984
H30   H     H_    0.927420 0.657850 0.782672 0.271532
H31   H     H_    0.413144 0.800437 0.893036 0.194083
H32   H     H_    0.494647 0.703468 0.920015 0.141916
H33   H     H_    0.375638 0.872027 0.995496 0.237100
H34   H     H_    0.563947 0.346913 0.317966 0.204835
H35   H     H_    0.464656 0.778350 0.021913 0.216375
H36   H     H_    0.623064 0.848625 0.953478 0.277662
H37   H     H_    0.570667 0.942654 0.006068 0.270427
H38   H     H_    0.533893 0.946977 0.931326 0.270309
H39   H     H_    0.423272 0.011051 0.072983 0.183303
H40   H     H_    0.382916 0.071334 0.009179 0.115761
H41   H     H_    0.276685 0.095608 0.136445 0.275128
H42   H     H_    0.232793 0.161070 0.073932 0.213711
H43   H     H_    0.187547 0.991009 0.026462 0.267142
H44   H     H_    0.112400 0.005269 0.097346 0.277382
H45   H     H_    0.301591 0.191833 0.472485 0.199130
H46   H     H_    0.231150 0.925367 0.089391 0.272519
H47   H     H_    0.350068 0.215602 0.824859 0.178465
H48   H     H_    0.342598 0.202053 0.746513 0.158415
H49   H     H_    0.144370 0.214738 0.839660 0.234668
H50   H     H_    0.135125 0.202599 0.761594 0.256079
H51   H     H_    0.229132 0.034498 0.760935 0.277620
H52   H     H_    0.104785 0.032763 0.810226 0.274591
H53   H     H_    0.239030 0.046740 0.839392 0.263086
H54   H     H_    0.522512 0.724179 0.125412 0.168317
H55   H     H_    0.570671 0.600273 0.139248 0.116729
H56   H     H_    0.706378 0.819007 0.490599 0.165399
H57   H     H_    0.622329 0.801504 0.208437 0.264338
H58   H     H_    0.673775 0.677049 0.222986 0.226259
H59   H     H_    0.770729 0.671671 0.122156 0.269975
H60   H     H_    0.814786 0.783572 0.163387 0.274770
H61   H     H_    0.719504 0.796835 0.107479 0.268013
H62   H     H_    0.724121 0.001254 0.504640 0.185805
H63   H     H_    0.279618 0.011331 0.462920 0.191169
H64   H     H_    0.246385 0.568325 0.338528 0.191173
I1    I     I_    0.238048 0.648434 0.623165 -0.303550
I2    I     I_    0.750465 0.314365 0.395243 -0.304327
I3    I     I_    0.270660 0.335941 0.648656 -0.288716
I4    I     I_    0.470593 0.734168 0.334739 -0.373202
I5    I     I_    0.692283 0.543554 0.818384 -0.393123
I6    I     I_    0.626104 0.297435 0.190099 -0.272923
I7    I     I_    0.689506 0.189904 0.564946 -0.294131
I8    I     I_    0.263210 0.807947 0.483554 -0.422903
N1    N     N_R   0.397517 0.450666 0.155795 -0.334782
N2    N     N_R   0.450841 0.429067 0.855528 -0.321370
N3    N     N_R   0.207800 0.519350 0.510590 -0.181448
N4    N     N_R   0.792200 0.480650 0.489410 -0.184240
O1    O     O_R   0.421690 0.658830 0.502820 -0.576828
O2    O     O_2   0.366793 0.587180 0.848405 -0.514537
O3    O     O_2   0.285876 0.595980 0.157534 -0.519946
O4    O     O_2   0.534607 0.269692 0.859328 -0.573627
O5    O     O_3   0.191042 0.480208 0.408960 -0.608366
O6    O     O_3   0.808014 0.581034 0.577156 -0.625598
O7    O     O_3   0.010495 0.356856 0.393595 -0.574823
O8    O     O_3   0.996736 0.497624 0.629463 -0.578532
O9    O     O_3   0.321206 0.695075 0.944186 -0.606875
O10   O     O_3   0.459008 0.166137 0.071919 -0.579094
O11   O     O_3   0.292329 0.342692 0.785254 -0.624033
O12   O     O_R   0.578310 0.341170 0.497180 -0.572802
O13   O     O_3   0.454326 0.663944 0.202875 -0.570964
O14   O     O_R   0.609320 0.646410 0.496030 -0.653760
O15   O     O_R   0.390680 0.353590 0.503970 -0.607204
O16   O     O_R   0.406170 0.506240 0.587240 -0.570961
O17   O     O_R   0.593830 0.493760 0.412760 -0.600470
O18   O     O_R   0.593790 0.493820 0.580450 -0.571258
O19   O     O_R   0.406210 0.506180 0.419550 -0.593083
O20   O     O_2   0.386604 0.270336 0.164978 -0.503806
Zn1   Zn    Zn3+2 0.374720 0.508290 0.504530 1.033350
Zn2   Zn    Zn3+2 0.625280 0.491710 0.495470 1.011882

loop_
_geom_bond_atom_site_label_1
_geom_bond_atom_site_label_2
_ccdc_geom_bond_type
C44   H64   S    
C34   C56   A    
C23   C45   A    
C20   O7    S    
C1    C8    S    
C14   C18   A    
C52   H18   S    
C3    I5    S    
C47   H7    S    
C34   O13   S    
C46   H4    S    
O19   Zn1   S    
C68   O13   S    
C16   O16   A    
C15   C19   A    
C57   H30   S    
C51   O7    S    
C59   H33   S    
C64   H47   S    
O1    Zn1   S    
C44   O5    S    
C29   O20   S    
C36   C37   A    
C35   C37   A    
C62   H42   S    
C54   O8    S    
C56   I4    S    
C30   O2    S    
C32   N2    A    
C45   I3    S    
C33   C36   A    
C48   H9    S    
C55   H26   S    
C18   C19   A    
C26   N3    A    
C49   C50   S    
C60   H37   S    
C50   H13   S    
C46   C47   S    
C72   H23   S    
C9    C19   A    
C16   O18   A    
C69   H58   S    
O14   Zn2   S    
C29   C38   A    
C45   C67   A    
C70   H61   S    
N4    Zn2   S    
C31   C33   A    
C54   H25   S    
C1    O1    A    
C26   O5    S    
C65   H49   S    
C54   H24   S    
C32   O4    S    
C60   H36   S    
C63   H43   S    
C9    H62   S    
C43   O10   S    
C40   C42   A    
C53   H22   S    
C59   C60   S    
C41   C43   A    
O16   Zn1   S    
C61   C62   S    
C35   C41   A    
C46   H3    S    
C44   C46   S    
C30   N2    A    
C39   C42   A    
C7    C12   S    
C14   I8    S    
C33   C40   A    
C53   H21   S    
C51   C52   S    
C32   C35   A    
C67   C72   A    
C10   H63   S    
C62   H41   S    
C4    C6    A    
C17   O19   A    
C24   N3    A    
C63   H46   S    
C68   C69   S    
C20   C28   A    
C58   C59   S    
C57   H28   S    
C58   O9    S    
C59   H35   S    
C6    C34   A    
C23   O11   S    
C49   H10   S    
C2    C4    A    
C62   C63   S    
C31   O3    S    
C5    C23   A    
C56   C71   A    
C53   H20   S    
C70   H60   S    
C16   C67   S    
C65   H50   S    
C12   O12   A    
C44   H2    S    
C9    C11   A    
C68   H55   S    
C50   H15   S    
C15   I7    S    
C63   H44   S    
C48   C49   S    
C22   N4    A    
C1    O14   A    
O18   Zn2   S    
C55   C57   S    
C66   H52   S    
C42   O9    S    
C58   H32   S    
C47   H5    S    
C2    C71   A    
C61   H39   S    
C68   H54   S    
C52   C53   S    
O17   Zn2   S    
C6    N1    S    
C48   O6    S    
C54   C55   S    
C8    C14   A    
C5    N2    S    
C25   O6    S    
C20   C22   A    
C3    C5    A    
C10   C13   A    
C51   H16   S    
C13   H45   S    
C17   C71   S    
C24   I1    S    
C25   C27   A    
C57   H29   S    
C22   I2    S    
C26   C28   A    
C64   H48   S    
C66   H53   S    
C64   C65   S    
C49   H11   S    
C36   C38   A    
C3    C72   A    
C38   C43   A    
C37   C39   A    
C17   O17   A    
C61   O10   S    
C51   H17   S    
C12   O15   A    
C4    I6    S    
C41   H12   S    
C48   H8    S    
C10   C18   A    
C8    C11   A    
C64   O11   S    
C7    C15   A    
C70   H59   S    
C21   O8    S    
C2    H34   S    
C30   C39   A    
C11   H56   S    
C25   N4    A    
C21   C27   A    
C69   C70   S    
O15   Zn1   S    
C60   H38   S    
C50   H14   S    
C31   N1    A    
C7    C13   A    
C69   H57   S    
C65   C66   S    
C21   C24   A    
C55   H27   S    
C27   C28   A    
O12   Zn2   S    
C66   H51   S    
C52   H19   S    
C58   H31   S    
C47   H6    S    
C40   H1    S    
C61   H40   S    
N3    Zn1   S    
C29   N1    A    
