data_mof_unit_58854.cif
_audit_creation_date              2013-03-05T16:20:08-0500
_audit_creation_method            fapswitch 2.2
_symmetry_space_group_name_H-M    P1
_symmetry_Int_Tables_number       1
_space_group_crystal_system       triclinic
_cell_length_a                    8.188507
_cell_length_b                    18.819676
_cell_length_c                    26.953172
_cell_angle_alpha                 99.670186
_cell_angle_beta                  92.50903
_cell_angle_gamma                 88.110886
_cell_volume                      4089.29227471

loop_
_atom_site_label
_atom_site_type_symbol
_atom_site_description
_atom_site_fract_x
_atom_site_fract_y
_atom_site_fract_z
_atom_type_partial_charge
P1    P     P_3+3 0.929380 0.335110 0.452880 0.463916
O1    O     O_2   0.106080 0.324280 0.466820 -0.375945
O2    O     O_3   0.859130 0.413620 0.470620 -0.385225
O3    O     O_3   0.376230 0.370290 0.556910 -0.383194
O4    O     O_2   0.242394 0.244123 0.523123 -0.399226
O5    O     O_3   0.921144 0.312838 0.387222 -0.575401
O6    O     O_3   0.365620 0.257752 0.614480 -0.540609
H1    H     H_    0.410012 0.362854 0.648857 0.138454
C1    C     C_3   0.432720 0.290054 0.701845 -0.878392
H2    H     H_    0.300690 0.292912 0.710152 0.272505
H3    H     H_    0.483004 0.235244 0.704578 0.253747
P2    P     P_3+3 0.398530 0.559060 0.613740 0.494080
P3    P     P_3+3 0.967720 0.417311 0.648755 0.467556
O7    O     O_2   0.227190 0.537650 0.620070 -0.379619
O8    O     O_3   0.971110 0.406970 0.583250 -0.386103
O9    O     O_2   0.141221 0.439165 0.669476 -0.405851
O10   O     O_3   0.391553 0.652868 0.631385 -0.517420
O11   O     O_3   0.943063 0.332977 0.666594 -0.514498
C2    C     C_3   0.940793 0.279680 0.623345 0.469490
H4    H     H_    0.055224 0.279546 0.602809 0.173189
H5    H     H_    0.834469 0.288801 0.598097 0.031638
C3    C     C_3   0.926125 0.206042 0.638603 -0.959544
H6    H     H_    0.927389 0.163521 0.604641 0.227256
H7    H     H_    0.030567 0.195764 0.664385 0.277902
C4    C     C_3   0.841188 0.635657 0.636713 0.218082
H8    H     H_    0.711167 0.624390 0.626480 0.109217
H9    H     H_    0.918326 0.586210 0.626296 0.086246
C5    C     C_3   0.861534 0.661660 0.693560 -0.095402
H10   H     H_    0.818169 0.621058 0.715028 0.064406
H11   H     H_    0.994132 0.669567 0.703522 0.144498
Ba1   Ba    Ba6+2 0.160810 0.465630 0.521640 1.547489
C6    C     C_3   0.979521 0.368595 0.365507 0.408573
H12   H     H_    0.093536 0.389642 0.385098 0.110002
H13   H     H_    0.885261 0.412472 0.367036 0.102503
C7    C     C_3   0.013894 0.338220 0.310804 -0.929818
H14   H     H_    0.099599 0.290944 0.309059 0.281670
H15   H     H_    0.070176 0.378828 0.292161 0.227467
H16   H     H_    0.898112 0.321005 0.289898 0.255354
C8    C     C_3   0.330243 0.684997 0.591118 0.439669
H17   H     H_    0.206147 0.665793 0.579972 0.085240
H18   H     H_    0.410714 0.672679 0.558557 0.124298
C9    C     C_3   0.322209 0.766247 0.608186 -0.920759
H19   H     H_    0.234748 0.780172 0.638902 0.283487
H20   H     H_    0.281479 0.793952 0.576475 0.199753
H21   H     H_    0.445130 0.785593 0.622201 0.272427
P4    P     P_3+3 0.880940 0.664900 0.547160 0.479521
O12   O     O_2   0.704230 0.675760 0.533200 -0.373975
O13   O     O_3   0.951180 0.586390 0.529420 -0.384907
O14   O     O_3   0.434080 0.629720 0.443130 -0.373982
O15   O     O_3   0.892542 0.690424 0.612595 -0.559404
P5    P     P_3+3 0.833382 0.584853 0.351071 0.469606
O16   O     O_3   0.351080 0.462080 0.440130 -0.391415
O17   O     O_3   0.839200 0.593040 0.416790 -0.389841
O18   O     O_2   0.658613 0.562199 0.332259 -0.395044
O19   O     O_3   0.849026 0.670033 0.333763 -0.519057
Ba2   Ba    Ba6+2 0.649380 0.534380 0.478400 1.549819
P6    P     P_3+3 0.392303 0.277106 0.554181 0.420186
C10   C     C_3   0.455223 0.306745 0.649409 0.392682
H22   H     H_    0.587484 0.302146 0.641569 0.057849
H23   H     H_    0.497671 0.330078 0.730000 0.257466
O20   O     O_3   0.459240 0.537930 0.559910 -0.397786
C11   C     C_3   0.470135 0.313802 0.397076 0.450520
H24   H     H_    0.596434 0.332157 0.407072 0.101267
H25   H     H_    0.394184 0.325992 0.430746 0.119849
C12   C     C_3   0.476265 0.232539 0.380327 -1.019157
H26   H     H_    0.556102 0.218243 0.347680 0.279261
H27   H     H_    0.526012 0.205642 0.411592 0.219403
H28   H     H_    0.351218 0.212997 0.369293 0.257128
P7    P     P_3+3 0.399719 0.440199 0.376764 0.447204
O21   O     O_2   0.583120 0.462390 0.379940 -0.364144
O22   O     O_3   0.402359 0.346593 0.357550 -0.557656
H29   H     H_    0.809790 0.203611 0.657889 0.261212
C13   C     C_3   0.865137 0.722104 0.377379 0.487857
H30   H     H_    0.760683 0.721230 0.402069 0.173207
H31   H     H_    0.980587 0.712372 0.398354 0.021132
C14   C     C_3   0.868831 0.796486 0.362573 -0.970127
H32   H     H_    0.877023 0.838287 0.396856 0.225685
H33   H     H_    0.976468 0.800158 0.339525 0.259966
H34   H     H_    0.755325 0.806804 0.340496 0.280127
P8    P     P_3+3 0.415982 0.722579 0.444728 0.416611
C15   C     C_3   0.352753 0.696903 0.349469 0.404730
H35   H     H_    0.221756 0.710425 0.356073 0.051064
O23   O     O_2   0.560629 0.756570 0.477947 -0.405492
O24   O     O_3   0.452592 0.740830 0.384734 -0.535698
H36   H     H_    0.377943 0.639024 0.351067 0.130518
H37   H     H_    0.313525 0.674017 0.268657 0.253501
C16   C     C_3   0.389412 0.709534 0.296926 -0.890053
H38   H     H_    0.520448 0.696968 0.289464 0.281929
H39   H     H_    0.361300 0.766629 0.293350 0.250263
C17   C     C_R   0.991430 0.047475 0.475887 0.010996
C18   C     C_R   0.078275 0.094585 0.451856 0.114507
C19   C     C_R   0.226327 0.070635 0.429548 -0.180274
C20   C     C_R   0.287124 0.000589 0.430686 -0.183608
C21   C     C_R   0.199858 0.952617 0.453477 0.126562
C22   C     C_R   0.051577 0.975986 0.476291 0.018078
C23   C     C_R   0.257975 0.881567 0.453095 -0.230098
C24   C     C_R   0.168319 0.831972 0.474157 -0.015486
C25   C     C_R   0.020816 0.855626 0.498257 -0.011103
C26   C     C_R   0.963608 0.928007 0.499371 -0.018196
C27   C     C_R   0.220233 0.759050 0.471257 0.181822
C28   C     C_R   0.123210 0.710615 0.490129 -0.553104
C29   C     C_R   0.982341 0.733196 0.516338 0.278432
C30   C     C_R   0.930814 0.807296 0.521387 -0.050698
C31   C     C_R   0.844018 0.071504 0.498960 -0.018427
C32   C     C_R   0.785983 0.143691 0.499684 -0.011349
C33   C     C_R   0.876666 0.192159 0.476918 -0.043109
C34   C     C_R   0.017680 0.165115 0.450923 -0.132596
H40   H     H_    0.295930 0.106260 0.411446 0.135272
H41   H     H_    0.401951 0.983707 0.413263 0.137782
H42   H     H_    0.162688 0.654637 0.486601 0.179940
H43   H     H_    0.372169 0.865309 0.435343 0.184004
H44   H     H_    0.084420 0.198680 0.430539 0.167593
C35   C     C_R   0.791415 0.834740 0.548095 -0.106455
C36   C     C_R   0.730647 0.905244 0.547095 0.107067
C37   C     C_R   0.816738 0.952169 0.522705 0.010431
C38   C     C_R   0.756238 0.023569 0.522126 0.019279
C39   C     C_R   0.582951 0.929302 0.569589 -0.156428
C40   C     C_R   0.521300 0.999104 0.568029 -0.179178
C41   C     C_R   0.607739 0.046873 0.544825 0.121537
C42   C     C_R   0.637385 0.167118 0.523224 -0.022466
C43   C     C_R   0.548413 0.117621 0.544600 -0.220214
C44   C     C_R   0.583824 0.239745 0.525299 0.197126
C45   C     C_R   0.679277 0.287965 0.505732 -0.547566
C46   C     C_R   0.823830 0.265993 0.481473 0.274196
H45   H     H_    0.725316 0.801381 0.568794 0.173583
H46   H     H_    0.514044 0.893905 0.588058 0.138513
H47   H     H_    0.406473 0.015968 0.585458 0.141589
H48   H     H_    0.433423 0.133635 0.561924 0.185727
H49   H     H_    0.638020 0.343618 0.508287 0.183729
C47   C     C_R   0.297846 0.448265 0.173162 0.525804
O25   O     O_2   0.329559 0.396012 0.193731 -0.587729
N1    N     N_R   0.217228 0.508138 0.199042 -0.164351
C48   C     C_R   0.174314 0.565976 0.174975 0.514682
C49   C     C_2   0.027579 0.524522 0.268480 -0.156834
C50   C     C_3   0.991608 0.519151 0.322557 0.165007
C51   C     C_1   0.279545 0.491685 0.335850 0.266141
C52   C     C_2   0.314951 0.493983 0.288728 -0.196510
C53   C     C_2   0.181634 0.510281 0.251779 0.110341
C54   C     C_R   0.301156 0.505328 0.098249 -0.066561
C55   C     C_R   0.342402 0.446524 0.122946 -0.058280
C56   C     C_R   0.427203 0.386913 0.096998 -0.085182
C57   C     C_R   0.215004 0.565120 0.124431 -0.051887
C58   C     C_2   0.146885 0.524377 0.355190 -0.486262
H50   H     H_    0.439329 0.483543 0.276627 0.176863
H51   H     H_    0.459882 0.340651 0.114863 0.169493
C59   C     C_2   0.656933 0.478630 0.639673 -0.475535
C60   C     C_R   0.482914 0.443504 0.971424 0.042287
C61   C     C_R   0.344885 0.562257 0.971748 0.041134
C62   C     C_R   0.436448 0.502407 0.946500 0.084191
C63   C     C_R   0.577167 0.386144 0.944879 -0.201435
C64   C     C_R   0.621008 0.385902 0.895612 -0.079932
C65   C     C_R   0.574091 0.442915 0.870357 -0.049505
C66   C     C_R   0.482324 0.501467 0.895731 -0.064723
C67   C     C_R   0.437056 0.559192 0.870394 -0.067826
C68   C     C_R   0.483950 0.557713 0.820362 0.533583
N2    N     N_R   0.570897 0.499049 0.795308 -0.165368
C69   C     C_R   0.617184 0.442254 0.820111 0.511192
C70   C     C_2   0.767088 0.481725 0.727725 -0.158410
C71   C     C_3   0.808640 0.484632 0.673861 0.133320
C72   C     C_1   0.522217 0.511995 0.656988 0.285670
C73   C     C_2   0.483393 0.513231 0.704426 -0.183143
C74   C     C_2   0.611975 0.497125 0.742933 0.103862
O26   O     O_2   0.694909 0.390643 0.798324 -0.592690
C75   C     C_R   0.434984 0.443872 0.021793 0.043329
C76   C     C_R   0.345902 0.504270 0.047364 0.083482
C77   C     C_R   0.301192 0.563622 0.022686 0.042687
C78   C     C_R   0.472499 0.385484 0.047735 -0.200671
H52   H     H_    0.865053 0.473336 0.754759 0.167235
H53   H     H_    0.692812 0.340334 0.877275 0.171478
H54   H     H_    0.621093 0.340246 0.961034 0.129363
H55   H     H_    0.536100 0.336961 0.031091 0.129017
O27   O     O_2   0.102257 0.618619 0.197698 -0.592813
C79   C     C_R   0.172514 0.623256 0.099775 -0.082864
H56   H     H_    0.927049 0.533326 0.242406 0.161443
H57   H     H_    0.106394 0.670086 0.118876 0.169219
C80   C     C_R   0.300360 0.618946 0.944846 -0.199458
C81   C     C_R   0.345805 0.617405 0.895532 -0.074158
O28   O     O_2   0.449152 0.609254 0.799355 -0.562546
C82   C     C_R   0.214187 0.622640 0.050207 -0.200130
H58   H     H_    0.229201 0.665760 0.960552 0.131014
H59   H     H_    0.308176 0.662454 0.876988 0.176433
H60   H     H_    0.358543 0.525397 0.715544 0.181494
H61   H     H_    0.176743 0.670103 0.034865 0.129280
H62   H     H_    0.148771 0.552542 0.393848 0.169424
H63   H     H_    0.658605 0.448210 0.601687 0.174215
N3    N     N_R   0.769635 0.729276 0.708344 0.291938
O29   O     O_R   0.846601 0.788515 0.725111 -0.343342
O30   O     O_R   0.610353 0.729773 0.707870 -0.328819

loop_
_geom_bond_atom_site_label_1
_geom_bond_atom_site_label_2
_geom_bond_distance
_ccdc_geom_bond_type
O5    C6    1.391421 S    
C16   H38   1.110799 S    
C76   C77   1.423170 A    
C61   C77   1.429769 A    
C13   H30   1.108662 S    
Ba1   O20   2.900698 S    
C59   H63   1.086267 S    
C2    H4    1.108689 S    
C14   H34   1.110920 S    
O7    Ba1   2.808062 S    
P8    O24   1.748828 S    
C47   C55   1.411977 A    
C15   O24   1.402778 S    
C36   C37   1.409125 A    
C38   C41   1.408929 A    
C70   H52   1.085574 S    
C45   C46   1.394373 A    
C8    H18   1.109220 S    
C4    C5    1.531653 S    
P4    C29   1.876449 S    
C48   C57   1.413928 A    
C61   C80   1.417023 A    
P3    O11   1.754114 S    
C75   C76   1.423132 A    
C30   C35   1.412826 A    
C48   O27   1.222318 D    
C14   H33   1.110811 S    
O11   C2    1.404192 S    
C51   C58   1.314554 D    
C60   C75   1.428456 A    
C26   C37   1.408124 A    
C54   C57   1.409372 A    
C22   C26   1.411387 A    
C59   C72   1.315268 D    
C33   C34   1.412642 A    
C79   C82   1.391390 A    
N1    C53   1.457168 S    
C25   C30   1.426191 A    
P1    Ba1   3.395534 S    
C54   C76   1.431801 A    
P1    O1    1.494972 D    
C34   H44   1.079422 S    
C73   H60   1.084306 S    
P7    O22   1.750428 S    
O10   C8    1.395818 S    
C4    O15   1.392610 S    
C19   C20   1.398389 A    
C11   H25   1.110438 S    
O16   P7    1.748602 S    
H1    C10   1.109661 S    
P6    C44   1.846662 S    
C31   C38   1.411259 A    
P5    C50   1.860265 S    
C19   H40   1.082504 S    
C7    H14   1.110859 S    
N1    C48   1.386033 Am   
C12   H27   1.109931 S    
P2    O10   1.749242 S    
C64   C65   1.399112 A    
C32   C42   1.419788 A    
Ba1   Ba2   4.504853 S    
C8    C9    1.521104 S    
C1    H2    1.111384 S    
C69   O26   1.222160 D    
O6    C10   1.402606 S    
C68   O28   1.222643 D    
C56   H51   1.084276 S    
C21   C23   1.402987 A    
C50   C58   1.510383 S    
C52   C53   1.504322 S    
N2    C74   1.459745 S    
C66   C67   1.408718 A    
C45   H49   1.081820 S    
C13   H31   1.106090 S    
C29   C30   1.429605 A    
C9    H20   1.107658 S    
P8    O23   1.542232 D    
C3    H29   1.110833 S    
C31   C32   1.421687 A    
C42   C44   1.414430 A    
C24   C25   1.419526 A    
C57   C79   1.399520 A    
C82   H61   1.076019 S    
C79   H57   1.084174 S    
C55   C56   1.399095 A    
C23   H43   1.080758 S    
P4    O13   1.572654 S    
C56   C78   1.389907 A    
P1    O5    1.747649 S    
O3    Ba1   2.729879 S    
C28   C29   1.395840 A    
C18   C34   1.405501 A    
C17   C22   1.419002 A    
C7    H16   1.110633 S    
C14   H32   1.109510 S    
C43   H48   1.080728 S    
C8    H17   1.102033 S    
H37   C16   1.108286 S    
C78   H55   1.076035 S    
C59   C71   1.509685 S    
C4    H8    1.106390 S    
C15   H35   1.109301 S    
C6    H12   1.103768 S    
O1    Ba1   2.856689 S    
P1    O2    1.572682 S    
C9    H21   1.110427 S    
C6    H13   1.108448 S    
O3    P6    1.743687 S    
C47   N1    1.385361 Am   
C6    C7    1.523953 S    
C11   H24   1.108774 S    
C5    N3    1.461890 S    
O2    Ba2   2.788009 S    
C12   H28   1.110674 S    
C23   C24   1.411429 A    
C2    C3    1.520162 S    
C40   C41   1.403551 A    
C21   C22   1.408937 A    
Ba2   O20   2.738342 S    
C20   C21   1.403695 A    
P4    O12   1.495260 D    
P2    C72   1.831261 S    
O2    Ba1   2.891599 S    
C1    H3    1.110781 S    
C17   C31   1.408397 A    
C67   C68   1.413755 A    
C15   C16   1.518987 S    
C41   C43   1.403070 A    
C80   C81   1.391284 A    
C52   H50   1.084724 S    
P2    O7    1.497079 D    
C12   H26   1.110539 S    
P7    C51   1.823297 S    
Ba2   O21   2.808407 S    
Ba1   O13   2.787427 S    
P3    O8    1.744830 S    
P2    Ba1   3.373321 S    
C70   C71   1.515811 S    
C13   C14   1.520286 S    
C3    H7    1.110819 S    
C10   H22   1.110311 S    
C9    H19   1.110704 S    
P4    Ba2   3.396129 S    
C60   C63   1.416619 A    
C18   C19   1.403991 A    
C24   C27   1.413721 A    
C42   C43   1.411467 A    
C7    H15   1.105191 S    
C35   C36   1.405787 A    
C39   H46   1.081987 S    
O17   Ba2   2.710585 S    
O13   Ba2   2.892427 S    
C65   C69   1.412340 A    
C5    H10   1.108702 S    
C49   H56   1.085571 S    
C11   C12   1.519932 S    
C60   C62   1.422994 A    
C3    H6    1.110218 S    
C75   C78   1.416959 A    
C51   C52   1.323081 D    
C49   C53   1.361127 D    
C54   C55   1.408929 A    
O14   P8    1.742428 S    
O8    Ba1   2.709977 S    
C49   C50   1.520025 S    
C4    H9    1.110316 S    
O14   Ba2   2.729282 S    
C32   C33   1.425669 A    
P4    O15   1.747574 S    
C64   H53   1.084061 S    
Ba1   O16   2.738986 S    
O4    P6    1.542273 D    
C1    H23   1.106860 S    
C58   H62   1.086491 S    
P5    O18   1.546272 D    
C5    H11   1.115737 S    
C47   O25   1.222923 D    
C28   H42   1.081640 S    
P1    C46   1.871403 S    
C73   C74   1.505531 S    
C39   C40   1.398322 A    
C72   C73   1.327237 D    
P2    O20   1.538386 S    
C17   C18   1.409270 A    
C63   H54   1.075746 S    
C81   H59   1.084082 S    
C62   C66   1.431905 A    
C35   H45   1.079276 S    
C27   C28   1.399904 A    
O6    P6    1.748426 S    
C11   O22   1.403684 S    
P5    O19   1.753237 S    
C61   C62   1.423165 A    
P7    O21   1.566898 D    
C15   H36   1.109541 S    
C36   C39   1.403975 A    
C70   C74   1.358927 D    
O19   C13   1.402739 S    
C67   C81   1.399507 A    
O16   Ba2   2.899801 S    
C80   H58   1.075820 S    
N2    C69   1.387143 Am   
C65   C66   1.408488 A    
C1    C10   1.518514 S    
C25   C26   1.421722 A    
C40   H47   1.083695 S    
P3    O9    1.546408 D    
C33   C46   1.428541 A    
C68   N2    1.386226 Am   
C44   C45   1.398659 A    
C16   H39   1.110572 S    
C63   C64   1.389916 A    
C77   C82   1.417305 A    
P5    O17   1.750711 S    
N3    O29   1.302481 A    
N3    O30   1.303530 A    
P3    C71   1.854794 S    
P8    C27   1.847861 S    
C37   C38   1.419057 A    
C20   H41   1.083697 S    
O12   Ba2   2.857137 S    
C2    H5    1.108187 S    
