data_mof_unit_45805.cif
_audit_creation_date              2013-03-05T16:31:21-0500
_audit_creation_method            fapswitch 2.2
_symmetry_space_group_name_H-M    P1
_symmetry_Int_Tables_number       1
_space_group_crystal_system       triclinic
_cell_length_a                    9.63573
_cell_length_b                    10.886164
_cell_length_c                    13.343852
_cell_angle_alpha                 92.820004
_cell_angle_beta                  73.8744
_cell_angle_gamma                 88.428376
_cell_volume                      1341.78632277

loop_
_atom_site_label
_atom_site_type_symbol
_atom_site_description
_atom_site_fract_x
_atom_site_fract_y
_atom_site_fract_z
_atom_type_partial_charge
O1    O     O_R   0.381190 0.680360 0.500000 -0.584032
O2    O     O_R   0.618780 0.680320 0.499990 -0.599394
C1    C     C_R   0.497427 0.737309 0.503200 0.785847
O3    O     O_R   0.323230 0.500000 0.650990 -0.585172
O4    O     O_R   0.560820 0.499960 0.650980 -0.524841
C2    C     C_R   0.424808 0.496248 0.700509 0.793902
Cu1   Cu    Cu3+1 0.359330 0.500020 0.500010 0.965671
Cu2   Cu    Cu3+1 0.640670 0.499980 0.499990 0.958415
O5    O     O_R   0.381220 0.319680 0.500010 -0.573810
O6    O     O_R   0.618810 0.319640 0.500000 -0.583103
O7    O     O_R   0.439180 0.500040 0.349020 -0.534602
O8    O     O_R   0.676770 0.500000 0.349010 -0.584678
C3    C     C_R   0.500553 0.262370 0.504722 0.785746
C4    C     C_R   0.575449 0.515153 0.302361 0.787830
C5    C     C_R   0.788219 0.620182 0.040250 -0.187537
H1    H     H_    0.837355 0.592981 0.185004 0.151435
H2    H     H_    0.848815 0.569981 0.839453 0.150659
H3    H     H_    0.896595 0.642471 0.999403 0.125553
C6    C     C_R   0.613700 0.556601 0.194996 -0.059832
C7    C     C_R   0.241364 0.497660 0.872832 -0.253630
C8    C     C_R   0.192742 0.546342 0.975258 -0.179208
C9    C     C_R   0.287095 0.603295 0.023849 0.179224
C10   C     C_R   0.438007 0.580191 0.979171 -0.035146
C11   C     C_R   0.489626 0.531674 0.873435 -0.044530
C12   C     C_R   0.540051 0.592789 0.037589 0.055525
C13   C     C_R   0.686634 0.604660 0.984394 0.113808
C14   C     C_R   0.734306 0.574292 0.877932 -0.350119
C15   C     C_R   0.641903 0.510630 0.831443 0.465073
C16   C     C_R   0.505760 0.568872 0.143758 -0.263680
C17   C     C_R   0.753834 0.591735 0.144913 -0.195837
C18   C     C_R   0.386925 0.503000 0.816809 -0.082081
H4    H     H_    0.397228 0.548423 0.184451 0.210324
H5    H     H_    0.163171 0.462232 0.835643 0.160824
H6    H     H_    0.080170 0.543082 0.016510 0.139900
C19   C     C_R   0.373813 0.940617 0.508123 0.119904
C20   C     C_R   0.491715 0.870538 0.516597 -0.147526
C21   C     C_R   0.605205 0.930277 0.542511 -0.198070
H7    H     H_    0.690366 0.874203 0.557597 0.176914
C22   C     C_R   0.614095 0.059265 0.541821 0.121717
C23   C     C_R   0.499266 0.128979 0.519160 -0.177829
C24   C     C_R   0.376511 0.067251 0.512047 0.119223
C25   C     C_3   0.297982 0.075345 0.431139 -0.467812
C26   C     C_3   0.300222 0.936712 0.423176 -0.477726
H8    H     H_    0.187439 0.116610 0.466391 0.188384
H9    H     H_    0.364254 0.115367 0.359565 0.186647
H10   H     H_    0.189313 0.902356 0.445932 0.186818
H11   H     H_    0.370982 0.895702 0.347616 0.200907
C27   C     C_R   0.945871 0.402840 0.456417 0.154507
N1    N     N_R   0.852320 0.499070 0.499340 -0.173999
C28   C     C_R   0.898351 0.587345 0.555319 -0.054786
H12   H     H_    0.819869 0.658063 0.597646 0.135370
C29   C     C_R   0.046173 0.591412 0.554632 0.200920
N2    N     N_R   0.148230 0.499110 0.499340 -0.175631
C30   C     C_R   0.091485 0.401112 0.457222 0.140786
C31   C     C_3   0.133927 0.337612 0.348859 0.277759
C32   C     C_3   0.976059 0.347247 0.348823 -0.546522
H13   H     H_    0.172504 0.241381 0.348275 0.073207
H14   H     H_    0.954040 0.413475 0.293656 0.221330
H15   H     H_    0.928594 0.256242 0.344456 0.148919
C33   C     C_3   0.747828 0.119470 0.558172 -0.336211
C34   C     C_3   0.859305 0.034934 0.586648 -0.950130
H16   H     H_    0.951015 0.088915 0.595952 0.254991
H17   H     H_    0.810106 0.991853 0.661343 0.257519
H18   H     H_    0.905019 0.963260 0.522925 0.249819
H19   H     H_    0.805254 0.160499 0.484828 0.215028
H20   H     H_    0.712455 0.193551 0.620859 0.235137
C35   C     C_3   0.079185 0.708978 0.609198 -0.363521
C36   C     C_3   0.109071 0.693565 0.714319 -0.743871
H21   H     H_    0.080509 0.601392 0.742088 0.234459
H22   H     H_    0.224018 0.710179 0.708457 0.252022
H23   H     H_    0.043046 0.762351 0.774160 0.209530
H24   H     H_    0.160309 0.761177 0.557395 0.223267
H25   H     H_    0.985359 0.776188 0.625723 0.146747
O9    O     O_3   0.222988 0.404659 0.270420 -0.586879
C37   C     C_3   0.256776 0.333825 0.173604 0.027940
H26   H     H_    0.266481 0.398124 0.111370 0.178838
H27   H     H_    0.169943 0.271453 0.165561 0.127482
C38   C     C_3   0.400429 0.259618 0.153707 -0.344675
H28   H     H_    0.480000 0.314539 0.180561 0.232879
H29   H     H_    0.382142 0.175316 0.197920 0.192929
C39   C     C_3   0.463759 0.221289 0.037927 -0.917088
H30   H     H_    0.386374 0.165241 0.009294 0.257696
H31   H     H_    0.565763 0.165520 0.026560 0.249200
H32   H     H_    0.488247 0.303777 0.991374 0.260221
C40   C     C_3   0.222965 0.689452 0.119964 -0.423862
C41   C     C_3   0.135023 0.797171 0.095636 -0.837839
H33   H     H_    0.202120 0.846872 0.029713 0.257504
H34   H     H_    0.037713 0.764825 0.075447 0.246155
H35   H     H_    0.098921 0.862398 0.165421 0.240986
H36   H     H_    0.152875 0.637521 0.183021 0.217365
H37   H     H_    0.307908 0.731971 0.149871 0.215398
O10   O     O_3   0.698713 0.414286 0.757892 -0.589919
C42   C     C_3   0.774298 0.324021 0.798506 0.027681
H38   H     H_    0.726649 0.233758 0.789973 0.161069
H39   H     H_    0.764657 0.338583 0.883676 0.139907
C43   C     C_3   0.933943 0.316335 0.735776 -0.319267
H40   H     H_    0.942911 0.292597 0.652427 0.215510
H41   H     H_    0.982083 0.406917 0.739872 0.205711
C44   C     C_3   0.020272 0.220910 0.776713 -0.937258
H42   H     H_    0.019148 0.247884 0.858370 0.253664
H43   H     H_    0.134194 0.215157 0.727158 0.262632
H44   H     H_    0.973865 0.128832 0.774628 0.259324

loop_
_geom_bond_atom_site_label_1
_geom_bond_atom_site_label_2
_geom_bond_distance
_ccdc_geom_bond_type
C5    H3    1.075745 S    
C31   C32   1.522058 S    
C42   H38   1.109989 S    
C24   C25   1.485067 S    
C19   C20   1.384828 A    
C39   H30   1.111099 S    
C40   H37   1.107916 S    
Cu1   Cu2   2.710830 S    
N2    C30   1.377183 A    
C27   C30   1.405741 A    
C13   C14   1.386147 A    
C20   C21   1.401905 A    
C16   H4    1.071114 S    
O4    C2    1.296312 A    
O7    C4    1.306376 A    
C41   H34   1.106737 S    
C26   H10   1.107703 S    
H1    C17   1.083088 S    
C43   C44   1.526550 S    
Cu1   O5    1.968749 S    
C35   H24   1.083811 S    
C9    C40   1.521864 S    
C34   H17   1.110785 S    
O5    C3    1.311503 A    
C3    C23   1.474145 S    
C31   O9    1.405454 S    
C36   H21   1.102266 S    
C43   H41   1.106528 S    
C28   C29   1.423776 A    
C10   C11   1.428113 A    
C35   H25   1.112838 S    
C19   C26   1.494287 S    
C2    C18   1.489847 S    
C33   H20   1.107447 S    
C42   H39   1.117223 S    
C8    C9    1.396489 A    
C25   H8    1.110074 S    
O3    Cu1   1.946944 S    
C39   H31   1.110423 S    
C12   C16   1.401781 A    
O9    C37   1.422740 S    
C35   C36   1.524327 S    
H2    C14   1.078592 S    
O3    C2    1.325152 A    
C22   C23   1.433188 A    
C41   H33   1.111149 S    
C5    C13   1.394330 A    
C8    H6    1.073884 S    
C12   C13   1.406283 A    
C40   C41   1.527839 S    
O6    C3    1.301556 A    
C33   C34   1.533636 S    
O1    C1    1.304871 A    
C25   H9    1.107793 S    
C34   H18   1.110704 S    
Cu1   O7    1.946870 S    
C37   H26   1.098175 S    
C21   H7    1.078373 S    
C44   H42   1.111489 S    
Cu2   O8    1.946944 S    
C43   H40   1.108299 S    
C28   H12   1.082391 S    
C15   O10   1.389857 S    
C37   H27   1.116464 S    
C29   C35   1.525985 S    
C7    H5    1.080502 S    
Cu2   O6    1.980217 S    
C23   C24   1.399767 A    
C44   H43   1.111358 S    
O8    C4    1.306409 A    
C33   H19   1.104199 S    
C42   C43   1.531276 S    
C31   H13   1.100862 S    
C25   C26   1.506826 S    
Cu1   N2    2.036898 S    
C6    C16   1.401235 A    
C39   H32   1.110408 S    
C29   N2    1.410986 A    
C5    C17   1.395472 A    
C27   C32   1.478180 S    
C30   C31   1.514472 S    
C27   N1    1.356615 A    
O1    Cu1   1.980217 S    
C4    C6    1.473564 S    
O2    Cu2   1.968749 S    
C11   C15   1.425357 A    
C41   H35   1.110766 S    
O4    Cu2   1.946870 S    
C40   H36   1.111659 S    
C32   H15   1.108169 S    
O2    C1    1.297612 A    
C11   C18   1.434150 A    
C21   C22   1.409459 A    
C38   H28   1.109238 S    
C38   C39   1.527174 S    
C1    C20   1.450224 S    
C36   H23   1.111731 S    
C22   C33   1.525159 S    
O10   C42   1.422024 S    
C32   H14   1.112341 S    
C38   H29   1.107134 S    
C10   C12   1.419830 A    
C34   H16   1.106299 S    
C19   C24   1.378210 A    
C37   C38   1.533791 S    
C44   H44   1.110962 S    
C7    C8    1.388446 A    
C36   H22   1.108993 S    
N1    C28   1.347205 A    
C14   C15   1.398665 A    
C9    C10   1.420162 A    
C6    C17   1.403002 A    
C26   H11   1.112628 S    
Cu2   N1    2.036760 S    
C7    C18   1.398498 A    
