data_mof_unit_21972.cif
_audit_creation_date              2012-12-10T19:01:24-0500
_audit_creation_method            fapswitch 2.2
_symmetry_space_group_name_H-M    P1
_symmetry_Int_Tables_number       1
_space_group_crystal_system       triclinic
_cell_length_a                    9.55171
_cell_length_b                    10.844601
_cell_length_c                    15.528953
_cell_angle_alpha                 89.119004
_cell_angle_beta                  73.931922
_cell_angle_gamma                 90.726725
_cell_volume                      1545.29491563

loop_
_atom_site_label
_atom_site_type_symbol
_atom_type_description
_atom_site_fract_x
_atom_site_fract_y
_atom_site_fract_z
_atom_type_partial_charge
C1    C     C_R   0.997648 0.262367 0.503394 0.809605
C2    C     C_R   0.676911 0.467937 0.909531 0.071554
C3    C     C_R   0.777880 0.501105 0.957564 0.168082
C4    C     C_R   0.529081 0.439720 0.956996 0.072416
C5    C     C_R   0.482276 0.456069 0.051247 0.084437
C6    C     C_R   0.588203 0.483922 0.096643 -0.195263
C7    C     C_R   0.732424 0.507265 0.050440 -0.150858
C8    C     C_R   0.426886 0.394629 0.913809 -0.227368
C9    C     C_R   0.281726 0.373796 0.960477 -0.187399
C10   C     C_R   0.231029 0.400489 0.051459 0.062846
C11   C     C_R   0.331115 0.443782 0.097099 0.033680
C12   C     C_R   0.917745 0.499347 0.672067 0.821310
C13   C     C_R   0.081897 0.383444 0.097580 0.466590
C14   C     C_R   0.030874 0.422281 0.186910 -0.300604
C15   C     C_R   0.276327 0.477223 0.186766 -0.252302
C16   C     C_R   0.112389 0.065759 0.522499 0.210475
C17   C     C_R   0.989685 0.129726 0.517786 -0.142412
C18   C     C_R   0.856353 0.064549 0.536356 -0.301372
C19   C     C_R   0.852133 0.935087 0.544552 -0.015229
C20   C     C_R   0.986475 0.870190 0.525804 -0.133438
C21   C     C_R   0.111472 0.939140 0.525094 0.096973
C22   C     C_3   0.266441 0.935042 0.470192 -0.551446
C23   C     C_R   0.996664 0.737513 0.507341 0.826221
C24   C     C_3   0.266972 0.075241 0.466373 -0.200477
C25   C     C_R   0.608426 0.540687 0.426207 0.198150
C26   C     C_R   0.542292 0.448763 0.569142 -0.028805
C27   C     C_R   0.393613 0.449431 0.569366 -0.024241
C28   C     C_R   0.460266 0.542629 0.426383 0.170802
C29   C     C_3   0.481098 0.673243 0.391425 -0.235526
C30   C     C_3   0.642021 0.665542 0.385065 -0.436229
C31   C     C_R   0.082128 0.493885 0.328113 0.807602
C32   C     C_R   0.872142 0.497203 0.770341 -0.046009
C33   C     C_R   0.128405 0.468247 0.231614 -0.114501
C34   C     C_R   0.923995 0.527933 0.912206 -0.127809
C35   C     C_R   0.971222 0.524739 0.819187 -0.200394
C36   C     C_R   0.726637 0.468934 0.815406 -0.217358
Cu1   Cu    Cu3+1 0.140670 0.499980 0.500000 0.951281
Cu2   Cu    Cu3+1 0.859330 0.500020 0.500000 0.968159
H1    H     H_    0.808872 0.531074 0.087977 0.167764
H2    H     H_    0.755719 0.113934 0.544141 0.166103
H3    H     H_    0.335704 0.898148 0.511119 0.203052
H4    H     H_    0.278616 0.893096 0.403773 0.185230
H5    H     H_    0.277844 0.115044 0.398340 0.123840
H6    H     H_    0.571318 0.408351 0.625761 0.134140
H7    H     H_    0.311917 0.410304 0.626292 0.169031
H8    H     H_    0.346978 0.513130 0.223307 0.164946
H9    H     H_    0.424796 0.735845 0.444077 0.148439
H10   H     H_    0.716909 0.660771 0.316272 0.217918
H11   H     H_    0.676705 0.732164 0.428894 0.196126
H12   H     H_    0.916096 0.414584 0.221926 0.157865
H13   H     H_    0.208445 0.338842 0.923988 0.196232
H14   H     H_    0.001631 0.552430 0.948745 0.152668
H15   H     H_    0.084280 0.546652 0.785491 0.157653
H16   H     H_    0.653452 0.451037 0.775243 0.146149
H17   H     H_    0.564527 0.485471 0.168528 0.158398
H18   H     H_    0.456129 0.371152 0.844022 0.143935
N1    N     N_R   0.648210 0.500930 0.499430 -0.177955
N2    N     N_R   0.352300 0.500890 0.499430 -0.202473
O1    O     O_R   0.118810 0.319640 0.500000 -0.565289
O2    O     O_R   0.881230 0.319680 0.499990 -0.591052
O3    O     O_R   0.055580 0.499970 0.629840 -0.591713
O4    O     O_R   0.818000 0.500010 0.629830 -0.569316
O5    O     O_R   0.118770 0.680320 0.500010 -0.589929
O6    O     O_R   0.881190 0.680360 0.500000 -0.548999
O7    O     O_R   0.182000 0.499990 0.370170 -0.603956
O8    O     O_R   0.944420 0.500030 0.370160 -0.585520
O9    O     O_3   0.987575 0.335774 0.052063 -0.607514
C37   C     C_3   0.902947 0.236928 0.100990 -0.308958
H19   H     H_    0.808123 0.271728 0.153266 0.159479
H20   H     H_    0.968338 0.173639 0.131081 0.161338
H21   H     H_    0.858999 0.182132 0.054303 0.204550
C38   C     C_2   0.705890 0.875243 0.573907 0.391202
H22   H     H_    0.615473 0.915603 0.554414 0.042749
O10   O     O_2   0.682405 0.785948 0.625039 -0.516316
C39   C     C_2   0.370322 0.132259 0.512978 0.412340
H23   H     H_    0.484342 0.144654 0.476625 0.042421
O11   O     O_2   0.328735 0.162992 0.591153 -0.556976
C40   C     C_2   0.444109 0.695725 0.304519 0.352204
H24   H     H_    0.330677 0.696349 0.304585 0.087487
O12   O     O_2   0.538061 0.719626 0.234848 -0.558441

loop_
_geom_bond_atom_site_label_1
_geom_bond_atom_site_label_2
_ccdc_geom_bond_type
C31   O8    A    
C16   C21   A    
C35   H15   S    
C19   C20   A    
C9    H13   S    
C6    H17   S    
C4    C8    A    
C8    H18   S    
C14   C33   A    
C26   H6    S    
C14   H12   S    
C25   C28   A    
C26   C27   A    
Cu1   Cu2   S    
C29   H9    S    
C32   C36   A    
C30   H10   S    
C28   C29   S    
C5    C11   A    
C3    C7    A    
C1    O1    A    
C5    C6    A    
C40   O12   D    
C22   H3    S    
C16   C17   A    
C18   C19   A    
C34   C35   A    
C18   H2    S    
C37   H19   S    
C11   C15   A    
C29   C40   S    
Cu2   O8    S    
C8    C9    A    
Cu1   O7    S    
C31   C33   S    
C9    C10   A    
Cu1   N2    S    
C27   H7    S    
C23   O5    A    
C16   C24   S    
C21   C22   S    
C12   C32   S    
C19   C38   S    
C25   N1    A    
Cu1   O5    S    
Cu2   O6    S    
O9    C37   S    
C32   C35   A    
C38   O10   D    
C1    O2    A    
C40   H24   S    
C38   H22   S    
C3    C34   A    
C27   N2    A    
C2    C4    A    
C39   H23   S    
C29   C30   S    
Cu2   N1    S    
C12   O4    A    
C20   C23   S    
C17   C18   A    
C39   O11   D    
Cu1   O1    S    
Cu2   O2    S    
C23   O6    A    
C30   H11   S    
C22   C24   S    
C13   O9    S    
C2    C36   A    
C25   C30   S    
C31   O7    A    
C34   H14   S    
C4    C5    A    
C10   C13   A    
Cu1   O3    S    
C24   C39   S    
C6    C7    A    
C28   N2    A    
C1    C17   S    
C2    C3    A    
C12   O3    A    
C22   H4    S    
C37   H21   S    
C26   N1    A    
C36   H16   S    
C10   C11   A    
C20   C21   A    
C37   H20   S    
C24   H5    S    
C7    H1    S    
C15   H8    S    
C13   C14   A    
C15   C33   A    
Cu2   O4    S    
