data_mof_unit_66178.cif
_audit_creation_date              2012-10-26T19:36:41-0400
_audit_creation_method            fapswitch 2.2
_symmetry_space_group_name_H-M    P1
_symmetry_Int_Tables_number       1
_space_group_crystal_system       triclinic
_cell_length_a                    17.724521
_cell_length_b                    16.439396
_cell_length_c                    10.742842
_cell_angle_alpha                 90.0
_cell_angle_beta                  90.191112
_cell_angle_gamma                 89.999944
_cell_volume                      3130.23639672

loop_
_atom_site_label
_atom_site_type_symbol
_atom_type_description
_atom_site_fract_x
_atom_site_fract_y
_atom_site_fract_z
_atom_type_partial_charge
C1    C     C_R   0.355205 0.500001 0.499847 0.543649
C2    C     C_1   0.033816 0.500032 0.499907 -0.034545
C3    C     C_R   0.153616 0.573764 0.499606 -0.116348
C4    C     C_R   0.153603 0.426279 0.499633 -0.116376
C5    C     C_R   0.232262 0.573856 0.499576 -0.136858
C6    C     C_R   0.232249 0.426170 0.499603 -0.136704
C7    C     C_R   0.272265 0.500008 0.499664 0.006774
C8    C     C_R   0.499952 0.499877 0.259341 0.547984
C9    C     C_R   0.114399 0.500026 0.499688 0.039135
C10   C     C_R   0.547454 0.828889 0.580171 -0.142749
C11   C     C_R   0.546812 0.171113 0.581190 -0.142914
C12   C     C_3   0.571227 0.543478 0.928561 -0.236649
C13   C     C_R   0.546619 0.743043 0.578754 0.041060
C14   C     C_R   0.545994 0.256957 0.579747 0.040446
C15   C     C_R   0.453320 0.743035 0.421178 0.041087
C16   C     C_R   0.453944 0.256965 0.420185 0.040472
C17   C     C_R   0.452480 0.828881 0.419750 -0.142751
C18   C     C_R   0.453121 0.171121 0.418731 -0.142916
C19   C     C_R   0.499965 0.873057 0.499958 0.024118
C20   C     C_R   0.499965 0.126945 0.499958 0.024224
C21   C     C_1   0.499963 0.962699 0.499954 -0.029736
C22   C     C_1   0.499963 0.037303 0.499954 -0.029763
C23   C     C_R   0.846364 0.573764 0.500410 -0.116341
C24   C     C_R   0.644778 0.500001 0.500150 0.543770
C25   C     C_R   0.500026 0.499877 0.740649 0.547988
C26   C     C_3   0.428758 0.543489 0.071429 -0.236646
C27   C     C_3   0.499967 0.410805 0.071269 -0.231168
C28   C     C_3   0.428786 0.543493 0.927752 -0.232546
C29   C     C_3   0.500001 0.410805 0.928720 -0.231169
C30   C     C_3   0.571200 0.543482 0.072238 -0.232549
C31   C     C_3   0.499969 0.499436 0.121626 0.047641
C32   C     C_3   0.500011 0.499435 0.878364 0.047639
C33   C     C_R   0.846377 0.426278 0.500383 -0.116369
C34   C     C_R   0.767717 0.573856 0.500434 -0.136869
C35   C     C_R   0.767731 0.426170 0.500407 -0.136715
C36   C     C_R   0.727716 0.500008 0.500342 0.006776
C37   C     C_R   0.885581 0.500026 0.500331 0.039133
C38   C     C_1   0.966164 0.500032 0.500114 -0.034547
Cu1   Cu    Cu3+1 0.499980 0.580420 0.499990 0.917725
Cu2   Cu    Cu3+1 0.499980 0.419580 0.499990 0.916977
H1    H     H_    0.427246 0.607363 0.105731 0.121645
H2    H     H_    0.417521 0.290122 0.357100 0.113514
H3    H     H_    0.414943 0.860456 0.356349 0.092689
H4    H     H_    0.416091 0.139546 0.354524 0.092589
H5    H     H_    0.376998 0.512592 0.105915 0.108916
H6    H     H_    0.449257 0.377576 0.105090 0.119521
H7    H     H_    0.377031 0.512615 0.892644 0.112418
H8    H     H_    0.449302 0.377582 0.894312 0.129109
H9    H     H_    0.427302 0.607372 0.893474 0.129620
H10   H     H_    0.550705 0.377569 0.894900 0.119526
H11   H     H_    0.572693 0.607361 0.106517 0.129611
H12   H     H_    0.550662 0.377573 0.105678 0.129105
H13   H     H_    0.622951 0.512595 0.107346 0.112416
H14   H     H_    0.572747 0.607351 0.894259 0.121645
H15   H     H_    0.622981 0.512573 0.894074 0.108920
H16   H     H_    0.876554 0.631085 0.500409 0.106807
H17   H     H_    0.876578 0.368964 0.500360 0.106804
H18   H     H_    0.738338 0.631624 0.500482 0.122845
H19   H     H_    0.738362 0.368396 0.500433 0.123074
H20   H     H_    0.123426 0.631085 0.499610 0.106807
H21   H     H_    0.123402 0.368965 0.499658 0.106803
H22   H     H_    0.261639 0.631625 0.499525 0.122886
H23   H     H_    0.261616 0.368395 0.499574 0.123116
H24   H     H_    0.584989 0.860469 0.643567 0.092690
H25   H     H_    0.583841 0.139533 0.645392 0.092590
H26   H     H_    0.583530 0.709890 0.641069 0.113787
H27   H     H_    0.582420 0.290108 0.642835 0.113499
H28   H     H_    0.416411 0.709877 0.358866 0.113802
N1    N     N_R   0.499970 0.701220 0.499970 -0.216326
N2    N     N_R   0.499970 0.298780 0.499970 -0.216174
O1    O     O_R   0.391240 0.567930 0.499990 -0.505526
O2    O     O_R   0.391240 0.432070 0.499990 -0.504993
O3    O     O_R   0.499970 0.567910 0.317690 -0.508329
O4    O     O_R   0.499970 0.432090 0.317690 -0.510002
O5    O     O_R   0.608730 0.567880 0.500000 -0.505485
O6    O     O_R   0.608730 0.432120 0.500000 -0.504953
O7    O     O_R   0.500000 0.567910 0.682300 -0.508332
O8    O     O_R   0.500000 0.432090 0.682300 -0.510005

loop_
_geom_bond_atom_site_label_1
_geom_bond_atom_site_label_2
_ccdc_geom_bond_type
C30   H11   S    
C28   H7    S    
C27   C29   S    
C35   C36   A    
C23   H16   S    
C1    O1    A    
Cu2   N2    S    
C25   O7    A    
Cu1   O7    S    
C19   C21   S    
C29   C32   S    
C30   C31   S    
C11   C14   A    
C35   H19   S    
C26   H5    S    
C17   C19   A    
C14   H27   S    
Cu1   O5    S    
C18   C20   A    
C13   H26   S    
C3    H20   S    
C25   C32   S    
C26   C31   S    
C21   C22   T    
C12   C32   S    
C14   N2    A    
C29   H10   S    
C15   N1    A    
C30   H13   S    
C11   C20   A    
C1    O2    A    
C29   H8    S    
C27   C31   S    
C25   O8    A    
C28   C32   S    
C16   N2    A    
C4    C6    A    
Cu1   Cu2   S    
C5    C7    A    
C24   O6    A    
C23   C37   A    
C4    H21   S    
C33   C37   A    
Cu2   O6    S    
C6    H23   S    
C17   H3    S    
C37   C38   S    
C3    C9    A    
C18   H4    S    
C28   H9    S    
C2    C38   T    
C10   C19   A    
C23   C34   A    
C8    O4    A    
Cu1   N1    S    
C24   C36   S    
C27   H6    S    
C20   C22   S    
Cu2   O8    S    
C16   H2    S    
C27   H12   S    
C15   C17   A    
C33   H17   S    
Cu2   O2    S    
C12   C30   S    
C1    C7    S    
C8    C31   S    
C10   H24   S    
C3    C5    A    
C10   C13   A    
C24   O5    A    
C6    C7    A    
C26   C28   S    
C13   N1    A    
C15   H28   S    
C8    O3    A    
C33   C35   A    
Cu2   O4    S    
C5    H22   S    
C34   C36   A    
Cu1   O3    S    
C12   H15   S    
C16   C18   A    
C34   H18   S    
Cu1   O1    S    
C4    C9    A    
C2    C9    S    
C12   H14   S    
C11   H25   S    
C26   H1    S    
