data_mof_unit_52748.cif
_audit_creation_date              2012-12-11T15:32:35-0500
_audit_creation_method            fapswitch 2.2
_symmetry_space_group_name_H-M    P1
_symmetry_Int_Tables_number       1
_space_group_crystal_system       triclinic
_cell_length_a                    6.948571
_cell_length_b                    20.467748
_cell_length_c                    24.343932
_cell_angle_alpha                 89.923899
_cell_angle_beta                  90.347346
_cell_angle_gamma                 88.763595
_cell_volume                      3461.35957715

loop_
_atom_site_label
_atom_site_type_symbol
_atom_type_description
_atom_site_fract_x
_atom_site_fract_y
_atom_site_fract_z
_atom_type_partial_charge
O1    O     O_R   0.507320 0.423560 0.460500 -0.528738
O2    O     O_R   0.170760 0.556250 0.437010 -0.537237
O3    O     O_R   0.004030 0.576440 0.539500 -0.540056
C1    C     C_R   0.337811 0.576645 0.421289 0.756123
O4    O     O_R   0.177370 0.422820 0.454110 -0.536262
O5    O     O_R   0.010680 0.442050 0.556720 -0.535092
C2    C     C_R   0.347333 0.398685 0.443347 0.809873
O6    O     O_R   0.500680 0.557950 0.443280 -0.536455
O7    O     O_3   0.340380 0.506470 0.533650 -0.366538
V1    V     V_3+5 0.064130 0.498800 0.493760 1.530878
O8    O     O_R   0.681160 0.443750 0.562990 -0.525541
C3    C     C_R   0.851268 0.423653 0.578666 0.721811
O9    O     O_R   0.674560 0.577180 0.545890 -0.534573
C4    C     C_R   0.841476 0.601082 0.556770 0.686002
V2    V     V_3+5 0.564560 0.501200 0.506240 1.551502
O10   O     O_3   0.838180 0.493530 0.466350 -0.371488
C5    C     C_R   0.981819 0.837548 0.911239 -0.178693
C6    C     C_R   0.841296 0.660937 0.590738 -0.173933
C7    C     C_R   0.092406 0.724148 0.901711 0.004619
C8    C     C_R   0.045772 0.778092 0.935519 0.276271
C9    C     C_R   0.938666 0.839904 0.854703 0.304544
C10   C     C_R   0.957222 0.782000 0.822254 -0.003659
C11   C     C_R   0.072188 0.729895 0.843649 -0.116051
C12   C     C_R   0.873396 0.774830 0.768643 -0.070823
C13   C     C_R   0.954069 0.727302 0.732303 0.041528
C14   C     C_R   0.123153 0.692889 0.749139 0.407170
C15   C     C_R   0.170317 0.688303 0.805762 -0.103503
C16   C     C_R   0.703768 0.809943 0.751743 -0.092163
C17   C     C_R   0.649813 0.810780 0.695421 -0.074318
C18   C     C_R   0.749339 0.769543 0.657557 -0.083867
C19   C     C_R   0.874030 0.719588 0.678510 0.068920
C20   C     C_R   0.714333 0.772013 0.599870 -0.011920
C21   C     C_R   0.758445 0.717296 0.567695 -0.215958
C22   C     C_R   0.901659 0.661503 0.646629 0.409908
H1    H     H_    0.723285 0.717764 0.524212 0.167570
C23   C     C_3   0.829933 0.303557 0.766621 0.323892
C24   C     C_3   0.023661 0.274869 0.789173 -0.264018
H2    H     H_    0.115500 0.297072 0.821282 0.182909
C25   C     C_1   0.960049 0.121032 0.875251 -0.136870
C26   C     C_1   0.864141 0.377907 0.623904 -0.110865
C27   C     C_3   0.739274 0.235819 0.769157 0.317528
C28   C     C_3   0.930870 0.206087 0.791070 -0.073617
C29   C     C_3   0.800449 0.222438 0.709254 -0.207152
C30   C     C_3   0.891759 0.291046 0.706761 -0.122485
C31   C     C_3   0.993049 0.193253 0.731290 0.300629
C32   C     C_3   0.082979 0.261144 0.728846 0.346226
C33   C     C_1   0.947833 0.159130 0.837142 0.120276
C34   C     C_1   0.875961 0.338987 0.661389 0.150656
C35   C     C_3   0.508756 0.721872 0.211147 0.339246
C36   C     C_3   0.310673 0.701873 0.232195 0.259017
C37   C     C_1   0.344242 0.622522 0.375650 -0.157602
C38   C     C_1   0.479578 0.878610 0.125115 -0.134353
C39   C     C_3   0.581768 0.728979 0.270975 -0.194809
C40   C     C_3   0.381372 0.708608 0.292195 -0.013818
C41   C     C_3   0.514260 0.802044 0.270347 -0.162072
C42   C     C_3   0.442503 0.794515 0.210032 -0.092252
C43   C     C_3   0.314902 0.781222 0.290999 0.327733
C44   C     C_3   0.242052 0.774219 0.231198 -0.166508
C45   C     C_1   0.356143 0.661263 0.337904 0.125791
C46   C     C_1   0.467493 0.840714 0.163450 0.155756
C47   C     C_R   0.459338 0.164372 0.086492 -0.190621
C48   C     C_R   0.355277 0.336542 0.411541 -0.215868
C49   C     C_R   0.356824 0.279308 0.088323 0.451523
C50   C     C_R   0.390894 0.220917 0.058720 0.153188
C51   C     C_R   0.497038 0.166827 0.143299 0.279000
C52   C     C_R   0.431320 0.221876 0.175217 -0.138177
C53   C     C_R   0.373943 0.279933 0.146662 -0.089972
C54   C     C_R   0.416226 0.220654 0.234180 0.008818
C55   C     C_R   0.384194 0.279501 0.264144 0.035900
C56   C     C_R   0.320685 0.335661 0.234857 0.229951
C57   C     C_R   0.329766 0.337481 0.176864 0.355727
C58   C     C_R   0.411483 0.161494 0.263688 -0.190671
C59   C     C_R   0.384715 0.159453 0.320579 -0.025244
C60   C     C_R   0.352151 0.218468 0.350360 -0.017286
C61   C     C_R   0.385646 0.278429 0.323261 0.079087
C62   C     C_R   0.281438 0.220066 0.405295 -0.062080
C63   C     C_R   0.279964 0.279471 0.435276 -0.082095
C64   C     C_R   0.416991 0.335253 0.356082 -0.021306
H3    H     H_    0.417765 0.115205 0.242621 0.200823
O11   O     O_R   0.323550 0.942140 0.056770 -0.536566
O12   O     O_R   0.647080 0.077200 0.045890 -0.529706
O13   O     O_R   0.813610 0.057920 0.943260 -0.538791
C65   C     C_R   0.476610 0.101306 0.056669 0.772183
O14   O     O_R   0.653470 0.943760 0.063000 -0.539178
O15   O     O_R   0.820050 0.923540 0.960490 -0.529745
C66   C     C_R   0.486300 0.923727 0.078964 0.737773
O16   O     O_R   0.317110 0.076520 0.039540 -0.543273
O17   O     O_3   0.483830 0.993580 0.966380 -0.368679
V3    V     V_3+5 0.760140 0.001190 0.006240 1.520807
O18   O     O_R   0.149510 0.922740 0.954070 -0.538884
C67   C     C_R   0.982547 0.898705 0.943499 0.765845
O19   O     O_R   0.143120 0.056170 0.936970 -0.537081
C68   C     C_R   0.973004 0.076058 0.921100 0.745372
V4    V     V_3+5 0.259690 0.998700 0.993700 1.512808
O20   O     O_3   0.986130 0.006420 0.033620 -0.372328
C69   C     C_2   0.335441 0.645326 0.823013 0.805550
O21   O     O_2   0.349902 0.589673 0.805027 -0.504655
O22   O     O_R   0.476001 0.668831 0.858797 -0.632289
H4    H     H_    0.581961 0.635271 0.866779 0.329542
C70   C     C_2   0.646281 0.832117 0.570862 0.839897
O23   O     O_2   0.696635 0.885758 0.586886 -0.509138
O24   O     O_R   0.530911 0.827246 0.523815 -0.640539
H5    H     H_    0.495843 0.871475 0.507345 0.336741
O25   O     O_3   0.740345 0.361300 0.784825 -0.584910
H6    H     H_    0.723652 0.355468 0.824924 0.305586
O26   O     O_3   0.264896 0.273778 0.707588 -0.576598
H7    H     H_    0.258966 0.260515 0.668482 0.308208
O27   O     O_3   0.082546 0.135494 0.713033 -0.565141
H8    H     H_    0.104759 0.142157 0.673256 0.320051
C71   C     C_2   0.676040 0.191516 0.666537 0.914943
O28   O     O_2   0.612262 0.137220 0.674744 -0.479866
O29   O     O_R   0.633238 0.224836 0.617708 -0.661312
H9    H     H_    0.547381 0.199035 0.592282 0.329487
O30   O     O_3   0.557000 0.223220 0.790244 -0.578070
H10   H     H_    0.561684 0.237184 0.829186 0.291818
O31   O     O_3   0.206518 0.649072 0.212403 -0.602850
H11   H     H_    0.193201 0.656495 0.172309 0.347802
O32   O     O_3   0.607839 0.690366 0.168584 -0.576047
H12   H     H_    0.624393 0.644289 0.180579 0.339791
C72   C     C_2   0.058316 0.801661 0.207447 0.835606
O33   O     O_2   0.944782 0.765592 0.184916 -0.521436
O34   O     O_R   0.022529 0.869007 0.208975 -0.658038
H13   H     H_    0.900755 0.882243 0.188311 0.313418
O35   O     O_3   0.962414 0.604739 0.673166 -0.602937
H14   H     H_    0.979186 0.568582 0.646645 0.290337
O36   O     O_3   0.213447 0.812244 0.333378 -0.573335
H15   H     H_    0.188006 0.857529 0.320348 0.326554
C73   C     C_2   0.617317 0.859142 0.294187 0.878834
O37   O     O_2   0.672016 0.857295 0.341975 -0.502823
O38   O     O_R   0.644661 0.914933 0.262347 -0.663047
H16   H     H_    0.714078 0.950329 0.283182 0.318633
C74   C     C_2   0.767320 0.700164 0.292625 0.874840
O39   O     O_2   0.880579 0.734504 0.317137 -0.516223
O40   O     O_R   0.807467 0.633550 0.285588 -0.653880
H17   H     H_    0.935701 0.619525 0.302387 0.315942
O41   O     O_3   0.294546 0.395661 0.149287 -0.582118
H18   H     H_    0.330435 0.432502 0.173418 0.321203
C75   C     C_2   0.532230 0.390002 0.334037 0.825252
O42   O     O_2   0.672566 0.377904 0.305398 -0.546785
O43   O     O_R   0.479264 0.454956 0.344950 -0.663719
H19   H     H_    0.568875 0.487239 0.327350 0.304406
C76   C     C_2   0.199374 0.282121 0.491878 0.786718
O44   O     O_2   0.296361 0.302983 0.529836 -0.557657
O45   O     O_R   0.012172 0.261267 0.501445 -0.642919
H20   H     H_    0.973959 0.265421 0.541439 0.305905
C77   C     C_2   0.416804 0.094863 0.347393 0.807966
O46   O     O_2   0.513838 0.090503 0.389379 -0.525065
O47   O     O_R   0.343852 0.038580 0.323121 -0.646203
H21   H     H_    0.377861 0.997481 0.344698 0.319775
O48   O     O_3   0.296928 0.335790 0.061167 -0.577022
H22   H     H_    0.306141 0.330343 0.020896 0.346461
O49   O     O_3   0.356395 0.221351 0.002579 -0.649572
H23   H     H_    0.420317 0.183276 0.984917 0.284191
O50   O     O_3   0.609097 0.116683 0.165179 -0.641648
H24   H     H_    0.690605 0.135477 0.194504 0.307396
O51   O     O_3   0.224967 0.384990 0.263202 -0.633296
H25   H     H_    0.130638 0.407298 0.238479 0.330193
C78   C     C_2   0.185752 0.162345 0.429198 0.865840
O52   O     O_2   0.231926 0.142323 0.474883 -0.511301
O53   O     O_R   0.042110 0.131195 0.399203 -0.644023
H26   H     H_    0.987677 0.092578 0.419570 0.337322
C79   C     C_2   0.464798 0.842946 0.678564 0.833156
O54   O     O_2   0.443472 0.902216 0.682187 -0.466670
O55   O     O_R   0.317288 0.805122 0.656998 -0.662323
H27   H     H_    0.198420 0.832190 0.646847 0.314730
C80   C     C_2   0.137834 0.659991 0.928079 0.892963
O56   O     O_2   0.241491 0.656807 0.968827 -0.486386
O57   O     O_R   0.059355 0.603120 0.906408 -0.656119
H28   H     H_    0.100486 0.562502 0.927673 0.322481
O58   O     O_3   0.068216 0.771353 0.991834 -0.599792
H29   H     H_    0.004121 0.808425 0.010937 0.287683
O59   O     O_3   0.899141 0.900517 0.831662 -0.632512
H30   H     H_    0.932597 0.898920 0.792173 0.320358
O60   O     O_3   0.246933 0.669082 0.709145 -0.594468
H31   H     H_    0.380497 0.667802 0.723555 0.304926
C81   C     C_2   0.567770 0.836791 0.793757 0.819539
O61   O     O_2   0.521973 0.802727 0.832622 -0.544010
O62   O     O_R   0.496234 0.900987 0.789860 -0.603843
H32   H     H_    0.406230 0.912968 0.821077 0.314201

loop_
_geom_bond_atom_site_label_1
_geom_bond_atom_site_label_2
_ccdc_geom_bond_type
C13   C19   A    
C8    O58   S    
C41   C42   S    
V3    O20   S    
O36   H15   S    
C59   C60   A    
C4    C6    S    
C48   C63   A    
C52   C54   A    
C7    C8    A    
C5    C67   S    
C27   O30   S    
C1    O6    A    
C73   O37   D    
O62   H32   S    
O15   C67   A    
C49   O48   S    
C31   C32   S    
O31   H11   S    
C62   C78   S    
C14   C15   A    
C24   H2    S    
O13   V3    S    
C60   C62   A    
C50   O49   S    
C56   O51   S    
C16   C17   A    
O14   C66   A    
C77   O46   D    
C58   H3    S    
C55   C56   A    
O5    C3    A    
C18   C19   A    
C35   C39   S    
C63   C76   S    
C53   C57   A    
O58   H29   S    
C14   O60   S    
V2    O10   S    
O16   V4    S    
C5    C8    A    
O27   H8    S    
C27   C28   S    
C24   C28   S    
C35   C36   S    
O32   H12   S    
C25   C68   S    
O11   C66   A    
C38   C46   T    
O60   H31   S    
O8    V2    S    
C78   O53   S    
C30   C32   S    
C74   O39   D    
C69   O22   S    
C23   C24   S    
C54   C55   A    
C56   C57   A    
O1    V2    S    
C29   C71   S    
C11   C15   A    
C6    C21   A    
C17   C18   A    
O7    V1    S    
C79   O55   S    
C31   O27   S    
O12   V3    S    
C81   O62   S    
C52   C53   A    
O13   C68   A    
O9    C4    A    
C80   O57   S    
C43   C44   S    
C27   C29   S    
O55   H27   S    
C23   C27   S    
O24   H5    S    
C64   C75   S    
O19   V4    S    
O29   H9    S    
O12   C65   A    
C72   O34   S    
O18   V4    S    
C77   O47   S    
C40   C45   S    
C39   C41   S    
C15   C69   S    
C49   C53   A    
C60   C61   A    
C1    C37   S    
C36   C44   S    
O57   H28   S    
C12   C13   A    
C47   C65   S    
C57   O41   S    
O4    C2    A    
O15   V3    S    
C16   C81   S    
C13   C14   A    
C39   C40   S    
C5    C9    A    
C71   O28   D    
C28   C31   S    
C3    C26   S    
C47   C50   A    
C7    C11   A    
C29   C30   S    
C2    C48   S    
C51   O50   S    
C47   C51   A    
C29   C31   S    
C35   O32   S    
C54   C58   A    
C69   O21   D    
C70   O24   S    
C19   C22   A    
C39   C74   S    
C36   C40   S    
O17   V3    S    
C6    C22   A    
O50   H24   S    
O3    C4    A    
C75   O43   S    
C81   O61   D    
C7    C80   S    
C51   C52   A    
O6    V2    S    
C41   C43   S    
C78   O52   D    
C10   C12   A    
C23   C30   S    
C37   C45   T    
O14   V3    S    
O11   V4    S    
O2    V1    S    
C43   O36   S    
C76   O45   S    
O59   H30   S    
C25   C33   T    
C79   O54   D    
C26   C34   T    
O51   H25   S    
C22   O35   S    
O1    C2    A    
C17   C79   S    
C48   C64   A    
C10   C11   A    
C12   C16   A    
C58   C59   A    
C44   C72   S    
C73   O38   S    
C65   O16   A    
O5    V1    S    
O8    C3    A    
O30   H10   S    
O40   H17   S    
C35   C42   S    
O48   H22   S    
C23   O25   S    
C59   C77   S    
O45   H20   S    
C20   C21   A    
O9    V2    S    
O38   H16   S    
C24   C32   S    
O4    V1    S    
O3    V1    S    
V1    O10   S    
O53   H26   S    
C18   C20   A    
C62   C63   A    
O18   C67   A    
C80   O56   D    
O43   H19   S    
O2    C1    A    
C32   O26   S    
C38   C66   S    
O19   C68   A    
C21   H1    S    
C42   C44   S    
C55   C61   A    
C36   O31   S    
C28   C33   S    
O7    V2    S    
V4    O20   S    
C61   C64   A    
C71   O29   S    
C75   O42   D    
C49   C50   A    
C20   C70   S    
C42   C46   S    
C41   C73   S    
C74   O40   S    
O22   H4    S    
O26   H7    S    
C76   O44   D    
O17   V4    S    
C72   O33   D    
O41   H18   S    
C70   O23   D    
O49   H23   S    
O34   H13   S    
C9    C10   A    
O47   H21   S    
C9    O59   S    
C30   C34   S    
O25   H6    S    
O35   H14   S    
C40   C43   S    
