data_mof_unit_29490.cif
_audit_creation_date              2012-12-10T18:31:53-0500
_audit_creation_method            fapswitch 2.2
_symmetry_space_group_name_H-M    P1
_symmetry_Int_Tables_number       1
_space_group_crystal_system       triclinic
_cell_length_a                    10.711335
_cell_length_b                    15.032883
_cell_length_c                    15.339157
_cell_angle_alpha                 82.482681
_cell_angle_beta                  90.570017
_cell_angle_gamma                 104.197614
_cell_volume                      2373.2926775

loop_
_atom_site_label
_atom_site_type_symbol
_atom_type_description
_atom_site_fract_x
_atom_site_fract_y
_atom_site_fract_z
_atom_type_partial_charge
C1    C     C_R   0.481580 0.441885 0.662908 0.888944
C2    C     C_3   0.120836 0.500142 0.502145 0.000664
C3    C     C_3   0.062176 0.483031 0.409631 0.000258
C4    C     C_3   0.104742 0.598120 0.520551 -0.001903
C5    C     C_R   0.489606 0.407504 0.756908 -0.128708
C6    C     C_R   0.557988 0.593557 0.245296 -0.093050
C7    C     C_R   0.500771 0.288268 0.877682 -0.153523
C8    C     C_R   0.466048 0.312336 0.790473 0.243402
C9    C     C_R   0.535882 0.474398 0.812132 -0.232630
C10   C     C_R   0.570832 0.451297 0.898246 0.071028
C11   C     C_R   0.552326 0.356403 0.931789 0.061339
C12   C     C_R   0.741998 0.501182 0.500137 0.931948
C13   C     C_R   0.613497 0.520666 0.953697 0.086366
C14   C     C_R   0.615065 0.493406 0.044887 0.047262
C15   C     C_R   0.610835 0.399862 0.075560 -0.218338
C16   C     C_R   0.581117 0.331990 0.019943 0.162205
C17   C     C_R   0.648532 0.616294 0.921941 -0.186398
C18   C     C_R   0.661547 0.682382 0.979014 -0.210330
C19   C     C_R   0.636269 0.655280 0.069282 0.095041
C20   C     C_R   0.613479 0.559741 0.102304 0.087511
C21   C     C_R   0.627578 0.720812 0.126355 0.227560
C22   C     C_R   0.586414 0.688276 0.214332 -0.200121
C23   C     C_R   0.522177 0.558020 0.337561 0.912858
C24   C     C_R   0.575444 0.531295 0.190101 -0.196951
C25   C     C_R   0.685810 0.834710 0.648312 -0.289043
C26   C     C_R   0.660351 0.749816 0.617109 0.030391
C27   C     C_R   0.507921 0.793170 0.517912 -0.016916
C28   C     C_R   0.527675 0.880481 0.548190 0.007998
C29   C     C_R   0.620675 0.900785 0.612993 0.130460
C30   C     C_R   0.462637 0.948593 0.513556 0.060606
C31   C     C_R   0.501857 0.041612 0.535914 0.028308
C32   C     C_R   0.600345 0.059100 0.600287 0.110596
C33   C     C_R   0.652179 0.987747 0.639895 -0.210732
C34   C     C_R   0.257644 0.499334 0.501033 0.875022
C35   C     C_R   0.361437 0.925860 0.454856 -0.204623
C36   C     C_R   0.314541 0.993282 0.406429 -0.179267
C37   C     C_R   0.359494 0.084939 0.419423 0.138704
C38   C     C_R   0.444577 0.110579 0.488453 0.005487
C39   C     C_R   0.318067 0.151047 0.362980 -0.305845
C40   C     C_R   0.357169 0.243012 0.374771 0.310467
C41   C     C_R   0.465438 0.203866 0.504584 -0.086889
C42   C     C_3   0.903116 0.428242 0.574162 0.000019
C43   C     C_3   0.046641 0.427993 0.576625 -0.403870
C44   C     C_3   0.918772 0.483776 0.409350 -0.130532
C45   C     C_3   0.962364 0.599674 0.518009 -0.388221
C46   C     C_3   0.879043 0.503892 0.500548 -0.025568
H1    H     H_    0.847895 0.360060 0.558716 0.173387
H2    H     H_    0.157296 0.652249 0.468014 0.134225
H3    H     H_    0.114683 0.544196 0.363839 0.139106
H4    H     H_    0.554684 0.459349 0.216412 0.189515
H5    H     H_    0.577703 0.736042 0.259491 0.167316
H6    H     H_    0.683135 0.754405 0.950683 0.158102
H7    H     H_    0.483202 0.216338 0.904583 0.179071
H8    H     H_    0.541693 0.545583 0.787057 0.174668
H9    H     H_    0.630981 0.377677 0.142875 0.180149
H10   H     H_    0.666542 0.642038 0.853011 0.146205
H11   H     H_    0.725343 0.001761 0.689112 0.177823
H12   H     H_    0.505999 0.226491 0.563688 0.204730
H13   H     H_    0.242763 0.973372 0.357545 0.151876
H14   H     H_    0.756585 0.848877 0.698917 0.150020
H15   H     H_    0.708549 0.697534 0.644683 0.139855
H16   H     H_    0.442840 0.771922 0.466452 0.118979
H17   H     H_    0.087373 0.444700 0.640991 0.220215
H18   H     H_    0.317691 0.856031 0.443159 0.141868
H19   H     H_    0.257800 0.131394 0.307959 0.177745
H20   H     H_    0.058550 0.357592 0.573228 0.178035
H21   H     H_    0.857905 0.416136 0.395502 0.184483
H22   H     H_    0.948852 0.655429 0.466313 0.196120
H23   H     H_    0.931075 0.617610 0.580855 0.228632
N1    N     N_R   0.573860 0.731700 0.552730 -0.101603
N2    N     N_R   0.426060 0.268290 0.447230 -0.126174
O1    O     O_R   0.462770 0.383110 0.605620 -0.613402
O2    O     O_R   0.510160 0.531900 0.639510 -0.606622
O3    O     O_R   0.661510 0.425600 0.483070 -0.615227
O4    O     O_R   0.708900 0.574390 0.516960 -0.618317
O5    O     O_R   0.489840 0.468100 0.360490 -0.585637
O6    O     O_R   0.537230 0.616890 0.394380 -0.624881
O7    O     O_R   0.291100 0.425610 0.483040 -0.589205
O8    O     O_R   0.338490 0.574400 0.516930 -0.610410
Zn1   Zn    Zn3+2 0.468350 0.400660 0.477370 0.982847
Zn2   Zn    Zn3+2 0.531650 0.599340 0.522630 0.967412
I1    I     I_    0.882956 0.579814 0.299604 -0.445030
I2    I     I_    0.573080 0.193877 0.077766 -0.385365
N3    N     N_2   0.403719 0.243292 0.737322 -0.288623
H24   H     H_    0.324750 0.257548 0.704731 0.232531
C47   C     C_3   0.387280 0.145864 0.768601 -0.746701
H25   H     H_    0.317510 0.124416 0.825057 0.237880
H26   H     H_    0.481106 0.131160 0.787877 0.273713
H27   H     H_    0.349192 0.104536 0.714907 0.243942
I3    I     I_    0.836215 0.441255 0.703632 -0.334690
N4    N     N_2   0.658941 0.817664 0.093773 -0.315215
H28   H     H_    0.747633 0.841952 0.062180 0.228951
C48   C     C_3   0.623459 0.882740 0.144583 -0.730831
H29   H     H_    0.641082 0.951704 0.104163 0.264432
H30   H     H_    0.682825 0.889670 0.204261 0.235816
H31   H     H_    0.519374 0.860152 0.163110 0.247114
I4    I     I_    0.301215 0.332821 0.272631 -0.379138
I5    I     I_    0.704395 0.184829 0.643104 -0.438203
N5    N     N_2   0.082605 0.402378 0.373175 -0.267076
H32   H     H_    0.069014 0.407850 0.306154 0.264816
C49   C     C_3   0.031378 0.308520 0.416459 -0.676971
H33   H     H_    0.015269 0.259451 0.366860 0.237107
H34   H     H_    0.938098 0.299841 0.450799 0.222440
H35   H     H_    0.102368 0.287832 0.462761 0.255088
I6    I     I_    0.182650 0.644293 0.643608 -0.357882

loop_
_geom_bond_atom_site_label_1
_geom_bond_atom_site_label_2
_ccdc_geom_bond_type
C48   H29   S    
C40   N2    A    
C12   O3    A    
C19   C20   A    
C23   O5    A    
C36   H13   S    
C3    H3    S    
C43   H17   S    
C7    C8    A    
C45   C46   S    
C7    C11   A    
C49   H33   S    
C30   C35   A    
C1    C5    S    
C28   C29   A    
C19   C21   A    
C26   H15   S    
N3    C47   S    
C41   H12   S    
C44   I1    S    
C21   N4    S    
C30   C31   A    
O7    Zn1   S    
C15   C16   A    
C6    C22   A    
C29   C33   A    
C18   C19   A    
C42   C46   S    
N1    Zn2   S    
C20   C24   A    
C35   C36   A    
C35   H18   S    
C25   H14   S    
C9    C10   A    
C41   N2    A    
C2    C34   S    
C49   H34   S    
O3    Zn1   S    
C21   C22   A    
C25   C29   A    
C39   H19   S    
O2    Zn2   S    
N2    Zn1   S    
C44   C46   S    
C4    C45   S    
C24   H4    S    
C37   C39   A    
C3    C44   S    
C1    O1    A    
C18   H6    S    
C14   C20   A    
N3    H24   S    
C38   C41   A    
C12   C46   S    
C39   C40   A    
O8    Zn2   S    
C47   H25   S    
O4    Zn2   S    
C25   C26   A    
C45   H23   S    
C10   C13   A    
C16   I2    S    
O1    Zn1   S    
C42   I3    S    
C15   H9    S    
C2    C4    S    
C5    C9    A    
C37   C38   A    
C27   H16   S    
C34   O8    A    
N4    C48   S    
C11   C16   A    
N5    H32   S    
O6    Zn2   S    
C2    C43   S    
C6    C24   A    
C45   H22   S    
C17   C18   A    
C23   O6    A    
C17   H10   S    
C27   N1    A    
N5    C49   S    
C49   H35   S    
C26   N1    A    
C42   C43   S    
C7    H7    S    
N4    H28   S    
C4    H2    S    
C36   C37   A    
C33   H11   S    
C8    N3    S    
C31   C32   A    
O5    Zn1   S    
C47   H27   S    
C5    C8    A    
C48   H31   S    
C4    I6    S    
C31   C38   A    
C13   C17   A    
C1    O2    A    
C32   C33   A    
C28   C30   A    
C2    C3    S    
C40   I4    S    
C34   O7    A    
C43   H20   S    
C6    C23   S    
C32   I5    S    
C47   H26   S    
C42   H1    S    
C10   C11   A    
C3    N5    S    
C48   H30   S    
C12   O4    A    
C27   C28   A    
C14   C15   A    
C44   H21   S    
C9    H8    S    
C13   C14   A    
C22   H5    S    
