data_mof_unit_45568.cif
_audit_creation_date              2012-12-10T20:38:18-0500
_audit_creation_method            fapswitch 2.2
_symmetry_space_group_name_H-M    P1
_symmetry_Int_Tables_number       1
_space_group_crystal_system       triclinic
_cell_length_a                    10.039833
_cell_length_b                    10.828804
_cell_length_c                    16.908278
_cell_angle_alpha                 93.345009
_cell_angle_beta                  81.498147
_cell_angle_gamma                 91.256343
_cell_volume                      1814.79499838

loop_
_atom_site_label
_atom_site_type_symbol
_atom_type_description
_atom_site_fract_x
_atom_site_fract_y
_atom_site_fract_z
_atom_type_partial_charge
C1    C     C_R   0.501253 0.738781 0.496165 0.924266
C2    C     C_R   0.375827 0.513953 0.804925 0.501348
C3    C     C_R   0.478824 0.610630 0.148913 -0.173507
C4    C     C_R   0.449786 0.577140 0.226769 -0.179522
C5    C     C_R   0.674273 0.497195 0.219855 -0.225550
C6    C     C_R   0.708024 0.527674 0.140593 0.228480
C7    C     C_R   0.608604 0.589440 0.102980 -0.022681
C8    C     C_2   0.537792 0.499503 0.987405 -0.171014
C9    C     C_2   0.613154 0.591849 0.013139 -0.136745
C10   C     C_R   0.547189 0.521542 0.262603 -0.032226
C11   C     C_R   0.393039 0.933330 0.471992 -0.019455
C12   C     C_R   0.480429 0.498093 0.654175 0.953672
C13   C     C_R   0.503735 0.869392 0.485872 -0.153612
C14   C     C_R   0.623553 0.935560 0.483742 -0.196295
C15   C     C_R   0.630798 0.062623 0.479530 0.452439
C16   C     C_R   0.508992 0.128196 0.479227 -0.224735
C17   C     C_R   0.395595 0.057151 0.467650 -0.068328
C18   C     C_3   0.258412 0.058401 0.443527 0.336672
C19   C     C_3   0.255260 0.915227 0.451089 -0.105596
C20   C     C_R   0.916524 0.549399 0.562817 0.141561
C21   C     C_R   0.943705 0.462020 0.432892 -0.128461
C22   C     C_R   0.087305 0.461253 0.433037 -0.042020
C23   C     C_R   0.501779 0.260693 0.492573 0.921730
C24   C     C_R   0.051539 0.541109 0.564867 0.156329
C25   C     C_3   0.039664 0.626131 0.639374 -0.469036
C26   C     C_3   0.889837 0.641188 0.633488 0.246494
C27   C     C_R   0.522831 0.502095 0.347521 0.859572
C28   C     C_R   0.483833 0.490815 0.742786 -0.157269
C29   C     C_R   0.610344 0.463656 0.765647 -0.245153
C30   C     C_R   0.629665 0.468158 0.844834 -0.114394
C31   C     C_R   0.520537 0.489814 0.904179 0.109384
C32   C     C_R   0.393189 0.508682 0.884649 -0.240903
H1    H     H_    0.697357 0.438981 0.722524 0.190940
H2    H     H_    0.713599 0.887566 0.480597 0.272548
H3    H     H_    0.184289 0.108179 0.488894 0.124738
H4    H     H_    0.185078 0.884701 0.503654 0.213225
H5    H     H_    0.865337 0.400725 0.460365 0.268008
H6    H     H_    0.151020 0.446035 0.376265 0.197277
H7    H     H_    0.044262 0.569843 0.690146 0.266572
H8    H     H_    0.350943 0.596838 0.259381 0.151386
H9    H     H_    0.103335 0.710886 0.631684 0.271866
H10   H     H_    0.819611 0.609848 0.685625 0.095750
H11   H     H_    0.750031 0.455810 0.249125 0.169466
H12   H     H_    0.652951 0.658764 0.053384 0.185511
H13   H     H_    0.308959 0.524232 0.931887 0.178051
H14   H     H_    0.400025 0.650508 0.121557 0.163833
H15   H     H_    0.468105 0.446395 0.028291 0.170156
H16   H     H_    0.729146 0.452782 0.859600 0.167821
N1    N     N_R   0.857140 0.500860 0.500530 -0.178465
N2    N     N_R   0.142780 0.500820 0.500530 -0.106709
O1    O     O_R   0.385310 0.683210 0.499990 -0.636865
O2    O     O_R   0.614650 0.683240 0.500000 -0.554831
O3    O     O_R   0.371780 0.500000 0.615800 -0.518438
O4    O     O_R   0.601120 0.500040 0.615800 -0.642813
O5    O     O_R   0.385350 0.316760 0.500000 -0.593452
O6    O     O_R   0.614690 0.316790 0.500010 -0.552554
O7    O     O_R   0.398880 0.499960 0.384200 -0.625166
O8    O     O_R   0.628220 0.500000 0.384200 -0.620700
Zn1   Zn    Zn3+2 0.346870 0.499980 0.499990 1.033649
Zn2   Zn    Zn3+2 0.653130 0.500020 0.500010 1.050611
C33   C     C_3   0.854513 0.506355 0.105128 -0.475341
C34   C     C_3   0.899747 0.535255 0.018278 -0.725684
H17   H     H_    0.852847 0.468815 0.977835 0.267193
H18   H     H_    0.877528 0.631492 0.007132 0.260673
H19   H     H_    0.010355 0.524750 0.004755 0.273755
H20   H     H_    0.917663 0.564116 0.141969 0.215430
H21   H     H_    0.879179 0.408576 0.111659 0.227642
S1    S     S_3+6 0.796206 0.127080 0.464742 0.025745
O9    O     O_2   0.821497 0.204979 0.537599 -0.309385
O10   O     O_2   0.900651 0.028268 0.449979 -0.299812
O11   O     O_3   0.810696 0.212870 0.384376 -0.579329
H22   H     H_    0.907826 0.213575 0.362954 0.397809
S2    S     S_3+6 0.267284 0.114423 0.344977 0.027134
O12   O     O_2   0.141629 0.076724 0.310888 -0.254158
O13   O     O_2   0.277402 0.252338 0.349831 -0.335292
O14   O     O_3   0.402945 0.058918 0.283967 -0.558778
H23   H     H_    0.471556 0.126220 0.282971 0.376229
C35   C     C_3   0.253846 0.827489 0.375851 -0.343209
C36   C     C_3   0.111793 0.788764 0.364132 -0.704820
H24   H     H_    0.069706 0.726866 0.411537 0.272375
H25   H     H_    0.046760 0.869862 0.365201 0.332516
H26   H     H_    0.113560 0.736615 0.305634 0.214226
H27   H     H_    0.307112 0.865395 0.320817 0.283597
H28   H     H_    0.306965 0.741653 0.382453 0.210038
S3    S     S_3+6 0.855803 0.788943 0.600892 0.029756
O15   O     O_2   0.876755 0.777955 0.511616 -0.327974
O16   O     O_2   0.712790 0.822816 0.632881 -0.302510
O17   O     O_3   0.961935 0.899254 0.629480 -0.556289
H29   H     H_    0.912066 0.977540 0.630021 0.411024
S4    S     S_3+6 0.219485 0.543578 0.783891 -0.032764
O18   O     O_2   0.180155 0.429747 0.736849 -0.312347
O19   O     O_2   0.116968 0.564930 0.857321 -0.362368
O20   O     O_3   0.241099 0.672280 0.731703 -0.596155
H30   H     H_    0.175659 0.732784 0.761043 0.384211

loop_
_geom_bond_atom_site_label_1
_geom_bond_atom_site_label_2
_ccdc_geom_bond_type
C10   C27   S    
O20   H30   S    
O5    Zn1   S    
C32   H13   S    
C21   N1    A    
O3    Zn1   S    
C23   O6    A    
O4    Zn2   S    
S3    O15   D    
C11   C19   S    
C29   C30   A    
N1    Zn2   S    
C12   C28   S    
N2    Zn1   S    
C6    C33   S    
C30   H16   S    
C28   C29   A    
C3    C7    A    
C19   H4    S    
S1    O11   S    
C30   C31   A    
O7    Zn1   S    
O8    Zn2   S    
C15   C16   A    
C22   H6    S    
C29   H1    S    
C2    C32   A    
C18   C19   S    
S2    O12   D    
C2    S4    S    
C34   H18   S    
O2    Zn2   S    
S1    O9    D    
C35   H27   S    
C20   C24   A    
C8    C9    D    
C18   H3    S    
C12   O3    A    
C22   N2    A    
C5    H11   S    
C13   C14   A    
S2    O13   D    
C33   H20   S    
S3    O16   D    
C24   N2    A    
C4    H8    S    
O14   H23   S    
C27   O7    A    
C25   H9    S    
C36   H25   S    
C35   C36   S    
C16   C17   A    
C25   C26   S    
O6    Zn2   S    
C19   C35   S    
C20   N1    A    
C33   H21   S    
S4    O19   D    
C31   C32   A    
C34   H17   S    
C17   C18   S    
C21   H5    S    
C24   C25   S    
C1    O1    A    
C16   C23   S    
S2    O14   S    
O1    Zn1   S    
C4    C10   A    
C3    C4    A    
C26   H10   S    
S4    O20   S    
S3    O17   S    
C7    C9    S    
C11   C17   A    
C9    H12   S    
C34   H19   S    
C8    C31   S    
C27   O8    A    
C14   H2    S    
C36   H26   S    
C23   O5    A    
C6    C7    A    
C18   S2    S    
C3    H14   S    
C8    H15   S    
O11   H22   S    
C25   H7    S    
C11   C13   A    
S4    O18   D    
C5    C6    A    
C20   C26   S    
C26   S3    S    
C15   S1    S    
C33   C34   S    
C1    O2    A    
C36   H24   S    
C35   H28   S    
C5    C10   A    
C1    C13   S    
O17   H29   S    
S1    O10   D    
C14   C15   A    
C2    C28   A    
C21   C22   A    
C12   O4    A    
