data_mof_unit_40977.cif
_audit_creation_date              2012-12-11T17:41:17-0500
_audit_creation_method            fapswitch 2.2
_symmetry_space_group_name_H-M    P1
_symmetry_Int_Tables_number       1
_space_group_crystal_system       triclinic
_cell_length_a                    15.563343
_cell_length_b                    14.970622
_cell_length_c                    15.134046
_cell_angle_alpha                 109.732927
_cell_angle_beta                  121.062379
_cell_angle_gamma                 59.101573
_cell_volume                      2579.12805193

loop_
_atom_site_label
_atom_site_type_symbol
_atom_type_description
_atom_site_fract_x
_atom_site_fract_y
_atom_site_fract_z
_atom_type_partial_charge
C1    C     C_R   0.794625 0.949807 0.778442 -0.109420
C2    C     C_R   0.384492 0.321370 0.143970 -0.113970
C3    C     C_R   0.599857 0.697020 0.815521 -0.125431
C4    C     C_R   0.436823 0.213773 0.120550 -0.123963
C5    C     C_R   0.640176 0.747302 0.915317 0.114820
C6    C     C_R   0.373710 0.157088 0.052659 0.118862
C7    C     C_R   0.753212 0.701249 0.981827 -0.169036
C8    C     C_R   0.257734 0.208985 0.009719 -0.159055
C9    C     C_R   0.824623 0.607594 0.948473 -0.110401
C10   C     C_R   0.205727 0.316131 0.036104 -0.117232
C11   C     C_R   0.783924 0.558978 0.848771 -0.103773
C12   C     C_R   0.215381 0.036276 0.215480 -0.134482
C13   C     C_R   0.269084 0.372435 0.102746 -0.106361
C14   C     C_R   0.565974 0.865526 0.045180 -0.239285
C15   C     C_R   0.424608 0.029449 0.919371 -0.201897
C16   C     C_R   0.242221 0.290190 0.489506 -0.185313
C17   C     C_R   0.801658 0.727218 0.561384 -0.216895
C18   C     C_R   0.498698 0.963595 0.077780 0.080580
C19   C     C_R   0.493420 0.933427 0.887136 0.064358
C20   C     C_R   0.429238 0.047018 0.015660 -0.001155
C21   C     C_R   0.565310 0.849446 0.948903 0.026216
C22   C     C_2   0.139466 0.398389 0.603525 -0.135602
C23   C     C_R   0.203854 0.300072 0.558797 -0.012278
C24   C     C_2   0.980241 0.655974 0.543724 -0.074585
C25   C     C_2   0.129955 0.489748 0.596472 -0.140131
C26   C     C_2   0.038983 0.584654 0.610734 -0.141987
C27   C     C_2   0.965311 0.981921 0.857346 -0.202938
C28   C     C_2   0.095603 0.940766 0.109739 -0.185304
C29   C     C_R   0.097978 0.703239 0.192349 -0.098858
C30   C     C_R   0.871611 0.146802 0.477513 0.117507
C31   C     C_R   0.197521 0.656929 0.276147 -0.170399
C32   C     C_R   0.767730 0.227586 0.432017 -0.189226
C33   C     C_R   0.299151 0.623862 0.274208 0.086464
C34   C     C_R   0.865393 0.728703 0.524166 -0.039506
C35   C     C_R   0.721958 0.311915 0.494830 0.093437
C36   C     C_R   0.299286 0.641009 0.188621 -0.148379
C37   C     C_R   0.783149 0.317123 0.603016 -0.180285
C38   C     C_R   0.199522 0.685922 0.104326 -0.089737
C39   C     C_R   0.886343 0.235540 0.648126 -0.165911
C40   C     C_R   0.595569 0.219243 0.500154 -0.099725
C41   C     C_R   0.408234 0.767671 0.445070 -0.116966
C42   C     C_R   0.099035 0.715897 0.105708 -0.139294
C43   C     C_R   0.929619 0.149594 0.585487 0.098540
C44   C     C_R   0.409065 0.467322 0.367396 -0.255773
C45   C     C_R   0.506848 0.305979 0.450541 0.046042
C46   C     C_R   0.603321 0.484712 0.435347 -0.238826
C47   C     C_R   0.510435 0.388465 0.421962 0.066555
C48   C     C_R   0.501536 0.571070 0.401743 0.055391
C49   C     C_R   0.609673 0.393752 0.447860 0.028372
C50   C     C_R   0.403873 0.556434 0.352032 0.030171
C51   C     C_2   0.023128 0.911517 0.925148 -0.112839
C52   C     C_2   0.106594 0.928521 0.023897 -0.143714
C53   C     C_R   0.408755 0.983624 0.713427 -0.098098
C54   C     C_R   0.592552 0.958443 0.268426 -0.090183
C55   C     C_R   0.412087 0.293354 0.421096 -0.127383
C56   C     C_R   0.500048 0.674804 0.446910 0.047471
C57   C     C_R   0.592186 0.695262 0.515828 -0.123434
C58   C     C_R   0.591920 0.916346 0.791237 -0.103533
C59   C     C_R   0.407501 0.034593 0.194785 -0.109863
C60   C     C_R   0.230431 0.199864 0.571857 0.459544
C61   C     C_R   0.804699 0.818276 0.474189 0.445459
C62   C     C_R   0.796635 0.041010 0.688935 -0.140591
C63   C     C_R   0.213108 0.944916 0.303866 -0.082287
C64   C     C_R   0.854594 0.994242 0.779894 0.113508
C65   C     C_R   0.168618 0.975275 0.207019 0.129226
C66   C     C_R   0.499441 0.934732 0.797323 -0.002182
C67   C     C_R   0.499884 0.978499 0.175943 0.005112
C68   C     C_R   0.671603 0.603635 0.782392 -0.113485
H1    H     H_    0.818833 0.899470 0.831754 0.084011
H2    H     H_    0.526249 0.175417 0.151833 0.115968
H3    H     H_    0.786502 0.738845 0.058662 0.125606
H4    H     H_    0.208016 0.166599 0.955307 0.126205
H5    H     H_    0.911719 0.573091 0.999715 0.108917
H6    H     H_    0.116365 0.355911 0.003239 0.108379
H7    H     H_    0.618603 0.802435 0.094790 0.136370
H8    H     H_    0.375107 0.095358 0.873537 0.172063
H9    H     H_    0.008189 0.585709 0.661267 0.131314
H10   H     H_    0.175035 0.493608 0.563056 0.139786
H11   H     H_    0.012008 0.652595 0.492782 0.173649
H12   H     H_    0.188376 0.083407 0.158030 0.095164
H13   H     H_    0.093364 0.396920 0.637328 0.166590
H14   H     H_    0.021893 0.749544 0.039875 0.100622
H15   H     H_    0.008916 0.085905 0.620559 0.164287
H16   H     H_    0.230609 0.351807 0.457223 0.123747
H17   H     H_    0.829004 0.677535 0.616818 0.123372
H18   H     H_    0.020070 0.727159 0.193590 0.138547
H19   H     H_    0.906339 0.081052 0.429175 0.156873
H20   H     H_    0.195520 0.644171 0.341249 0.135917
H21   H     H_    0.721971 0.223350 0.348457 0.122473
H22   H     H_    0.376501 0.614640 0.184765 0.116408
H23   H     H_    0.032866 0.926520 0.107784 0.143668
H24   H     H_    0.749151 0.382265 0.652151 0.117925
H25   H     H_    0.200149 0.696089 0.037214 0.121938
H26   H     H_    0.932206 0.238382 0.731598 0.123185
H27   H     H_    0.332610 0.459879 0.333937 0.128138
H28   H     H_    0.679654 0.490444 0.461742 0.142297
H29   H     H_    0.681931 0.192053 0.524231 0.145611
H30   H     H_    0.323870 0.778710 0.408374 0.117358
H31   H     H_    0.325748 0.996702 0.690729 0.212614
H32   H     H_    0.676992 0.919777 0.278853 0.185421
H33   H     H_    0.328209 0.337398 0.369234 0.094729
H34   H     H_    0.993970 0.038504 0.866290 0.133971
H35   H     H_    0.677942 0.641123 0.540322 0.104160
H36   H     H_    0.677396 0.873164 0.841364 0.104398
H37   H     H_    0.322954 0.067838 0.139027 0.097919
H38   H     H_    0.826323 0.072181 0.660900 0.130104
H39   H     H_    0.183790 0.907588 0.325342 0.122954
H40   H     H_    0.168050 0.944408 0.025226 0.139579
H41   H     H_    0.995644 0.854965 0.918057 0.122102
H42   H     H_    0.178812 0.249802 0.746229 0.327826
H43   H     H_    0.971336 0.887856 0.625842 0.327879
H44   H     H_    0.839472 0.486783 0.822983 0.103462
H45   H     H_    0.228698 0.455765 0.121232 0.128789
H46   H     H_    0.639997 0.566186 0.705087 0.114475
H47   H     H_    0.433692 0.365250 0.192339 0.129683
H48   H     H_    0.513029 0.730424 0.763116 0.120444
N1    N     N_R   0.705410 0.966550 0.689210 -0.051437
N2    N     N_R   0.556610 0.796750 0.548620 -0.042347
N3    N     N_R   0.556610 0.951620 0.703500 -0.050332
N4    N     N_R   0.443390 0.048380 0.296500 -0.046760
N5    N     N_R   0.294590 0.131500 0.522480 -0.091646
N6    N     N_R   0.705410 0.868500 0.477520 -0.097226
N7    N     N_R   0.705410 0.023370 0.632390 -0.039957
N8    N     N_R   0.294590 0.976630 0.367610 -0.045295
N9    N     N_R   0.294590 0.033450 0.310790 -0.049370
N10   N     N_R   0.294590 0.188320 0.465660 -0.070014
N11   N     N_R   0.705410 0.811680 0.534340 -0.068360
N12   N     N_R   0.556610 0.157790 0.497330 -0.039152
N13   N     N_R   0.443390 0.842210 0.502670 -0.042521
N14   N     N_R   0.443390 0.997080 0.657540 -0.056448
N15   N     N_R   0.556610 0.002920 0.342460 -0.031517
N16   N     N_R   0.443390 0.203250 0.451380 -0.046766
Ni1   Ni    Ni4+2 0.629830 0.882720 0.617850 0.196465
Ni2   Ni    Ni4+2 0.370170 0.117280 0.382150 0.211515
Ni3   Ni    Ni4+2 0.629830 0.013030 0.487540 0.287546
Ni4   Ni    Ni4+2 0.370170 0.986970 0.512460 0.279495
O1    O     O_2   0.027227 0.250339 0.541276 -0.317347
O2    O     O_2   0.151474 0.064460 0.539830 -0.323523
O3    O     O_3   0.181544 0.178809 0.717803 -0.585360
O4    O     O_2   0.888713 0.831644 0.366302 -0.316073
O5    O     O_2   0.791439 0.995264 0.451207 -0.377144
O6    O     O_3   0.987791 0.867703 0.565037 -0.519624
S1    S     S_3+6 0.144644 0.171773 0.590705 -0.107344
S2    S     S_3+6 0.866696 0.881134 0.461206 -0.103021

loop_
_geom_bond_atom_site_label_1
_geom_bond_atom_site_label_2
_ccdc_geom_bond_type
N9    Ni2   S    
C41   N13   A    
C63   C65   A    
C59   N4    A    
C45   C55   A    
C29   C42   A    
N4    N15   A    
C43   H15   S    
C14   C18   A    
C3    C68   A    
C42   H14   S    
N1    Ni1   S    
C33   C36   A    
C4    H2    S    
C63   N8    A    
C47   C49   A    
C53   H31   S    
C15   C19   A    
C54   N15   A    
C46   C49   A    
C59   H37   S    
C17   H17   S    
C14   C21   A    
H42   O3    S    
C35   C37   A    
C24   C26   D    
C38   C42   A    
N15   Ni3   S    
C3    H48   S    
C60   S1    S    
C7    H3    S    
C36   H22   S    
C33   C50   S    
C40   N12   A    
C16   H16   S    
N3    N14   A    
C56   C57   A    
C19   C66   S    
C48   C56   S    
N6    N11   A    
C2    C13   A    
C62   C64   A    
C24   H11   S    
H43   O6    S    
C59   C67   A    
O3    S1    S    
C58   C66   A    
C22   C25   D    
C35   C49   S    
C31   C33   A    
C10   H6    S    
N4    Ni2   S    
C44   C47   A    
C48   C50   A    
C15   H8    S    
O1    S1    D    
C51   H41   S    
C54   H32   S    
C23   C60   A    
C9    H5    S    
N12   N16   A    
C62   N7    A    
C27   C51   D    
C45   C47   S    
C40   C45   A    
C57   H35   S    
C46   C48   A    
C8    H4    S    
C26   H9    S    
N8    Ni4   S    
C51   C52   S    
C22   H13   S    
N11   Ni1   S    
C4    C6    A    
N12   Ni3   S    
C40   H29   S    
C5    C7    A    
C17   N11   A    
C39   C43   A    
C12   N9    A    
C25   C26   S    
C34   C61   A    
C24   C34   S    
C25   H10   S    
N7    Ni3   S    
C15   C20   A    
C2    C4    A    
C32   C35   A    
C41   C56   A    
N13   Ni4   S    
C2    H47   S    
C61   S2    S    
C32   H21   S    
C46   H28   S    
N3    Ni1   S    
C53   C66   A    
C9    C11   A    
C52   H40   S    
C29   H18   S    
N2    Ni1   S    
C62   H38   S    
N16   Ni2   S    
C39   H26   S    
O6    S2    S    
C30   C43   A    
O5    S2    D    
C58   H36   S    
C17   C34   A    
C63   H39   S    
C1    C64   A    
C11   C68   A    
C44   C50   A    
C7    C9    A    
C31   H20   S    
C37   H24   S    
C19   C21   A    
C11   H44   S    
C22   C23   S    
N14   Ni4   S    
O4    S2    D    
C3    C5    A    
C10   C13   A    
C6    C8    A    
C54   C67   A    
C16   C23   A    
C6    C20   S    
C12   C65   A    
C55   H33   S    
C27   H34   S    
O2    S1    D    
C14   H7    S    
C36   C38   A    
C28   C65   S    
C18   C67   S    
N5    N10   A    
C29   C31   A    
C44   H27   S    
C30   C32   A    
C28   C52   D    
C12   H12   S    
C38   H25   S    
C58   N3    A    
C28   H23   S    
C18   C20   A    
N5    Ni4   S    
N1    N7    A    
C60   N5    A    
C1    H1    S    
N6    Ni3   S    
C27   C64   S    
C37   C39   A    
C5    C21   S    
N10   Ni2   S    
C8    C10   A    
C55   N16   A    
N2    N13   A    
C41   H30   S    
C61   N6    A    
C53   N14   A    
C30   H19   S    
C1    N1    A    
C16   N10   A    
N8    N9    A    
C13   H45   S    
C68   H46   S    
C57   N2    A    
