data_mof_unit_34576.cif
_audit_creation_date              2012-12-10T17:23:44-0500
_audit_creation_method            fapswitch 2.2
_symmetry_space_group_name_H-M    P1
_symmetry_Int_Tables_number       1
_space_group_crystal_system       triclinic
_cell_length_a                    9.605344
_cell_length_b                    10.778574
_cell_length_c                    17.364278
_cell_angle_alpha                 92.57791
_cell_angle_beta                  85.998919
_cell_angle_gamma                 90.038281
_cell_volume                      1791.55484776

loop_
_atom_site_label
_atom_site_type_symbol
_atom_type_description
_atom_site_fract_x
_atom_site_fract_y
_atom_site_fract_z
_atom_type_partial_charge
C1    C     C_R   0.499658 0.737407 0.502706 0.794850
C2    C     C_R   0.343063 0.494147 0.776114 -0.209804
C3    C     C_R   0.412235 0.514247 0.147157 -0.149789
C4    C     C_R   0.405207 0.513226 0.227125 -0.206096
C5    C     C_R   0.657085 0.491383 0.223645 -0.202879
C6    C     C_R   0.663990 0.492060 0.143338 -0.172584
C7    C     C_R   0.541568 0.501494 0.104663 0.192905
C8    C     C_2   0.448770 0.458916 0.977788 -0.232335
C9    C     C_2   0.552083 0.500877 0.020054 -0.229877
C10   C     C_R   0.527367 0.501252 0.265972 -0.028019
C11   C     C_R   0.337355 0.879671 0.625528 -0.186869
C12   C     C_R   0.481778 0.497782 0.649630 0.766913
C13   C     C_R   0.258571 0.948755 0.682731 -0.141805
C14   C     C_R   0.258497 0.077778 0.682647 -0.130740
C15   C     C_R   0.337119 0.138537 0.625326 -0.169244
C16   C     C_R   0.415981 0.070422 0.565871 0.098313
C17   C     C_R   0.416094 0.939168 0.565986 0.097951
C18   C     C_R   0.499150 0.871611 0.507987 -0.102524
C19   C     C_R   0.584798 0.932618 0.453640 -0.193331
C20   C     C_R   0.584688 0.060600 0.453510 -0.206356
C21   C     C_R   0.498952 0.129519 0.507744 -0.089120
C22   C     C_R   0.868884 0.335355 0.397039 -0.150641
C23   C     C_R   0.499652 0.262921 0.502359 0.768190
C24   C     C_R   0.947269 0.254838 0.346681 -0.220220
C25   C     C_R   0.090734 0.254630 0.346744 -0.203753
C26   C     C_R   0.156707 0.334951 0.397159 -0.141830
C27   C     C_R   0.081079 0.418932 0.449437 0.206904
C28   C     C_R   0.931553 0.419055 0.449413 0.213291
C29   C     C_R   0.920128 0.576974 0.548186 -0.062699
C30   C     C_R   0.067981 0.576949 0.548165 -0.062076
C31   C     C_R   0.518209 0.500118 0.350283 0.772240
C32   C     C_R   0.472578 0.487045 0.733415 -0.025677
C33   C     C_R   0.594107 0.464878 0.771026 -0.199488
C34   C     C_R   0.586902 0.452460 0.850293 -0.151919
C35   C     C_R   0.458139 0.463935 0.893413 0.195740
C36   C     C_R   0.336016 0.482201 0.855791 -0.172386
Cu1   Cu    Cu3+1 0.359340 0.500010 0.500010 0.926691
Cu2   Cu    Cu3+1 0.640660 0.499990 0.499990 0.934893
H1    H     H_    0.694982 0.456049 0.739239 0.154693
H2    H     H_    0.764702 0.483634 0.111294 0.121667
H3    H     H_    0.649710 0.880628 0.409911 0.152619
H4    H     H_    0.337849 0.779915 0.629623 0.137855
H5    H     H_    0.198844 0.901975 0.727937 0.130711
H6    H     H_    0.198741 0.131142 0.727796 0.134764
H7    H     H_    0.337259 0.238840 0.629260 0.154186
H8    H     H_    0.649520 0.106128 0.409675 0.137828
H9    H     H_    0.860085 0.640119 0.587712 0.138216
H10   H     H_    0.895971 0.192010 0.307336 0.146430
H11   H     H_    0.151708 0.191639 0.307435 0.150716
H12   H     H_    0.267032 0.326873 0.392477 0.198567
H13   H     H_    0.118205 0.640073 0.587679 0.131770
H14   H     H_    0.235706 0.489857 0.888310 0.119752
H15   H     H_    0.316479 0.527102 0.119159 0.122864
H16   H     H_    0.247650 0.509724 0.748172 0.147693
H17   H     H_    0.682110 0.432988 0.877389 0.121515
N1    N     N_R   0.852190 0.498790 0.499250 -0.200096
N2    N     N_R   0.148060 0.498710 0.499220 -0.199755
O1    O     O_R   0.381190 0.680360 0.500010 -0.576391
O2    O     O_R   0.618760 0.680340 0.500000 -0.573134
O3    O     O_R   0.367440 0.500030 0.613600 -0.598821
O4    O     O_R   0.605010 0.500010 0.613590 -0.582411
O5    O     O_R   0.381240 0.319660 0.500000 -0.601997
O6    O     O_R   0.618810 0.319640 0.499990 -0.589413
O7    O     O_R   0.394990 0.499990 0.386410 -0.600743
O8    O     O_R   0.632560 0.499970 0.386400 -0.602855
H18   H     H_    0.759757 0.327691 0.392252 0.193234
H19   H     H_    0.303934 0.522777 0.258423 0.160543
H20   H     H_    0.752868 0.482556 0.252398 0.156738
H21   H     H_    0.648200 0.535485 0.992216 0.143627
H22   H     H_    0.352391 0.424562 0.005424 0.142808

loop_
_geom_bond_atom_site_label_1
_geom_bond_atom_site_label_2
_ccdc_geom_bond_type
C17   C18   A    
C4    H19   S    
C30   H13   S    
C24   C25   A    
C22   H18   S    
C16   C21   A    
C29   N1    A    
C11   C13   A    
C8    H22   S    
Cu1   O1    S    
C36   H14   S    
Cu2   O8    S    
Cu2   O4    S    
C32   C33   A    
C25   H11   S    
C26   H12   S    
Cu1   O5    S    
C1    C18   S    
C34   H17   S    
C5    C10   A    
C22   C28   A    
C13   C14   A    
C12   C32   S    
C27   N2    A    
C12   O4    A    
C3    H15   S    
C26   C27   A    
C29   C30   A    
C29   H9    S    
C5    H20   S    
C31   O7    A    
C2    C32   A    
C23   O6    A    
Cu1   Cu2   S    
C9    H21   S    
C33   C34   A    
C6    C7    A    
C6    H2    S    
C1    O2    A    
C21   C23   S    
C28   N1    A    
C5    C6    A    
C22   C24   A    
C20   H8    S    
Cu1   O3    S    
C16   C17   A    
C15   H7    S    
C4    C10   A    
C15   C16   A    
C24   H10   S    
C30   N2    A    
C19   H3    S    
C13   H5    S    
Cu1   O7    S    
Cu2   N1    S    
C20   C21   A    
C11   C17   A    
C11   H4    S    
C14   H6    S    
C34   C35   A    
C2    H16   S    
C2    C36   A    
C27   C28   A    
C7    C9    S    
C31   O8    A    
C14   C15   A    
C18   C19   A    
C35   C36   A    
C3    C7    A    
C25   C26   A    
C1    O1    A    
C10   C31   S    
C33   H1    S    
C23   O5    A    
Cu1   N2    S    
C3    C4    A    
C19   C20   A    
Cu2   O2    S    
C8    C9    D    
Cu2   O6    S    
C8    C35   S    
C12   O3    A    
