data_mof_unit_28550.cif
_audit_creation_date              2012-12-10T18:02:12-0500
_audit_creation_method            fapswitch 2.2
_symmetry_space_group_name_H-M    P1
_symmetry_Int_Tables_number       1
_space_group_crystal_system       triclinic
_cell_length_a                    10.894893
_cell_length_b                    9.498258
_cell_length_c                    23.515152
_cell_angle_alpha                 90.517013
_cell_angle_beta                  89.529276
_cell_angle_gamma                 89.795889
_cell_volume                      2433.20954356

loop_
_atom_site_label
_atom_site_type_symbol
_atom_type_description
_atom_site_fract_x
_atom_site_fract_y
_atom_site_fract_z
_atom_type_partial_charge
C1    C     C_R   0.262251 0.500280 0.500221 0.900983
C2    C     C_R   0.738065 0.499478 0.500791 0.898923
C3    C     C_R   0.541912 0.413620 0.234488 -0.160289
C4    C     C_R   0.380510 0.477216 0.758768 -0.145697
C5    C     C_R   0.551047 0.405771 0.293332 0.203836
C6    C     C_R   0.384918 0.471973 0.699592 0.203599
C7    C     C_R   0.483832 0.499937 0.328344 -0.251344
C8    C     C_R   0.495615 0.500595 0.670914 -0.245314
C9    C     C_R   0.400554 0.595271 0.302935 0.368270
C10   C     C_R   0.603367 0.526702 0.701994 0.353329
C11   C     C_R   0.388687 0.598416 0.243407 0.273462
C12   C     C_R   0.597953 0.532750 0.761696 0.257358
C13   C     C_R   0.461687 0.508868 0.208938 0.139663
C14   C     C_R   0.485806 0.508464 0.790071 0.149350
C15   C     C_R   0.065612 0.395683 0.469800 0.186507
C16   C     C_R   0.935656 0.603381 0.532450 0.205459
C17   C     C_R   0.937921 0.390573 0.472537 0.243032
C18   C     C_R   0.063842 0.603494 0.532444 0.244422
C19   C     C_R   0.872176 0.497769 0.501964 -0.299745
C20   C     C_R   0.128741 0.500614 0.500495 -0.278361
C21   C     C_R   0.443129 0.073682 0.457808 0.076307
C22   C     C_R   0.556841 0.926341 0.542203 0.051911
C23   C     C_R   0.557367 0.075175 0.542075 0.039895
C24   C     C_R   0.442564 0.924871 0.457958 0.034653
C25   C     C_R   0.497666 0.499589 0.390831 0.884966
C26   C     C_R   0.499485 0.500380 0.608805 0.919828
C27   C     C_R   0.488612 0.636344 0.879794 0.635741
C28   C     C_R   0.427434 0.390956 0.118520 0.593891
C29   C     C_R   0.459090 0.387314 0.879176 0.597360
C30   C     C_R   0.486718 0.632655 0.119534 0.638505
C31   C     C_R   0.449735 0.386331 0.938624 -0.071809
C32   C     C_R   0.483389 0.636799 0.059998 -0.079572
C33   C     C_R   0.464982 0.513019 0.969210 -0.072266
C34   C     C_R   0.460444 0.511996 0.029276 -0.076350
C35   C     C_R   0.485948 0.640189 0.939826 -0.112393
C36   C     C_R   0.434484 0.386044 0.058585 -0.107221
C37   C     C_R   0.427493 0.260920 0.967856 -0.247519
C38   C     C_R   0.503911 0.762729 0.030829 -0.237816
C39   C     C_R   0.416459 0.259737 0.027299 0.484637
C40   C     C_R   0.505431 0.765943 0.971251 0.479808
Cu1   Cu    Cu3+1 0.500000 0.640660 0.500000 1.048854
Cu2   Cu    Cu3+1 0.500000 0.359340 0.500000 1.043161
H1    H     H_    0.419447 0.162539 0.944638 0.230863
H2    H     H_    0.517186 0.860220 0.054176 0.228924
H3    H     H_    0.597623 0.344138 0.208063 0.207523
H4    H     H_    0.294824 0.456475 0.780766 0.202045
H5    H     H_    0.398273 0.128974 0.423803 0.176264
H6    H     H_    0.601610 0.871050 0.576229 0.175052
H7    H     H_    0.603799 0.131698 0.575677 0.131379
H8    H     H_    0.395956 0.868443 0.424430 0.182275
N1    N     N_R   0.478311 0.510863 0.851109 -0.447126
N2    N     N_R   0.455716 0.512122 0.147705 -0.446577
N3    N     N_R   0.500000 0.852070 0.500000 -0.185732
N4    N     N_R   0.500000 0.147930 0.500000 -0.176143
O1    O     O_R   0.319640 0.618740 0.500000 -0.564857
O2    O     O_R   0.680360 0.381260 0.500000 -0.558219
O3    O     O_R   0.680360 0.618740 0.500000 -0.549649
O4    O     O_R   0.319640 0.381260 0.500000 -0.540444
O5    O     O_R   0.499960 0.618810 0.417880 -0.563046
O6    O     O_R   0.500040 0.381190 0.582120 -0.598187
O7    O     O_R   0.500040 0.618810 0.582120 -0.554219
O8    O     O_R   0.499960 0.381190 0.417880 -0.556601
O9    O     O_2   0.501818 0.756217 0.850066 -0.435188
O10   O     O_2   0.392423 0.275951 0.147658 -0.446306
O11   O     O_2   0.449483 0.265558 0.849507 -0.499938
O12   O     O_2   0.522701 0.747666 0.149029 -0.476961
O13   O     O_3   0.402695 0.132585 0.055016 -0.539613
C41   C     C_3   0.285072 0.077585 0.043976 -0.175541
H9    H     H_    0.211377 0.156521 0.052983 0.160584
H10   H     H_    0.269302 0.987010 0.072559 0.216696
H11   H     H_    0.278581 0.037392 0.999586 0.154841
O14   O     O_3   0.518355 0.893722 0.944057 -0.546581
C42   C     C_3   0.641312 0.938314 0.948278 -0.179577
H12   H     H_    0.653342 0.033250 0.921689 0.209881
H13   H     H_    0.706364 0.856421 0.931918 0.176688
H14   H     H_    0.664285 0.968518 0.992708 0.148128
Br1   Br    Br    0.659791 0.265627 0.322234 -0.359078
Br2   Br    Br    0.237662 0.423884 0.659736 -0.417857
O15   O     O_3   0.333904 0.690103 0.335950 -0.551545
C43   C     C_3   0.224426 0.624949 0.353982 -0.179765
H15   H     H_    0.243694 0.530169 0.379628 0.136208
H16   H     H_    0.165301 0.596499 0.317333 0.200938
H17   H     H_    0.172367 0.700050 0.381456 0.196852
O16   O     O_3   0.713149 0.552160 0.674094 -0.525153
C44   C     C_3   0.773281 0.422343 0.664017 -0.156715
H18   H     H_    0.864040 0.443346 0.644191 0.218513
H19   H     H_    0.720970 0.354961 0.633949 0.121650
H20   H     H_    0.789938 0.364717 0.704249 0.186131
Br3   Br    Br    0.267790 0.720877 0.210427 -0.376003
Br4   Br    Br    0.745102 0.569405 0.803896 -0.399882
Br5   Br    Br    0.150948 0.262391 0.420253 -0.436823
Br6   Br    Br    0.850258 0.743577 0.578324 -0.360376
Br7   Br    Br    0.857970 0.233367 0.435384 -0.307786
Br8   Br    Br    0.147995 0.742126 0.578983 -0.321963

loop_
_geom_bond_atom_site_label_1
_geom_bond_atom_site_label_2
_ccdc_geom_bond_type
C22   H6    S    
C8    C10   A    
C8    C26   S    
Cu1   Cu2   S    
Cu1   O7    S    
Cu2   O4    S    
C2    O3    A    
C4    H4    S    
C44   H18   S    
C12   Br4   S    
C38   C40   A    
C26   O7    A    
C41   H11   S    
C9    O15   S    
C21   N4    A    
C33   C35   A    
C23   H7    S    
C15   C17   A    
C42   H12   S    
Cu1   O1    S    
Cu2   O2    S    
C41   H9    S    
C31   C33   A    
C32   C38   A    
Cu2   O8    S    
C34   C36   A    
C3    C13   A    
C42   H13   S    
C43   H17   S    
C27   N1    A    
C22   N3    A    
C44   H19   S    
C24   H8    S    
C15   C20   A    
O13   C41   S    
O16   C44   S    
Cu1   O5    S    
C4    C6    A    
Cu2   O6    S    
C5    C7    A    
C43   H15   S    
C6    C8    A    
C27   C35   A    
C24   N3    A    
C3    H3    S    
C31   C37   A    
C32   C34   A    
C37   H1    S    
C38   H2    S    
C13   N2    S    
C11   Br3   S    
C14   N1    S    
C33   C34   A    
C9    C11   A    
Cu1   N3    S    
C30   O12   S    
C10   C12   A    
C29   O11   S    
C28   O10   S    
C16   C18   A    
C12   C14   A    
C16   Br6   S    
C18   Br8   S    
C42   H14   S    
C17   Br7   S    
C5    Br1   S    
C23   N4    A    
C29   N1    A    
C44   H20   S    
C7    C9    A    
C30   N2    A    
C1    C20   S    
C40   O14   S    
C2    C19   S    
C39   O13   S    
C36   C39   A    
O14   C42   S    
C3    C5    A    
C28   N2    A    
C7    C25   S    
C35   C40   A    
C1    O1    A    
Cu1   O3    S    
C29   C31   A    
C2    O2    A    
C1    O4    A    
Cu2   N4    S    
C30   C32   A    
C11   C13   A    
C16   C19   A    
C10   O16   S    
C17   C19   A    
C43   H16   S    
C18   C20   A    
C25   O8    A    
C4    C14   A    
C6    Br2   S    
C15   Br5   S    
O15   C43   S    
C28   C36   A    
C37   C39   A    
C21   C24   A    
C41   H10   S    
C22   C23   A    
C27   O9    S    
C25   O5    A    
C26   O6    A    
C21   H5    S    
