data_mof_unit_18847.cif
_audit_creation_date              2012-12-10T18:05:52-0500
_audit_creation_method            fapswitch 2.2
_symmetry_space_group_name_H-M    P1
_symmetry_Int_Tables_number       1
_space_group_crystal_system       triclinic
_cell_length_a                    12.620812
_cell_length_b                    13.098494
_cell_length_c                    14.93248
_cell_angle_alpha                 91.362744
_cell_angle_beta                  102.23319
_cell_angle_gamma                 82.470173
_cell_volume                      2391.66639778

loop_
_atom_site_label
_atom_site_type_symbol
_atom_type_description
_atom_site_fract_x
_atom_site_fract_y
_atom_site_fract_z
_atom_type_partial_charge
C1    C     C_R   0.439174 0.691181 0.488163 0.849638
C2    C     C_R   0.423892 0.448640 0.078504 0.106425
C3    C     C_R   0.623187 0.633975 0.071631 -0.220946
C4    C     C_R   0.626576 0.630837 0.979107 -0.219701
C5    C     C_R   0.562853 0.567498 0.919653 0.120895
C6    C     C_R   0.494037 0.507517 0.952664 0.058095
C7    C     C_R   0.429380 0.443568 0.893236 0.119482
C8    C     C_R   0.362084 0.383533 0.926477 -0.218448
C9    C     C_R   0.359447 0.385972 0.019028 -0.220569
C10   C     C_R   0.566389 0.563063 0.827516 -0.260460
C11   C     C_R   0.501127 0.500553 0.768990 -0.068434
C12   C     C_R   0.500669 0.499876 0.672956 0.882539
C13   C     C_R   0.433299 0.440747 0.801385 -0.266298
C14   C     C_R   0.681740 0.070865 0.411463 -0.203946
C15   C     C_R   0.598071 0.200825 0.500669 -0.075095
C16   C     C_R   0.308125 0.837582 0.518035 -0.195237
C17   C     C_R   0.280888 0.942647 0.528526 -0.163553
C18   C     C_R   0.349716 0.010793 0.510484 -0.186712
C19   C     C_R   0.449006 0.973801 0.484704 0.072768
C20   C     C_R   0.465444 0.870244 0.457936 0.081802
C21   C     C_R   0.530583 0.036880 0.481022 0.044890
C22   C     C_R   0.609233 0.004452 0.426924 0.146488
C23   C     C_R   0.560880 0.309107 0.508710 0.848338
C24   C     C_R   0.614131 0.906380 0.388532 -0.242566
C25   C     C_R   0.545143 0.838794 0.406000 -0.197777
C26   C     C_R   0.539959 0.129656 0.530867 0.034292
C27   C     C_R   0.672298 0.170683 0.444524 -0.238042
C28   C     C_R   0.400976 0.800879 0.483587 -0.109291
C29   C     C_R   0.099593 0.322879 0.395111 0.009036
C30   C     C_R   0.799802 0.631376 0.608150 0.028944
C31   C     C_R   0.903451 0.661932 0.627911 -0.255782
C32   C     C_R   0.983800 0.613384 0.584676 -0.183435
C33   C     C_R   0.960654 0.533428 0.520861 0.026913
C34   C     C_R   0.498348 0.502099 0.326993 0.862547
C35   C     C_R   0.853996 0.505118 0.503614 0.197598
C36   C     C_R   0.039945 0.478103 0.476730 -0.064857
C37   C     C_R   0.012796 0.392173 0.419332 0.098653
C38   C     C_R   0.901094 0.378304 0.390833 0.033126
C39   C     C_R   0.826543 0.428567 0.439434 -0.243205
C40   C     C_R   0.146606 0.504032 0.488744 -0.048172
C41   C     C_R   0.202785 0.355164 0.409161 -0.042143
C42   C     C_R   0.425478 0.447978 0.171353 -0.252134
C43   C     C_R   0.493150 0.507923 0.230490 -0.062063
C44   C     C_R   0.555854 0.572784 0.197679 -0.288887
C45   C     C_R   0.556297 0.573578 0.105025 0.130110
C46   C     C_R   0.490760 0.510560 0.045258 0.054002
H1    H     H_    0.376820 0.398410 0.198015 0.154909
H2    H     H_    0.673258 0.880958 0.346927 0.145036
H3    H     H_    0.740526 0.047872 0.368993 0.140920
H4    H     H_    0.257732 0.785016 0.538130 0.149263
H5    H     H_    0.322354 0.091966 0.512852 0.134188
H6    H     H_    0.207783 0.970921 0.552961 0.152613
H7    H     H_    0.552281 0.762896 0.375856 0.162083
H8    H     H_    0.270183 0.306789 0.389245 0.136942
H9    H     H_    0.606352 0.620267 0.244582 0.152007
H10   H     H_    0.172567 0.570443 0.526703 0.127080
H11   H     H_    0.736709 0.669266 0.640940 0.130707
H12   H     H_    0.063149 0.639056 0.603840 0.133671
H13   H     H_    0.921603 0.722948 0.676722 0.146628
H14   H     H_    0.746368 0.407409 0.425751 0.215270
H15   H     H_    0.673705 0.682472 0.117188 0.144580
H16   H     H_    0.679284 0.677336 0.954143 0.144631
H17   H     H_    0.617951 0.609627 0.800976 0.150668
H18   H     H_    0.384033 0.391723 0.755099 0.157823
H19   H     H_    0.312299 0.334309 0.881089 0.146456
H20   H     H_    0.308058 0.338226 0.044250 0.146820
N1    N     N_R   0.222190 0.444670 0.452360 -0.111491
N2    N     N_R   0.776970 0.554790 0.547140 -0.125216
O1    O     O_R   0.366740 0.627160 0.477250 -0.612620
O2    O     O_R   0.544830 0.662520 0.507680 -0.617769
O3    O     O_R   0.410940 0.482340 0.616930 -0.620215
O4    O     O_R   0.589030 0.517700 0.647360 -0.619974
O5    O     O_R   0.455170 0.337480 0.492320 -0.619974
O6    O     O_R   0.633260 0.372840 0.522750 -0.631421
O7    O     O_R   0.410970 0.482300 0.352640 -0.609955
O8    O     O_R   0.589060 0.517660 0.383070 -0.652083
Zn1   Zn    Zn3+2 0.381090 0.476390 0.479680 0.933873
Zn2   Zn    Zn3+2 0.618910 0.523610 0.520320 0.921936
C47   C     C_3   0.506902 0.149599 0.623514 -0.401796
C48   C     C_3   0.554430 0.061228 0.692024 -0.335895
C49   C     C_3   0.527809 0.086790 0.785755 -0.888141
H21   H     H_    0.563295 0.156992 0.814122 0.264653
H22   H     H_    0.437852 0.099635 0.780069 0.261078
H23   H     H_    0.562902 0.021667 0.833748 0.250439
H24   H     H_    0.520731 0.989139 0.667413 0.235206
H25   H     H_    0.644725 0.047334 0.699667 0.223429
H26   H     H_    0.539855 0.219702 0.655353 0.191596
H27   H     H_    0.417781 0.167825 0.617231 0.195336
C50   C     C_3   0.859653 0.317951 0.304625 -0.439995
C51   C     C_3   0.745521 0.359326 0.249943 -0.343228
C52   C     C_3   0.720048 0.304388 0.157965 -0.868819
H28   H     H_    0.777302 0.320499 0.114476 0.259281
H29   H     H_    0.726772 0.219951 0.168696 0.256211
H30   H     H_    0.635561 0.331872 0.121383 0.263960
H31   H     H_    0.682043 0.346429 0.288184 0.216844
H32   H     H_    0.742306 0.442924 0.237429 0.247266
H33   H     H_    0.914859 0.324054 0.256764 0.217384
H34   H     H_    0.859595 0.236267 0.322434 0.211865
C53   C     C_3   0.092522 0.210283 0.368544 -0.435110
C54   C     C_3   0.055190 0.150299 0.441089 -0.321664
C55   C     C_3   0.027234 0.044832 0.405211 -0.905560
H35   H     H_    0.955791 0.053804 0.346699 0.252525
H36   H     H_    0.097748 0.000475 0.382159 0.278175
H37   H     H_    0.006248 0.001017 0.460378 0.248950
H38   H     H_    0.121384 0.140700 0.503565 0.208743
H39   H     H_    0.982217 0.192331 0.461919 0.228495
H40   H     H_    0.041663 0.202020 0.299573 0.199878
H41   H     H_    0.174255 0.170896 0.362243 0.190627
H42   H     H_    0.719367 0.225332 0.423210 0.152057

loop_
_geom_bond_atom_site_label_1
_geom_bond_atom_site_label_2
_ccdc_geom_bond_type
C16   C28   A    
C21   C26   A    
C55   H35   S    
O2    Zn2   S    
O1    Zn1   S    
C19   C20   A    
N1    Zn1   S    
C32   H12   S    
C10   H17   S    
C47   H26   S    
C49   H21   S    
C7    C8    A    
C41   N1    A    
C45   C46   A    
C2    C46   A    
C53   H41   S    
C38   C50   S    
C54   H38   S    
C37   C38   A    
C36   C37   A    
C19   C21   A    
C25   H7    S    
C30   C31   A    
C48   C49   S    
C14   H3    S    
C20   C25   A    
C30   H11   S    
C4    H16   S    
C33   C36   A    
C18   C19   A    
C31   H13   S    
C9    H20   S    
O4    Zn2   S    
C31   C32   A    
C8    C9    A    
C40   H10   S    
C40   N1    A    
C1    C28   S    
C48   H25   S    
C14   C27   A    
C34   O7    A    
C15   C23   S    
C12   O4    A    
C8    H19   S    
C55   H36   S    
C21   C22   A    
C23   O5    A    
C17   H6    S    
C47   H27   S    
C49   H22   S    
C18   H5    S    
C3    H15   S    
N2    Zn2   S    
C38   C39   A    
C29   C53   S    
C24   H2    S    
C36   C40   A    
C24   C25   A    
C52   H28   S    
C16   C17   A    
C15   C26   A    
C20   C28   A    
C3    C45   A    
C1    O1    A    
C50   H33   S    
C35   C39   A    
C43   C44   A    
C48   H24   S    
C52   H29   S    
C15   C27   A    
C53   C54   S    
C17   C18   A    
O7    Zn1   S    
C12   O3    A    
C55   H37   S    
C22   C24   A    
C42   C43   A    
C23   O6    A    
C3    C4    A    
O3    Zn1   S    
C49   H23   S    
C44   C45   A    
C6    C46   A    
C29   C41   A    
C34   C43   S    
C26   C47   S    
O8    Zn2   S    
C4    C5    A    
C51   H31   S    
C11   C12   S    
C51   H32   S    
C6    C7    A    
C53   H40   S    
C54   H39   S    
C1    O2    A    
C50   H34   S    
C32   C33   A    
C14   C22   A    
C5    C10   A    
C52   H30   S    
C11   C13   A    
C44   H9    S    
C51   C52   S    
C5    C6    A    
C13   H18   S    
C35   N2    A    
C2    C42   A    
C39   H14   S    
C54   C55   S    
C33   C35   A    
C42   H1    S    
C16   H4    S    
C41   H8    S    
C10   C11   A    
C47   C48   S    
C7    C13   A    
C27   H42   S    
O6    Zn2   S    
C29   C37   A    
O5    Zn1   S    
C50   C51   S    
C2    C9    A    
C30   N2    A    
C34   O8    A    
