data_mof_unit_44946.cif
_audit_creation_date              2012-10-26T21:03:35-0400
_audit_creation_method            fapswitch 2.2
_symmetry_space_group_name_H-M    P1
_symmetry_Int_Tables_number       1
_space_group_crystal_system       triclinic
_cell_length_a                    15.988919
_cell_length_b                    14.723979
_cell_length_c                    10.738669
_cell_angle_alpha                 89.905751
_cell_angle_beta                  89.706412
_cell_angle_gamma                 90.150332
_cell_volume                      2528.05753922

loop_
_atom_site_label
_atom_site_type_symbol
_atom_type_description
_atom_site_fract_x
_atom_site_fract_y
_atom_site_fract_z
_atom_type_partial_charge
C1    C     C_R   0.340801 0.499819 0.499617 0.586614
C2    C     C_R   0.527150 0.952199 0.394973 -0.090076
C3    C     C_R   0.499928 0.902865 0.500069 0.003700
C4    C     C_R   0.527185 0.048138 0.394980 -0.082664
C5    C     C_R   0.472705 0.047753 0.605136 -0.085511
C6    C     C_R   0.499954 0.097108 0.500050 0.006778
C7    C     C_1   0.499954 0.802812 0.500060 0.205775
C8    C     C_1   0.499978 0.197194 0.500027 0.207474
C9    C     C_R   0.511513 0.499908 0.261591 0.606026
C10   C     C_R   0.488667 0.499661 0.738496 0.597410
C11   C     C_R   0.555821 0.664373 0.098665 0.284459
C12   C     C_R   0.659214 0.500073 0.500154 0.578640
C13   C     C_R   0.442151 0.662945 0.900312 0.265777
C14   C     C_R   0.528845 0.745849 0.045330 -0.111705
C15   C     C_R   0.468529 0.745136 0.952391 -0.141846
C16   C     C_R   0.478671 0.580593 0.942422 -0.068710
C17   C     C_R   0.520322 0.581183 0.057358 -0.076629
C18   C     C_R   0.524261 0.498874 0.124897 -0.004969
C19   C     C_R   0.476234 0.498139 0.875291 -0.006129
C20   C     C_R   0.517622 0.415334 0.060883 0.219551
C21   C     C_R   0.484847 0.414777 0.939720 0.219296
C22   C     C_R   0.956526 0.550926 0.567109 -0.144978
C23   C     C_R   0.955978 0.441760 0.395707 0.246093
C24   C     C_R   0.043079 0.550155 0.568280 -0.129748
C25   C     C_R   0.912853 0.497541 0.482161 -0.010312
C26   C     C_R   0.087184 0.492205 0.489339 -0.011658
C27   C     C_R   0.044504 0.433574 0.406285 0.213865
C28   C     C_1   0.823235 0.499334 0.489334 0.049823
C29   C     C_1   0.176766 0.496248 0.494155 0.060957
C30   C     C_1   0.251757 0.498949 0.497382 0.101577
C31   C     C_1   0.748254 0.500133 0.495319 0.085936
C32   C     C_R   0.472709 0.951807 0.605160 -0.091295
Cu1   Cu    Cu3+1 0.500000 0.589220 0.500000 1.152152
Cu2   Cu    Cu3+1 0.500000 0.410780 0.500000 1.165116
H1    H     H_    0.554073 0.810143 0.076741 0.161783
H2    H     H_    0.347908 0.283867 0.735904 0.363799
H3    H     H_    0.769884 0.730812 0.164033 0.382836
H4    H     H_    0.287763 0.787381 0.874997 0.346203
H5    H     H_    0.922415 0.336864 0.088646 0.386295
H6    H     H_    0.033444 0.230384 0.382436 0.356239
H7    H     H_    0.443000 0.808910 0.919890 0.130480
H8    H     H_    0.075893 0.594090 0.632697 0.177097
H9    H     H_    0.923361 0.594274 0.632126 0.157061
H10   H     H_    0.451347 0.083448 0.687439 0.162261
H11   H     H_    0.548570 0.084124 0.312675 0.166749
H12   H     H_    0.451387 0.915777 0.687492 0.134157
H13   H     H_    0.548462 0.916480 0.312645 0.143675
H14   H     H_    0.660695 0.289036 0.261282 0.373211
N1    N     N_1   0.500000 0.276710 0.500000 -0.150493
N2    N     N_1   0.500000 0.723290 0.500000 -0.133140
O1    O     O_R   0.380310 0.575320 0.500020 -0.465539
O2    O     O_2   0.604271 0.260527 0.019271 -0.203217
O3    O     O_3   0.643152 0.346309 0.220681 -0.463387
O4    O     O_2   0.503751 0.259578 0.809842 -0.262591
O5    O     O_2   0.402782 0.256519 0.982211 -0.186069
O6    O     O_3   0.360914 0.340826 0.780875 -0.485004
O7    O     O_2   0.630694 0.717767 0.308909 -0.295598
O8    O     O_2   0.681795 0.575896 0.215444 -0.237547
O9    O     O_3   0.720572 0.728382 0.108652 -0.501865
O10   O     O_2   0.366059 0.714343 0.689436 -0.300817
O11   O     O_2   0.317466 0.571596 0.783412 -0.234946
O12   O     O_R   0.619690 0.575320 0.499980 -0.466449
O13   O     O_3   0.275557 0.722235 0.889656 -0.472950
O14   O     O_2   0.869788 0.295571 0.320182 -0.262683
O15   O     O_2   0.823269 0.442256 0.239749 -0.217261
O16   O     O_3   0.957078 0.374212 0.145189 -0.410214
O17   O     O_2   0.128928 0.388167 0.199200 -0.159264
O18   O     O_2   0.179052 0.321223 0.392718 -0.280521
O19   O     O_3   0.044527 0.255361 0.298225 -0.406520
O20   O     O_R   0.380310 0.424640 0.499960 -0.480001
O21   O     O_R   0.619690 0.424640 0.500040 -0.491165
O22   O     O_R   0.500000 0.575360 0.319640 -0.489615
O23   O     O_R   0.500000 0.575360 0.680360 -0.490267
O24   O     O_R   0.500000 0.424670 0.319580 -0.445851
O25   O     O_R   0.500000 0.424670 0.680420 -0.452191
O26   O     O_2   0.502940 0.259353 0.191239 -0.253542
S1    S     S_3+6 0.566409 0.316011 0.122302 0.098732
S2    S     S_3+6 0.438780 0.313602 0.878892 0.098905
S3    S     S_3+6 0.648175 0.669089 0.188922 0.033476
S4    S     S_3+6 0.349665 0.665503 0.809996 0.039297
S5    S     S_3+6 0.898566 0.387040 0.274460 0.085008
S6    S     S_3+6 0.102162 0.349260 0.322591 0.100648

loop_
_geom_bond_atom_site_label_1
_geom_bond_atom_site_label_2
_ccdc_geom_bond_type
C24   H8    S    
O7    S3    D    
C2    C4    A    
C9    O22   A    
C25   C28   S    
C26   C27   A    
C20   S1    S    
C19   C21   A    
C24   C26   A    
C3    C7    S    
C5    C6    A    
C10   O23   A    
O11   S4    D    
O6    S2    S    
O19   S6    S    
Cu1   O22   S    
C11   C17   A    
Cu1   O12   S    
C22   C25   A    
C21   S2    S    
C26   C29   S    
C23   C27   A    
Cu2   O20   S    
Cu2   O25   S    
O13   S4    S    
C5    C32   A    
C13   S4    S    
C17   C18   A    
C4    H11   S    
C28   C31   T    
H14   O3    S    
H6    O19   S    
O26   S1    D    
C15   H7    S    
C4    C6    A    
O9    S3    S    
C14   H1    S    
O5    S2    D    
C16   C17   A    
C6    C8    S    
Cu1   N2    S    
O3    S1    S    
C29   C30   T    
H2    O6    S    
C12   O12   A    
C10   O25   A    
O15   S5    D    
C22   H9    S    
C10   C19   S    
Cu1   Cu2   S    
C1    O1    A    
H3    O9    S    
C11   S3    S    
O8    S3    D    
Cu2   O24   S    
Cu1   O23   S    
C5    H10   S    
C13   C15   A    
C12   C31   S    
H5    O16   S    
C22   C24   A    
C9    O24   A    
O2    S1    D    
H4    O13   S    
O10   S4    D    
Cu2   N1    S    
C23   S5    S    
C32   H12   S    
C12   O21   A    
C27   S6    S    
C7    N2    T    
C2    H13   S    
Cu1   O1    S    
C1    O20   A    
O18   S6    D    
C2    C3    A    
O16   S5    S    
C16   C19   A    
Cu2   O21   S    
C1    C30   S    
C11   C14   A    
C18   C20   A    
C23   C25   A    
C3    C32   A    
O14   S5    D    
C9    C18   S    
C20   C21   A    
O17   S6    D    
C13   C16   A    
C14   C15   A    
C8    N1    T    
O4    S2    D    
