data_mof_unit_24719.cif
_audit_creation_date              2012-10-26T19:07:31-0400
_audit_creation_method            fapswitch 2.2
_symmetry_space_group_name_H-M    P1
_symmetry_Int_Tables_number       1
_space_group_crystal_system       triclinic
_cell_length_a                    15.066955
_cell_length_b                    13.710861
_cell_length_c                    10.630589
_cell_angle_alpha                 89.76157
_cell_angle_beta                  89.637939
_cell_angle_gamma                 89.978666
_cell_volume                      2196.01392391

loop_
_atom_site_label
_atom_site_type_symbol
_atom_type_description
_atom_site_fract_x
_atom_site_fract_y
_atom_site_fract_z
_atom_type_partial_charge
C1    C     C_R   0.328982 0.499740 0.498465 0.617041
C2    C     C_R   0.956636 0.504881 0.269616 -0.103703
C3    C     C_R   0.448946 0.792543 0.584913 0.072460
C4    C     C_R   0.551179 0.207404 0.415330 0.051090
C5    C     C_R   0.550410 0.793146 0.414394 0.071411
C6    C     C_R   0.448275 0.206996 0.584089 0.045631
C7    C     C_R   0.552550 0.896544 0.411982 -0.039152
C8    C     C_R   0.447303 0.103579 0.588280 -0.046738
C9    C     C_R   0.445862 0.895930 0.586518 -0.040553
C10   C     C_R   0.553054 0.104050 0.412585 -0.043569
C11   C     C_R   0.499461 0.948252 0.499596 0.008412
C12   C     C_R   0.670965 0.499829 0.500202 0.619965
C13   C     C_R   0.500097 0.051811 0.500367 0.004339
C14   C     C_R   0.605375 0.948754 0.323633 0.037304
C15   C     C_R   0.393496 0.051308 0.675485 0.033960
C16   C     C_R   0.392264 0.947619 0.674014 0.033948
C17   C     C_R   0.605375 0.052386 0.323625 0.040833
C18   C     C_R   0.501118 0.500198 0.259179 0.595161
C19   C     C_R   0.499472 0.499927 0.740974 0.589148
C20   C     C_3   0.418029 0.487208 0.044087 -0.141836
C21   C     C_3   0.583777 0.513880 0.956523 -0.133532
C22   C     C_3   0.448328 0.572995 0.959468 -0.095583
C23   C     C_R   0.952997 0.500744 0.498523 0.009995
C24   C     C_3   0.553421 0.427919 0.041151 -0.130195
C25   C     C_3   0.469465 0.414348 0.960431 -0.135752
C26   C     C_3   0.532213 0.586586 0.040291 -0.085420
C27   C     C_3   0.499858 0.500119 0.877936 0.039946
C28   C     C_3   0.501808 0.500673 0.122515 0.057219
C29   C     C_R   0.813587 0.503246 0.382296 0.011694
C30   C     C_R   0.186176 0.505773 0.615547 0.012264
C31   C     C_R   0.767348 0.499259 0.497941 0.004329
C32   C     C_R   0.232475 0.498553 0.500374 -0.001665
C33   C     C_R   0.812392 0.490476 0.612409 0.236109
C34   C     C_R   0.046762 0.500369 0.499879 0.009734
C35   C     C_R   0.187219 0.484518 0.386951 0.235080
C36   C     C_R   0.905376 0.499384 0.613427 0.017711
C37   C     C_R   0.094387 0.494778 0.385299 0.018416
C38   C     C_2   0.763612 0.504321 0.262265 0.552670
C39   C     C_2   0.236169 0.508475 0.735169 0.552146
C40   C     C_3   0.780805 0.384826 0.777208 -0.023466
C41   C     C_3   0.699594 0.318748 0.765028 -0.268285
C42   C     C_3   0.709970 0.225286 0.841889 -0.435410
C43   C     C_3   0.219172 0.369120 0.235348 -0.023016
C44   C     C_3   0.287668 0.297833 0.288742 -0.266674
C45   C     C_R   0.907248 0.501867 0.382413 -0.001582
C46   C     C_3   0.278450 0.196568 0.231501 -0.450984
C47   C     C_2   0.663791 0.895078 0.234692 0.573762
C48   C     C_2   0.336650 0.104673 0.766900 0.593287
C49   C     C_2   0.335536 0.893695 0.765727 0.586236
C50   C     C_2   0.662692 0.106572 0.233235 0.566050
C51   C     C_R   0.092574 0.504551 0.615701 -0.001931
C52   C     C_R   0.951383 0.507456 0.727150 -0.118902
C53   C     C_R   0.048608 0.500202 0.271138 -0.121359
C54   C     C_R   0.043414 0.510804 0.728332 -0.100699
Cu1   Cu    Cu3+1 0.500000 0.597420 0.500000 1.042841
Cu2   Cu    Cu3+1 0.500000 0.402580 0.500000 0.947481
H1    H     H_    0.443726 0.343963 0.924956 0.167307
H2    H     H_    0.925115 0.510558 0.178823 0.159542
H3    H     H_    0.411126 0.749551 0.651512 0.183654
H4    H     H_    0.589843 0.250230 0.349417 0.170252
H5    H     H_    0.588722 0.750752 0.348011 0.177497
H6    H     H_    0.407279 0.249685 0.646713 0.173969
H7    H     H_    0.742401 0.440488 0.094740 0.318767
H8    H     H_    0.262870 0.442529 0.900436 0.322951
H9    H     H_    0.794511 0.396129 0.878627 0.149481
H10   H     H_    0.839584 0.345935 0.737096 0.139787
H11   H     H_    0.639841 0.357742 0.798981 0.193637
H12   H     H_    0.558055 0.657031 0.075906 0.170632
H13   H     H_    0.690170 0.299145 0.664821 0.202870
H14   H     H_    0.768928 0.183657 0.809104 0.173069
H15   H     H_    0.650029 0.179103 0.830509 0.199477
H16   H     H_    0.717469 0.242801 0.943215 0.179811
H17   H     H_    0.225025 0.369487 0.131148 0.150673
H18   H     H_    0.151258 0.341476 0.257421 0.139540
H19   H     H_    0.355473 0.325505 0.268739 0.208462
H20   H     H_    0.277977 0.291201 0.392020 0.187736
H21   H     H_    0.211475 0.166318 0.251824 0.173445
H22   H     H_    0.329029 0.147100 0.272726 0.172433
H23   H     H_    0.350564 0.477411 0.083863 0.151412
H24   H     H_    0.288983 0.199998 0.128204 0.166401
H25   H     H_    0.767729 0.803962 0.211995 0.358534
H26   H     H_    0.329552 0.202774 0.907141 0.333612
H27   H     H_    0.236887 0.796422 0.793770 0.361301
H28   H     H_    0.766131 0.197968 0.207626 0.353872
H29   H     H_    0.651571 0.525595 0.918119 0.164556
H30   H     H_    0.405775 0.633095 0.924134 0.182238
H31   H     H_    0.595625 0.367822 0.077444 0.142638
H32   H     H_    0.916410 0.512196 0.816180 0.147915
H33   H     H_    0.083868 0.501485 0.182028 0.152189
H34   H     H_    0.075296 0.518210 0.818652 0.157900
N1    N     N_R   0.500000 0.743810 0.500000 -0.262806
N2    N     N_R   0.500000 0.256190 0.500000 -0.271637
O1    O     O_R   0.370260 0.582280 0.500030 -0.468799
O2    O     O_R   0.777159 0.429880 0.174793 -0.725554
O3    O     O_2   0.286554 0.576148 0.756417 -0.533338
O4    O     O_R   0.225704 0.432843 0.822537 -0.712289
O5    O     O_3   0.763704 0.477840 0.722787 -0.586598
O6    O     O_3   0.235302 0.465795 0.277682 -0.587362
O7    O     O_2   0.650301 0.899632 0.121555 -0.455930
O8    O     O_R   0.733299 0.838112 0.281229 -0.680199
O9    O     O_2   0.256379 0.091500 0.768124 -0.470932
O10   O     O_R   0.375246 0.169186 0.851993 -0.711029
O11   O     O_2   0.344795 0.906870 0.878589 -0.470700
O12   O     O_R   0.629740 0.417720 0.499970 -0.514020
O13   O     O_R   0.270999 0.828890 0.722558 -0.674584
O14   O     O_2   0.647813 0.102500 0.120480 -0.481634
O15   O     O_R   0.732683 0.163412 0.277844 -0.692342
O16   O     O_R   0.629740 0.582280 0.499970 -0.470192
O17   O     O_R   0.370260 0.417720 0.500030 -0.526103
O18   O     O_R   0.499980 0.582260 0.316850 -0.497123
O19   O     O_R   0.500020 0.417740 0.683150 -0.521460
O20   O     O_R   0.500020 0.582260 0.683150 -0.493603
O21   O     O_R   0.499980 0.417740 0.316850 -0.529780
O22   O     O_2   0.710969 0.570000 0.240317 -0.527216

loop_
_geom_bond_atom_site_label_1
_geom_bond_atom_site_label_2
_ccdc_geom_bond_type
C43   H17   S    
C46   H24   S    
C30   C51   A    
C8    C13   A    
C23   C45   A    
Cu1   O20   S    
C34   C37   A    
C41   C42   S    
Cu2   O12   S    
C43   O6    S    
Cu1   O1    S    
C33   C36   A    
C41   H11   S    
C19   O20   A    
C7    C11   A    
H7    O2    S    
C34   C51   A    
C35   C37   A    
C9    C16   A    
C54   H34   S    
C38   O22   D    
C20   C25   S    
C10   C17   A    
C15   C16   A    
C42   H14   S    
H28   O15   S    
C47   O7    D    
C3    N1    A    
C44   H20   S    
Cu1   N1    S    
C1    O17   A    
C7    C14   A    
C52   C54   A    
C29   C38   S    
Cu2   O21   S    
C31   C33   A    
C35   O6    S    
C19   C27   S    
Cu2   O19   S    
C36   C52   A    
C37   C53   A    
C43   H18   S    
C21   C27   S    
C12   O16   A    
C40   H10   S    
C14   C17   A    
C4    H4    S    
C25   H1    S    
C15   C48   S    
C18   O21   A    
C21   C26   S    
C44   C46   S    
C2    C45   A    
C21   H29   S    
C32   C35   A    
C18   O18   A    
C52   H32   S    
C18   C28   S    
C24   C25   S    
H8    O4    S    
C40   O5    S    
C5    C7    A    
C6    C8    A    
C20   C28   S    
C2    C53   A    
C1    C32   S    
C47   O8    S    
H27   O13   S    
C29   C45   A    
C44   H19   S    
C46   H22   S    
C43   C44   S    
C3    C9    A    
C23   C34   A    
C48   O10   S    
C38   O2    S    
Cu1   Cu2   S    
C42   H16   S    
H26   O10   S    
C5    H5    S    
C16   C49   S    
C9    C11   A    
C39   O3    D    
C5    N1    A    
C1    O1    A    
C40   C41   S    
C20   C22   S    
C8    C15   A    
C22   C27   S    
Cu1   O18   S    
C53   H33   S    
C50   O15   S    
C4    C10   A    
Cu2   O17   S    
C41   H13   S    
C20   H23   S    
C24   C28   S    
C10   C13   A    
C17   C50   S    
C49   O11   D    
C46   H21   S    
C49   O13   S    
C2    H2    S    
C12   O12   A    
C14   C47   S    
H25   O8    S    
C19   O19   A    
C25   C27   S    
C26   C28   S    
Cu1   O16   S    
C40   H9    S    
C51   C54   A    
C26   H12   S    
C6    H6    S    
C12   C31   S    
C30   C32   A    
C11   C13   A    
C6    N2    A    
C48   O9    D    
C42   H15   S    
C30   C39   S    
C33   O5    S    
C22   H30   S    
C24   H31   S    
C39   O4    S    
Cu2   N2    S    
C29   C31   A    
C23   C36   A    
C22   C26   S    
C21   C24   S    
C50   O14   D    
C4    N2    A    
C3    H3    S    
