data_mof_unit_30035.cif
_audit_creation_date              2012-12-10T17:16:37-0500
_audit_creation_method            fapswitch 2.2
_symmetry_space_group_name_H-M    P1
_symmetry_Int_Tables_number       1
_space_group_crystal_system       triclinic
_cell_length_a                    10.253008
_cell_length_b                    10.621479
_cell_length_c                    10.854353
_cell_angle_alpha                 90.934471
_cell_angle_beta                  96.313287
_cell_angle_gamma                 78.40912
_cell_volume                      1150.91366743

loop_
_atom_site_label
_atom_site_type_symbol
_atom_type_description
_atom_site_fract_x
_atom_site_fract_y
_atom_site_fract_z
_atom_type_partial_charge
C1    C     C_R   0.443149 0.508917 0.267555 0.798875
C2    C     C_R   0.556851 0.491083 0.732445 0.798875
C3    C     C_2   0.410459 0.525647 0.135632 0.409172
C4    C     C_2   0.589541 0.474353 0.864368 0.409172
C5    C     C_2   0.507064 0.481490 0.064091 -0.225088
C6    C     C_2   0.492936 0.518509 0.935909 -0.225088
C7    C     C_2   0.067626 0.505983 0.479677 0.483739
C8    C     C_2   0.932374 0.494017 0.520323 0.483739
C9    C     C_R   0.508147 0.258841 0.516045 0.891252
C10   C     C_R   0.491853 0.741159 0.483955 0.891253
C11   C     C_R   0.754466 0.054355 0.478229 0.607469
C12   C     C_R   0.245534 0.945645 0.521771 0.607469
C13   C     C_R   0.838020 0.982520 0.398244 -0.269509
C14   C     C_R   0.161980 0.017479 0.601756 -0.269509
C15   C     C_R   0.793266 0.888136 0.324780 -0.234595
C16   C     C_R   0.206734 0.111864 0.675220 -0.234595
C17   C     C_R   0.672541 0.853811 0.343058 -0.116903
C18   C     C_R   0.327459 0.146189 0.656941 -0.116904
C19   C     C_R   0.590118 0.922045 0.428189 0.002459
C20   C     C_R   0.409881 0.077954 0.571811 0.002459
C21   C     C_R   0.622497 0.034187 0.481689 -0.023599
C22   C     C_R   0.377503 0.965813 0.518311 -0.023599
C23   C     C_R   0.477863 0.879478 0.463016 -0.158774
C24   C     C_R   0.522137 0.120522 0.536984 -0.158774
H1    H     H_    0.145531 0.161222 0.742987 0.163520
H2    H     H_    0.854469 0.838778 0.257013 0.163520
H3    H     H_    0.937239 0.000476 0.392277 0.193711
H4    H     H_    0.062761 0.999524 0.607723 0.193711
H5    H     H_    0.643017 0.774902 0.289974 0.162623
H6    H     H_    0.356982 0.225099 0.710026 0.162623
H7    H     H_    0.399296 0.579510 0.897719 0.198727
H8    H     H_    0.600704 0.420490 0.102281 0.198727
N1    N     N_2   0.157300 0.551390 0.551120 0.014184
N2    N     N_2   0.842700 0.448610 0.448880 0.014185
O1    O     O_R   0.568940 0.489660 0.307530 -0.648081
O2    O     O_R   0.431060 0.510340 0.692470 -0.648081
O3    O     O_R   0.348880 0.522640 0.340350 -0.552028
O4    O     O_R   0.651120 0.477360 0.659650 -0.552028
O5    O     O_R   0.610030 0.300280 0.483580 -0.593068
O6    O     O_R   0.389970 0.699720 0.516420 -0.593068
O7    O     O_R   0.389970 0.333270 0.516400 -0.601441
O8    O     O_R   0.610030 0.666730 0.483600 -0.601441
Zn1   Zn    Zn3+2 0.646940 0.477980 0.478080 1.022991
Zn2   Zn    Zn3+2 0.353060 0.522020 0.521920 1.022992
F1    F     F_    0.806523 0.135010 0.559005 -0.710530
F2    F     F_    0.193477 0.864990 0.440995 -0.710530
F3    F     F_    0.707102 0.398048 0.910320 -0.706539
F4    F     F_    0.292898 0.601952 0.089680 -0.706538
O9    O     O_3   0.904404 0.527067 0.639689 -0.599075
C25   C     C_3   0.953554 0.417450 0.716331 0.179942
H9    H     H_    0.055145 0.367040 0.696679 0.109170
H10   H     H_    0.884925 0.348399 0.702854 0.207690
C26   C     C_3   0.965207 0.458033 0.851440 -0.707956
H11   H     H_    0.875068 0.529513 0.870979 0.283025
H12   H     H_    0.976952 0.372628 0.912393 0.223239
H13   H     H_    0.054512 0.501740 0.872955 0.259654
O10   O     O_3   0.095596 0.472933 0.360311 -0.599075
C27   C     C_3   0.046446 0.582550 0.283669 0.179942
H14   H     H_    0.115075 0.651601 0.297146 0.207690
H15   H     H_    0.944855 0.632960 0.303321 0.109170
C28   C     C_3   0.034793 0.541967 0.148560 -0.707956
H16   H     H_    0.945488 0.498260 0.127045 0.259654
H17   H     H_    0.023048 0.627372 0.087607 0.223239
H18   H     H_    0.124933 0.470487 0.129021 0.283025
O11   O     O_3   0.869417 0.417749 0.332306 -0.554805
C29   C     C_3   0.861054 0.288166 0.315677 0.230558
H19   H     H_    0.755482 0.276818 0.311396 0.175290
H20   H     H_    0.923734 0.228164 0.391888 0.156973
C30   C     C_3   0.914120 0.240574 0.194332 -0.865293
H21   H     H_    0.020205 0.250078 0.195814 0.277037
H22   H     H_    0.908301 0.137903 0.181002 0.222027
H23   H     H_    0.853348 0.297268 0.115583 0.293952
O12   O     O_3   0.130583 0.582251 0.667694 -0.554805
C31   C     C_3   0.138946 0.711834 0.684323 0.230559
H24   H     H_    0.076266 0.771836 0.608112 0.156973
H25   H     H_    0.244519 0.723182 0.688604 0.175289
C32   C     C_3   0.085879 0.759426 0.805668 -0.865294
H26   H     H_    0.146652 0.702732 0.884417 0.293952
H27   H     H_    0.091699 0.862097 0.818998 0.222027
H28   H     H_    0.979795 0.749922 0.804186 0.277037

loop_
_geom_bond_atom_site_label_1
_geom_bond_atom_site_label_2
_ccdc_geom_bond_type
C29   H20   S    
C10   O8    A    
C17   H5    S    
O12   C31   S    
C2    C4    S    
C7    C8    S    
C26   H11   S    
C31   H25   S    
N1    O12   S    
C19   C21   A    
C5    C6    S    
C32   H28   S    
C29   C30   S    
C27   H15   S    
C12   C22   A    
C3    F4    S    
C9    O5    A    
C10   O6    A    
C28   H17   S    
C20   C24   A    
C31   C32   S    
C25   H10   S    
C18   H6    S    
O1    Zn1   S    
C1    O3    A    
C5    H8    S    
C27   C28   S    
C32   H27   S    
C6    H7    S    
C7    N1    D    
C30   H21   S    
N2    O11   S    
C26   H12   S    
C25   C26   S    
C30   H22   S    
C31   H24   S    
C12   F2    S    
C15   H2    S    
O5    Zn1   S    
C27   H14   S    
C32   H26   S    
C11   C21   A    
C1    C3    S    
C28   H18   S    
C19   C23   A    
C2    O4    A    
C25   H9    S    
C8    N2    D    
C4    C6    D    
C20   C22   A    
O9    C25   S    
C13   C15   A    
O7    Zn2   S    
C14   C16   A    
O2    Zn2   S    
O8    Zn1   S    
C30   H23   S    
C1    O1    A    
C26   H13   S    
C2    O2    A    
C16   H1    S    
C15   C17   A    
N1    Zn2   S    
N2    Zn1   S    
C12   C14   A    
C3    C5    D    
C9    C24   S    
C10   C23   S    
C9    O7    A    
O3    Zn2   S    
O4    Zn1   S    
C11   C13   A    
O10   C27   S    
C17   C19   A    
C29   H19   S    
C18   C20   A    
C28   H16   S    
C11   F1    S    
O6    Zn2   S    
C16   C18   A    
O11   C29   S    
C21   C24   A    
C22   C23   A    
C13   H3    S    
C14   H4    S    
C8    O9    S    
C7    O10   S    
C4    F3    S    
