data_mof_unit_32620.cif
_audit_creation_date              2012-12-10T18:33:39-0500
_audit_creation_method            fapswitch 2.2
_symmetry_space_group_name_H-M    P1
_symmetry_Int_Tables_number       1
_space_group_crystal_system       triclinic
_cell_length_a                    10.513268
_cell_length_b                    15.075753
_cell_length_c                    15.622258
_cell_angle_alpha                 82.039553
_cell_angle_beta                  90.430419
_cell_angle_gamma                 105.069614
_cell_volume                      2366.81622551

loop_
_atom_site_label
_atom_site_type_symbol
_atom_type_description
_atom_site_fract_x
_atom_site_fract_y
_atom_site_fract_z
_atom_type_partial_charge
C1    C     C_R   0.479164 0.441682 0.661335 0.915684
C2    C     C_R   0.519226 0.558318 0.338456 0.922918
C3    C     C_R   0.432990 0.454133 0.813674 -0.070551
C4    C     C_R   0.553415 0.545243 0.184212 -0.067585
C5    C     C_R   0.485951 0.448865 0.897667 0.026175
C6    C     C_R   0.503907 0.556775 0.099857 0.016504
C7    C     C_R   0.586856 0.401332 0.913591 -0.004414
C8    C     C_R   0.405465 0.606029 0.085340 0.002025
C9    C     C_R   0.452068 0.495106 0.963888 0.085055
C10   C     C_R   0.538835 0.513526 0.032095 0.075408
C11   C     C_R   0.660648 0.491894 0.029058 -0.197625
C12   C     C_R   0.331541 0.518898 0.966999 -0.193438
C13   C     C_R   0.682962 0.431149 0.975000 -0.019415
C14   C     C_R   0.310846 0.579833 0.021988 -0.016944
C15   C     C_R   0.697450 0.845646 0.635100 -0.322775
C16   C     C_R   0.296286 0.152394 0.369406 -0.300762
C17   C     C_R   0.667417 0.756840 0.612746 -0.007291
C18   C     C_R   0.329079 0.241985 0.389855 0.115036
C19   C     C_R   0.510941 0.792763 0.512493 -0.048496
C20   C     C_R   0.490000 0.207468 0.486976 -0.062450
C21   C     C_R   0.540168 0.885207 0.531408 0.008699
C22   C     C_R   0.457907 0.114172 0.470141 0.010207
C23   C     C_R   0.742553 0.501481 0.499529 0.917167
C24   C     C_R   0.257443 0.498387 0.500993 0.923238
C25   C     C_R   0.635235 0.910130 0.594484 0.170911
C26   C     C_R   0.360118 0.088443 0.408913 0.148347
C27   C     C_R   0.479901 0.953433 0.489996 0.073138
C28   C     C_R   0.517569 0.045790 0.512007 0.080269
C29   C     C_R   0.612266 0.066369 0.575757 -0.208598
C30   C     C_R   0.383269 0.932335 0.427505 -0.206428
C31   C     C_R   0.669500 0.999560 0.616170 -0.164881
C32   C     C_R   0.324483 0.998686 0.388126 -0.150365
C33   C     C_3   0.947387 0.469853 0.579745 -0.032586
C34   C     C_3   0.052617 0.530245 0.421820 -0.043281
C35   C     C_3   0.064713 0.555251 0.556656 -0.132939
C36   C     C_3   0.935511 0.444715 0.444976 -0.197668
C37   C     C_3   0.121872 0.497263 0.501192 -0.088964
C38   C     C_3   0.878211 0.502672 0.500274 -0.070232
C39   C     C_3   0.006459 0.411558 0.525676 -0.161203
C40   C     C_3   0.993594 0.588423 0.476039 -0.151430
C41   C     C_R   0.475612 0.406413 0.753109 -0.112502
C42   C     C_R   0.516988 0.593430 0.246643 -0.111577
C43   C     C_R   0.593229 0.332298 0.861868 -0.046537
C44   C     C_R   0.400117 0.672556 0.140174 -0.034158
C45   C     C_R   0.540447 0.337961 0.779826 -0.250344
C46   C     C_R   0.454405 0.663883 0.222000 -0.251417
H1    H     H_    0.120492 0.599275 0.603029 0.199843
H2    H     H_    0.880006 0.399427 0.399604 0.171281
H3    H     H_    0.563871 0.233800 0.531642 0.138738
H4    H     H_    0.440251 0.767244 0.465710 0.134318
H5    H     H_    0.771494 0.864856 0.682790 0.159373
H6    H     H_    0.219369 0.132315 0.323708 0.160181
H7    H     H_    0.644389 0.133554 0.596615 0.160045
H8    H     H_    0.349348 0.864744 0.407721 0.158875
H9    H     H_    0.015387 0.339976 0.546208 0.203595
H10   H     H_    0.984592 0.660012 0.455634 0.197327
H11   H     H_    0.438110 0.706776 0.268910 0.197893
H12   H     H_    0.559790 0.294666 0.734214 0.204874
H13   H     H_    0.739703 0.522603 0.069220 0.170322
H14   H     H_    0.251016 0.488816 0.927771 0.178675
H15   H     H_    0.742124 0.018359 0.664703 0.166034
H16   H     H_    0.249681 0.979301 0.341029 0.171299
N1    N     N_R   0.574200 0.731700 0.552740 -0.135419
N2    N     N_R   0.425800 0.268300 0.447260 -0.145447
O1    O     O_R   0.462600 0.383110 0.605620 -0.630608
O2    O     O_R   0.537400 0.616890 0.394380 -0.632341
O3    O     O_R   0.510210 0.531900 0.639510 -0.607916
O4    O     O_R   0.489790 0.468100 0.360490 -0.580762
O5    O     O_R   0.662240 0.425610 0.483080 -0.638339
O6    O     O_R   0.337760 0.574390 0.516920 -0.637756
O7    O     O_R   0.709860 0.574400 0.516970 -0.587360
O8    O     O_R   0.290140 0.425600 0.483030 -0.600947
Zn1   Zn    Zn3+2 0.468210 0.400660 0.477370 0.999761
Zn2   Zn    Zn3+2 0.531790 0.599340 0.522630 0.989798
C47   C     C_2   0.250837 0.303859 0.351569 1.000788
O9    O     O_2   0.290691 0.357593 0.285641 -0.568534
O10   O     O_R   0.124275 0.292852 0.385623 -0.812906
H17   H     H_    0.073434 0.332281 0.349558 0.368173
C48   C     C_2   0.743495 0.693735 0.653140 1.041765
O11   O     O_2   0.844437 0.690621 0.617081 -0.562318
O12   O     O_R   0.710562 0.645440 0.736246 -0.742912
H18   H     H_    0.632445 0.659880 0.763176 0.334101
C49   C     C_2   0.884753 0.439307 0.668123 0.945459
O13   O     O_2   0.876126 0.360760 0.704558 -0.572091
O14   O     O_R   0.836739 0.501643 0.708216 -0.725158
H19   H     H_    0.795406 0.473983 0.767362 0.377632
C50   C     C_2   0.114266 0.562729 0.333256 0.919786
O15   O     O_2   0.119475 0.641089 0.297654 -0.568107
O16   O     O_R   0.165052 0.502616 0.291927 -0.791054
H20   H     H_    0.202732 0.530796 0.232038 0.383596
C51   C     C_2   0.815170 0.412226 0.977892 0.977735
O17   O     O_2   0.870307 0.404453 0.911784 -0.602531
O18   O     O_R   0.879271 0.407270 0.056524 -0.764002
H21   H     H_    0.969558 0.396079 0.050314 0.355956
C52   C     C_2   0.180532 0.601575 0.019074 0.941284
O19   O     O_2   0.128205 0.612795 0.949625 -0.568355
O20   O     O_R   0.114949 0.605577 0.095365 -0.794171
H22   H     H_    0.026289 0.619274 0.084574 0.370284
C53   C     C_2   0.625095 0.473466 0.212539 0.938144
O21   O     O_2   0.579090 0.393183 0.199993 -0.558647
O22   O     O_R   0.743836 0.498084 0.255075 -0.810523
H23   H     H_    0.784972 0.444204 0.268784 0.350821
C54   C     C_2   0.350109 0.518158 0.782310 0.905954
O23   O     O_2   0.250433 0.489481 0.742691 -0.621306
O24   O     O_R   0.387978 0.611170 0.795462 -0.799316
H24   H     H_    0.324229 0.647254 0.770121 0.366322
C55   C     C_2   0.648669 0.252609 0.892181 0.991342
O25   O     O_2   0.651830 0.225962 0.969576 -0.602273
O26   O     O_R   0.692657 0.205572 0.832176 -0.765324
H25   H     H_    0.726882 0.152077 0.860744 0.356281
C56   C     C_2   0.345855 0.753369 0.112439 0.986475
O27   O     O_2   0.305397 0.791942 0.166300 -0.580069
O28   O     O_R   0.345529 0.787688 0.024572 -0.790729
H26   H     H_    0.307003 0.843158 0.013828 0.359164

loop_
_geom_bond_atom_site_label_1
_geom_bond_atom_site_label_2
_ccdc_geom_bond_type
C25   C31   A    
C38   C40   S    
C50   O15   D    
C26   C32   A    
C18   C47   S    
C34   C37   S    
C23   O5    A    
C52   O19   D    
C35   H1    S    
O12   H18   S    
C24   O6    A    
O14   H19   S    
C30   H8    S    
O18   H21   S    
C4    C42   A    
C34   C40   S    
C28   C29   A    
C35   C37   S    
C2    O4    A    
C15   C25   A    
O2    Zn2   S    
C17   C48   S    
O1    Zn1   S    
C42   C46   A    
C31   H15   S    
C33   C35   S    
C54   O24   S    
C39   H9    S    
C56   O27   D    
C19   N1    A    
C40   H10   S    
O6    Zn2   S    
C1    O1    A    
N2    Zn1   S    
O5    Zn1   S    
C7    C43   A    
C9    C10   A    
C21   C27   A    
C22   C28   A    
C13   C51   S    
C27   C30   A    
C55   O26   S    
C11   H13   S    
C44   C46   A    
O20   H22   S    
C16   C26   A    
C37   C39   S    
C45   H12   S    
C43   C55   S    
O22   H23   S    
C23   O7    A    
C4    C6    A    
C51   O17   D    
C5    C7    A    
C6    C8    A    
C3    C5    A    
O4    Zn1   S    
O10   H17   S    
C20   N2    A    
C47   O9    D    
C5    C9    A    
C20   H3    S    
C51   O18   S    
C33   C49   S    
C49   O13   D    
C55   O25   D    
C24   C37   S    
C56   O28   S    
O3    Zn2   S    
C33   C39   S    
C47   O10   S    
C1    C41   S    
C49   O14   S    
C12   C14   A    
C15   H5    S    
C50   O16   S    
C46   H11   S    
C14   C52   S    
C54   O23   D    
C24   O8    A    
C48   O12   S    
O28   H26   S    
C3    C54   S    
C16   H6    S    
C15   C17   A    
C21   C25   A    
C3    C41   A    
C8    C14   A    
C53   O22   S    
C36   C39   S    
C8    C44   A    
C20   C22   A    
O8    Zn1   S    
C2    O2    A    
C6    C10   A    
O7    Zn2   S    
C52   O20   S    
N1    Zn2   S    
C23   C38   S    
O24   H24   S    
C33   C38   S    
C53   O21   D    
C16   C18   A    
C36   C38   S    
C35   C40   S    
C32   H16   S    
C43   C45   A    
O26   H25   S    
C17   N1    A    
C30   C32   A    
C11   C13   A    
C19   H4    S    
C18   N2    A    
C29   H7    S    
C2    C42   S    
C1    O3    A    
C36   H2    S    
C34   C36   S    
C34   C50   S    
C9    C12   A    
C10   C11   A    
C48   O11   D    
C12   H14   S    
C44   C56   S    
C7    C13   A    
C29   C31   A    
C22   C26   A    
C4    C53   S    
C27   C28   A    
C41   C45   A    
O16   H20   S    
C19   C21   A    
