data_mof_unit_16021.cif
_audit_creation_date              2012-12-10T19:47:19-0500
_audit_creation_method            fapswitch 2.2
_symmetry_space_group_name_H-M    P1
_symmetry_Int_Tables_number       1
_space_group_crystal_system       triclinic
_cell_length_a                    14.945684
_cell_length_b                    14.204525
_cell_length_c                    10.604667
_cell_angle_alpha                 90.123512
_cell_angle_beta                  90.086988
_cell_angle_gamma                 89.778416
_cell_volume                      2251.30737916

loop_
_atom_site_label
_atom_site_type_symbol
_atom_type_description
_atom_site_fract_x
_atom_site_fract_y
_atom_site_fract_z
_atom_type_partial_charge
C1    C     C_R   0.328201 0.500146 0.501543 1.025660
C2    C     C_R   0.672586 0.499810 0.501242 0.943529
C3    C     C_R   0.232815 0.500909 0.508353 -0.318459
C4    C     C_R   0.769364 0.499400 0.509122 -0.332093
C5    C     C_R   0.190797 0.458163 0.611890 0.298662
C6    C     C_R   0.818178 0.425353 0.452200 0.295866
C7    C     C_R   0.097747 0.464520 0.622259 0.488646
C8    C     C_R   0.911794 0.427746 0.455977 0.473304
C9    C     C_R   0.049480 0.505186 0.523085 -0.025616
C10   C     C_R   0.953722 0.500468 0.522000 -0.020793
C11   C     C_R   0.468286 0.104532 0.394978 0.313549
C12   C     C_R   0.530558 0.104268 0.605183 0.303638
C13   C     C_R   0.463517 0.204299 0.400450 0.427978
C14   C     C_R   0.536787 0.204461 0.599555 0.424376
C15   C     C_R   0.499504 0.053371 0.499894 -0.151781
C16   C     C_R   0.581078 0.894780 0.508429 -0.185635
C17   C     C_R   0.418667 0.895192 0.491010 -0.182957
C18   C     C_R   0.578608 0.795330 0.508726 -0.084821
C19   C     C_R   0.421279 0.795736 0.490577 -0.093634
C20   C     C_R   0.499756 0.946708 0.499750 0.167875
C21   C     C_R   0.500081 0.499954 0.260431 0.869906
C22   C     C_R   0.499943 0.500088 0.739516 0.876899
C23   C     C_R   0.666874 0.465925 0.131343 -0.137652
C24   C     C_R   0.666471 0.464370 0.868444 -0.141521
C25   C     C_R   0.746111 0.449394 0.065480 -0.113375
C26   C     C_R   0.745828 0.447879 0.934250 -0.199208
C27   C     C_R   0.585715 0.481607 0.933929 0.102622
C28   C     C_R   0.585821 0.481871 0.065892 0.065204
C29   C     C_R   0.504444 0.499922 0.128247 -0.074208
C30   C     C_R   0.504381 0.500179 0.871602 -0.075013
C31   C     C_R   0.425243 0.519319 0.064401 -0.198839
C32   C     C_R   0.425233 0.519559 0.935357 -0.199428
C33   C     C_R   0.091625 0.546654 0.420263 -0.344943
C34   C     C_R   0.905776 0.572139 0.580316 -0.363179
C35   C     C_R   0.184581 0.547250 0.413479 0.459585
C36   C     C_R   0.812552 0.571230 0.578222 0.483216
H1    H     H_    0.363526 0.533610 0.114745 0.182391
H2    H     H_    0.363495 0.533990 0.884924 0.171177
H3    H     H_    0.640406 0.755841 0.513047 0.188468
H4    H     H_    0.359495 0.756618 0.485087 0.148435
H5    H     H_    0.669695 0.467134 0.233135 0.154847
H6    H     H_    0.669014 0.464082 0.766608 0.139668
H7    H     H_    0.807932 0.438448 0.116312 0.137702
H8    H     H_    0.807377 0.434862 0.883270 0.144462
H9    H     H_    0.051675 0.576145 0.344687 0.168369
H10   H     H_    0.941630 0.629093 0.625510 0.174671
N1    N     N_R   0.500000 0.252470 0.500000 -0.209313
N2    N     N_R   0.500000 0.747550 0.500000 -0.078708
O1    O     O_R   0.369060 0.579480 0.500010 -0.622332
O2    O     O_R   0.630940 0.579480 0.499990 -0.595136
O3    O     O_R   0.369050 0.420520 0.500010 -0.614711
O4    O     O_R   0.630950 0.420520 0.499990 -0.578545
O5    O     O_R   0.500000 0.579490 0.316770 -0.620343
O6    O     O_R   0.500000 0.579490 0.683230 -0.619429
O7    O     O_R   0.499990 0.420540 0.316770 -0.555068
O8    O     O_R   0.500010 0.420540 0.683230 -0.555253
Zn1   Zn    Zn3+2 0.500000 0.606140 0.500000 0.979638
Zn2   Zn    Zn3+2 0.500000 0.393860 0.500000 1.031240
C37   C     C_2   0.669878 0.941897 0.512477 0.981166
O9    O     O_2   0.684013 0.010285 0.445983 -0.639063
O10   O     O_R   0.738780 0.908819 0.590250 -0.754256
H11   H     H_    0.719184 0.857091 0.649549 0.312732
C38   C     C_2   0.329963 0.942914 0.486384 0.983603
O11   O     O_2   0.314453 0.009508 0.556065 -0.624870
O12   O     O_R   0.262923 0.912657 0.403839 -0.766214
H12   H     H_    0.284492 0.863084 0.342132 0.289104
O13   O     O_3   0.230028 0.582439 0.309454 -0.616118
C39   C     C_3   0.199812 0.673765 0.278483 -0.299823
H13   H     H_    0.138618 0.670214 0.219187 0.166850
H14   H     H_    0.252319 0.708673 0.221667 0.185609
H15   H     H_    0.187967 0.718233 0.363599 0.178224
O14   O     O_3   0.761561 0.641850 0.635149 -0.591381
C40   C     C_3   0.795634 0.668419 0.754274 -0.320064
H16   H     H_    0.822799 0.607690 0.808578 0.157514
H17   H     H_    0.740154 0.699140 0.810460 0.195914
H18   H     H_    0.847295 0.723765 0.743334 0.184525
O15   O     O_3   0.241877 0.419087 0.707721 -0.626745
C41   C     C_3   0.236645 0.320087 0.700622 -0.174346
H19   H     H_    0.287594 0.289665 0.765070 0.175783
H20   H     H_    0.251477 0.293341 0.604228 0.147348
H21   H     H_    0.170169 0.294654 0.732047 0.202263
O16   O     O_3   0.773679 0.356034 0.384692 -0.622151
C42   C     C_3   0.786299 0.267343 0.442298 -0.120344
H22   H     H_    0.724584 0.225342 0.428620 0.178593
H23   H     H_    0.799406 0.271498 0.545667 0.121787
H24   H     H_    0.841831 0.228782 0.395617 0.200679
O17   O     O_3   0.053106 0.424397 0.722849 -0.597242
C43   C     C_3   0.056358 0.486995 0.826133 -0.313274
H25   H     H_    0.027324 0.556940 0.801994 0.140522
H26   H     H_    0.125858 0.495320 0.861891 0.202955
H27   H     H_    0.015693 0.457334 0.903834 0.179552
O18   O     O_3   0.963421 0.357516 0.401204 -0.596867
C44   C     C_3   0.964633 0.369532 0.269137 -0.292472
H28   H     H_    0.968748 0.444742 0.239975 0.128531
H29   H     H_    0.905303 0.335742 0.225731 0.194558
H30   H     H_    0.024763 0.333369 0.231166 0.192799
O19   O     O_3   0.437706 0.057170 0.289505 -0.595468
C45   C     C_3   0.508200 0.050924 0.201797 -0.246177
H31   H     H_    0.566006 0.010916 0.241011 0.181832
H32   H     H_    0.529860 0.121858 0.169858 0.188825
H33   H     H_    0.483953 0.011982 0.117814 0.170824
O20   O     O_3   0.558676 0.055869 0.711140 -0.601004
C46   C     C_3   0.488018 0.054970 0.798923 -0.270243
H34   H     H_    0.428426 0.018075 0.760221 0.191504
H35   H     H_    0.510413 0.015596 0.883488 0.174031
H36   H     H_    0.469740 0.127455 0.829860 0.184343
O21   O     O_3   0.428187 0.254045 0.300268 -0.564867
C47   C     C_3   0.334079 0.247296 0.302803 -0.170683
H37   H     H_    0.305958 0.300233 0.236803 0.169175
H38   H     H_    0.306136 0.262784 0.397767 0.137843
H39   H     H_    0.311594 0.176865 0.270331 0.200818
O22   O     O_3   0.573276 0.256055 0.697998 -0.572351
C48   C     C_3   0.659835 0.223739 0.730808 -0.175402
H40   H     H_    0.703512 0.285586 0.746191 0.149927
H41   H     H_    0.692558 0.178892 0.657763 0.150692
H42   H     H_    0.656566 0.184434 0.821004 0.201410

loop_
_geom_bond_atom_site_label_1
_geom_bond_atom_site_label_2
_ccdc_geom_bond_type
C21   O5    A    
O17   C43   S    
C4    C36   A    
C44   H28   S    
C6    O16   S    
C33   H9    S    
C40   H16   S    
C24   C27   A    
C13   O21   S    
C25   H7    S    
C38   O12   S    
O19   C45   S    
C26   H8    S    
N2    Zn1   S    
C22   O6    A    
O15   C41   S    
C14   O22   S    
C28   C29   A    
C24   C26   A    
C41   H20   S    
C17   C20   A    
C24   H6    S    
C47   H37   S    
C2    O2    A    
C17   C19   A    
C11   C15   A    
C46   H35   S    
C7    O17   S    
C31   C32   A    
O8    Zn2   S    
C39   H13   S    
O21   C47   S    
C43   H27   S    
C8    O18   S    
C3    C35   A    
C9    C10   S    
C48   H42   S    
C37   O9    D    
C44   H29   S    
C27   C30   A    
C9    C33   A    
C40   H17   S    
O20   C46   S    
O22   C48   S    
C15   C20   S    
O4    Zn2   S    
C37   O10   S    
O13   C39   S    
C4    C6    A    
C5    C7    A    
O5    Zn1   S    
C19   N2    A    
C22   O8    A    
C25   C26   A    
C21   C29   S    
C31   H1    S    
C1    C3    S    
C16   C37   S    
C2    C4    S    
C18   H3    S    
C12   O20   S    
C42   H22   S    
C12   C15   A    
C35   O13   S    
C16   C20   A    
C10   C34   A    
O3    Zn2   S    
C23   C28   A    
C1    O3    A    
C2    O4    A    
C34   H10   S    
C8    C10   A    
C42   H23   S    
C12   C14   A    
O16   C42   S    
C44   H30   S    
C32   H2    S    
C40   H18   S    
O12   H12   S    
C5    O15   S    
C46   H34   S    
C13   N1    A    
C48   H40   S    
C7    C9    A    
C21   O7    A    
C22   C30   S    
C41   H19   S    
O2    Zn1   S    
C16   C18   A    
C43   H26   S    
O14   C40   S    
C3    C5    A    
C18   N2    A    
O1    Zn1   S    
C6    C8    A    
C14   N1    A    
C45   H33   S    
C45   H32   S    
C23   H5    S    
C47   H39   S    
C11   O19   S    
C29   C31   A    
C17   C38   S    
N1    Zn2   S    
C30   C32   A    
C11   C13   A    
C41   H21   S    
C39   H15   S    
O18   C44   S    
C33   C35   A    
C47   H38   S    
C46   H36   S    
C34   C36   A    
C23   C25   A    
O10   H11   S    
C19   H4    S    
C38   O11   D    
C42   H24   S    
C43   H25   S    
C39   H14   S    
C45   H31   S    
O7    Zn2   S    
C27   C28   A    
C1    O1    A    
C36   O14   S    
C48   H41   S    
O6    Zn1   S    
