data_mof_unit_13974.cif
_audit_creation_date              2012-10-26T19:21:09-0400
_audit_creation_method            fapswitch 2.2
_symmetry_space_group_name_H-M    P1
_symmetry_Int_Tables_number       1
_space_group_crystal_system       triclinic
_cell_length_a                    9.846509
_cell_length_b                    11.061846
_cell_length_c                    13.38074
_cell_angle_alpha                 94.067518
_cell_angle_beta                  81.912304
_cell_angle_gamma                 112.135566
_cell_volume                      1336.3345736

loop_
_atom_site_label
_atom_site_type_symbol
_atom_type_description
_atom_site_fract_x
_atom_site_fract_y
_atom_site_fract_z
_atom_type_partial_charge
C1    C     C_R   0.557246 0.745862 0.507506 0.554048
C2    C     C_R   0.373848 0.492033 0.802157 -0.002945
C3    C     C_2   0.589927 0.885757 0.510808 -0.157039
C4    C     C_R   0.422645 0.492140 0.691382 0.548079
C5    C     C_2   0.483076 0.929184 0.501004 -0.149305
C6    C     C_2   0.407664 0.113136 0.488179 0.236316
C7    C     C_2   0.513554 0.068433 0.499780 -0.137128
C8    C     C_2   0.919347 0.485566 0.495832 0.006470
C9    C     C_2   0.077346 0.508469 0.508607 -0.000736
C10   C     C_R   0.442553 0.253995 0.492235 0.559571
C11   C     C_R   0.578153 0.514844 0.309511 0.539221
C12   C     C_R   0.436923 0.528984 0.975824 0.002150
C13   C     C_R   0.808190 0.666523 0.068589 -0.123970
C14   C     C_R   0.626738 0.543603 0.202197 -0.017023
C15   C     C_R   0.222867 0.424848 0.841167 -0.053909
C16   C     C_R   0.180281 0.426018 0.945167 -0.092186
C17   C     C_R   0.283971 0.480772 0.012267 0.247651
C18   C     C_3   0.236224 0.012810 0.380966 -0.021814
C19   C     C_3   0.075393 0.925660 0.375112 -0.368239
C20   C     C_3   0.087549 0.342583 0.386622 -0.214325
C21   C     C_3   0.915347 0.658531 0.611768 -0.208397
C22   C     C_3   0.886827 0.891198 0.869611 -0.031996
C23   C     C_R   0.478714 0.553175 0.871477 -0.069800
C24   C     C_3   0.045747 0.976923 0.833777 -0.367341
C25   C     C_3   0.103133 0.353142 0.775276 -0.374858
C26   C     C_3   0.237554 0.624764 0.127917 -0.014001
C27   C     C_3   0.182551 0.644211 0.237483 -0.372170
C28   C     C_R   0.549420 0.558410 0.039761 -0.011638
C29   C     C_R   0.697662 0.635978 0.004208 0.050339
C30   C     C_R   0.731851 0.683313 0.905678 0.244195
C31   C     C_R   0.623272 0.641020 0.840391 -0.108366
C32   C     C_R   0.519208 0.506465 0.136479 -0.108791
C33   C     C_R   0.772331 0.622434 0.167606 -0.159175
Cu1   Cu    Cu3+1 0.362000 0.479240 0.482530 0.915515
Cu2   Cu    Cu3+1 0.638000 0.520760 0.517470 0.911535
H1    H     H_    0.857076 0.653134 0.217723 0.122241
H2    H     H_    0.625669 0.135598 0.507315 0.110799
H3    H     H_    0.307772 0.966060 0.335697 0.118548
H4    H     H_    0.256455 0.108151 0.347202 0.132580
H5    H     H_    0.001434 0.969548 0.420431 0.160634
H6    H     H_    0.052207 0.914668 0.295412 0.086133
H7    H     H_    0.052294 0.827604 0.404506 0.159093
H8    H     H_    0.172051 0.305707 0.348375 0.165344
H9    H     H_    0.998382 0.260602 0.428085 0.088798
H10   H     H_    0.043781 0.377194 0.327108 0.106878
H11   H     H_    0.839388 0.709184 0.639351 0.169583
H12   H     H_    0.371803 0.861068 0.492504 0.192725
H13   H     H_    0.942244 0.620687 0.678075 0.130585
H14   H     H_    0.016338 0.731848 0.571990 0.103108
H15   H     H_    0.856897 0.924537 0.947242 0.128817
H16   H     H_    0.814541 0.904052 0.817590 0.121786
H17   H     H_    0.077475 0.948988 0.755137 0.170816
H18   H     H_    0.057227 0.080753 0.835994 0.101144
H19   H     H_    0.121077 0.965512 0.883676 0.155502
H20   H     H_    0.996482 0.297762 0.820606 0.103884
H21   H     H_    0.083042 0.423648 0.729971 0.159568
H22   H     H_    0.134938 0.281317 0.725082 0.158771
H23   H     H_    0.701285 0.953176 0.519984 0.094986
H24   H     H_    0.165595 0.644888 0.079338 0.131225
H25   H     H_    0.352733 0.696768 0.111793 0.133369
H26   H     H_    0.251638 0.624412 0.288116 0.195937
H27   H     H_    0.189781 0.746459 0.250165 0.079981
H28   H     H_    0.065593 0.578052 0.255527 0.148240
H29   H     H_    0.132099 0.580279 0.563770 0.135808
H30   H     H_    0.862934 0.410402 0.443332 0.134465
H31   H     H_    0.921714 0.727151 0.043504 0.147494
H32   H     H_    0.411780 0.435403 0.162241 0.180167
H33   H     H_    0.064486 0.385069 0.975283 0.132485
H34   H     H_    0.652928 0.682207 0.766329 0.138154
N1    N     N_2   0.845330 0.551960 0.543750 -0.249487
N2    N     N_2   0.154690 0.448120 0.456210 -0.249198
O1    O     O_R   0.426290 0.668220 0.490680 -0.503688
O2    O     O_3   0.875203 0.760096 0.869318 -0.581570
O3    O     O_3   0.232143 0.495385 0.112203 -0.585838
O4    O     O_R   0.659360 0.703290 0.520190 -0.504960
O5    O     O_R   0.326580 0.473880 0.629020 -0.500173
O6    O     O_R   0.559660 0.508940 0.658530 -0.492601
O7    O     O_R   0.340640 0.296710 0.479810 -0.480995
O8    O     O_R   0.573710 0.331780 0.509320 -0.525553
O9    O     O_R   0.440340 0.491060 0.341470 -0.502429
O10   O     O_R   0.673420 0.526120 0.370980 -0.500513
O11   O     O_3   0.263103 0.028129 0.482879 -0.572578

loop_
_geom_bond_atom_site_label_1
_geom_bond_atom_site_label_2
_ccdc_geom_bond_type
C24   H17   S    
C6    O11   S    
C9    H29   S    
C25   H21   S    
C14   C33   A    
C21   H14   S    
C10   O7    A    
C11   O10   A    
C5    H12   S    
C12   C23   A    
Cu2   O4    S    
C26   C27   S    
C12   C28   A    
C13   C29   A    
C28   C29   A    
C18   C19   S    
C30   C31   A    
C11   C14   S    
C15   C25   S    
C24   H19   S    
C15   C16   A    
C33   H1    S    
Cu1   Cu2   S    
C27   H26   S    
C26   O3    S    
Cu2   N1    S    
C8    C9    S    
C12   C17   A    
C20   N2    S    
C16   H33   S    
C26   H24   S    
C20   H10   S    
C19   H7    S    
C22   H15   S    
C21   H13   S    
Cu1   O9    S    
C8    H30   S    
C25   H22   S    
C20   H9    S    
C13   H31   S    
Cu2   O10   S    
C1    O1    A    
C1    O4    A    
C25   H20   S    
C28   C32   A    
C11   O9    A    
C5    C7    S    
C30   O2    S    
C16   C17   A    
C24   H18   S    
Cu2   O6    S    
C1    C3    S    
C23   C31   A    
C2    C4    S    
C18   H4    S    
C13   C33   A    
C29   C30   A    
C27   H27   S    
C7    H2    S    
C2    C15   A    
C27   H28   S    
C32   H32   S    
C17   O3    S    
C22   C24   S    
Cu1   O1    S    
C20   H8    S    
C21   H11   S    
C9    N2    D    
C14   C32   A    
C3    C5    D    
C6    C10   S    
C10   O8    A    
C6    C7    D    
C8    N1    D    
C21   N1    S    
C18   H3    S    
C4    O6    A    
Cu1   O7    S    
Cu2   O8    S    
C18   O11   S    
C4    O5    A    
C19   H5    S    
C3    H23   S    
C31   H34   S    
C2    C23   A    
C22   O2    S    
C26   H25   S    
Cu1   N2    S    
C19   H6    S    
Cu1   O5    S    
C22   H16   S    
