data_mof_unit_42621.cif
_audit_creation_date              2012-12-11T15:48:43-0500
_audit_creation_method            fapswitch 2.2
_symmetry_space_group_name_H-M    P1
_symmetry_Int_Tables_number       1
_space_group_crystal_system       triclinic
_cell_length_a                    10.96366
_cell_length_b                    10.953948
_cell_length_c                    18.761932
_cell_angle_alpha                 90.577434
_cell_angle_beta                  90.373908
_cell_angle_gamma                 60.362405
_cell_volume                      1958.33100259

loop_
_atom_site_label
_atom_site_type_symbol
_atom_type_description
_atom_site_fract_x
_atom_site_fract_y
_atom_site_fract_z
_atom_type_partial_charge
C1    C     C_R   0.238725 0.645874 0.610095 0.542741
C2    C     C_3   0.696304 0.534233 0.799673 -0.054221
C3    C     C_3   0.697621 0.672526 0.813160 0.064174
C4    C     C_3   0.668505 0.646189 0.677219 0.040377
C5    C     C_3   0.804261 0.652093 0.690029 -0.257633
C6    C     C_3   0.674146 0.521607 0.719663 -0.196019
C7    C     C_R   0.683721 0.147235 0.821375 0.048051
C8    C     C_R   0.777361 0.175014 0.784700 0.027999
C9    C     C_R   0.771563 0.184857 0.710655 0.017176
C10   C     C_R   0.582542 0.133182 0.708028 -0.181716
C11   C     C_R   0.579179 0.137669 0.781324 -0.162093
C12   C     C_R   0.652795 0.620902 0.601589 0.541806
C13   C     C_3   0.932509 0.099168 0.786525 -0.277306
C14   C     C_3   0.927895 0.106872 0.705805 -0.289861
C15   C     C_R   0.675743 0.161584 0.671261 0.014090
C16   C     C_R   0.177778 0.669392 0.834457 0.051449
C17   C     C_R   0.155359 0.574729 0.793727 0.013761
C18   C     C_R   0.164413 0.571601 0.719911 -0.005075
C19   C     C_R   0.204050 0.768500 0.724796 -0.169670
C20   C     C_R   0.204763 0.765175 0.798716 -0.147709
C21   C     C_3   0.231053 0.418420 0.797791 -0.275989
C22   C     C_3   0.239902 0.415485 0.717149 -0.268126
C23   C     C_R   0.630441 0.225112 0.601535 0.538513
C24   C     C_R   0.191817 0.666458 0.684034 0.017152
C25   C     C_R   0.645554 0.667621 0.165232 0.020890
C26   C     C_R   0.712403 0.535821 0.197786 0.029366
C27   C     C_R   0.715409 0.526200 0.270836 0.046325
C28   C     C_R   0.558009 0.773572 0.282618 -0.179140
C29   C     C_R   0.556793 0.784994 0.207970 -0.166653
C30   C     C_3   0.856543 0.410348 0.191327 -0.272628
C31   C     C_3   0.862108 0.406435 0.272106 -0.269687
C32   C     C_R   0.646918 0.644245 0.315094 0.019338
C33   C     C_R   0.651439 0.174932 0.172416 0.022572
C34   C     C_R   0.218277 0.651473 0.402361 0.548242
C35   C     C_R   0.520116 0.240642 0.204796 0.023099
C36   C     C_R   0.511870 0.248918 0.277821 0.047490
C37   C     C_R   0.762219 0.146620 0.288279 -0.169742
C38   C     C_R   0.770720 0.141138 0.214599 -0.166683
C39   C     C_3   0.396561 0.218232 0.198467 -0.274155
C40   C     C_3   0.391320 0.221607 0.279161 -0.268636
C41   C     C_R   0.632667 0.193979 0.320493 0.027076
C42   C     C_R   0.050810 0.730261 0.195564 0.020457
C43   C     C_R   0.066417 0.831954 0.233463 0.015643
C44   C     C_R   0.102157 0.814542 0.304183 0.020535
C45   C     C_R   0.640803 0.620913 0.391109 0.545927
C46   C     C_R   0.090397 0.600670 0.305974 -0.162710
C47   C     C_R   0.052432 0.619536 0.233604 -0.160495
C48   C     C_3   0.158658 0.893942 0.217933 -0.265386
C49   C     C_3   0.194379 0.878809 0.295923 -0.266746
C50   C     C_R   0.129275 0.691368 0.339402 0.021850
C51   C     C_R   0.702467 0.098671 0.894998 0.567179
C52   C     C_R   0.723040 0.687753 0.888640 0.582478
C53   C     C_R   0.118541 0.705831 0.905888 0.566815
C54   C     C_R   0.674962 0.109297 0.103167 0.555064
C55   C     C_R   0.694487 0.689337 0.096794 0.556826
C56   C     C_R   0.614941 0.230942 0.394565 0.546121
C57   C     C_R   0.028136 0.746822 0.118949 0.564608
C58   C     C_3   0.558609 0.798750 0.785740 -0.228418
C59   C     C_3   0.543066 0.784540 0.705370 -0.239056
C60   C     C_3   0.821179 0.667697 0.770317 -0.246278
Cr1   Cr    Cr6+3 0.392960 0.397920 0.502240 1.005076
Cr2   Cr    Cr6+3 0.398340 0.708480 0.501250 1.001236
Cr3   Cr    Cr6+3 0.708670 0.393570 0.496460 1.006581
Cr4   Cr    Cr6+3 0.937650 0.938540 0.007610 1.011030
Cr5   Cr    Cr6+3 0.625330 0.937370 0.994520 1.010761
Cr6   Cr    Cr6+3 0.937940 0.625230 0.001190 1.014328
H1    H     H_    0.559198 0.897981 0.795945 0.131651
H2    H     H_    0.763904 0.422075 0.700098 0.136123
H3    H     H_    0.920511 0.575583 0.787783 0.139671
H4    H     H_    0.896838 0.554642 0.669769 0.133207
H5    H     H_    0.502754 0.119891 0.680357 0.128359
H6    H     H_    0.497621 0.124588 0.806080 0.135300
H7    H     H_    0.972324 0.992442 0.807651 0.163806
H8    H     H_    0.975006 0.162316 0.812112 0.132622
H9    H     H_    0.969700 0.173176 0.684457 0.131767
H10   H     H_    0.967372 0.003614 0.678662 0.144066
H11   H     H_    0.219374 0.848410 0.699893 0.129514
H12   H     H_    0.466787 0.805932 0.814308 0.149480
H13   H     H_    0.217618 0.844068 0.827773 0.137314
H14   H     H_    0.163088 0.377823 0.818262 0.129741
H15   H     H_    0.334121 0.376743 0.825006 0.173983
H16   H     H_    0.348038 0.373162 0.697012 0.185426
H17   H     H_    0.176866 0.373669 0.690830 0.122630
H18   H     H_    0.493653 0.865908 0.314742 0.117298
H19   H     H_    0.496711 0.887413 0.184569 0.129103
H20   H     H_    0.937182 0.429335 0.167531 0.154406
H21   H     H_    0.853173 0.319766 0.166705 0.138995
H22   H     H_    0.871013 0.310086 0.294943 0.150691
H23   H     H_    0.443770 0.784435 0.695316 0.147769
H24   H     H_    0.936908 0.436891 0.294971 0.128005
H25   H     H_    0.856445 0.112171 0.319945 0.121749
H26   H     H_    0.873034 0.097601 0.191053 0.138135
H27   H     H_    0.421350 0.115133 0.175678 0.152649
H28   H     H_    0.304693 0.309595 0.173803 0.143527
H29   H     H_    0.294994 0.311488 0.300892 0.143871
H30   H     H_    0.419733 0.118387 0.302987 0.129248
H31   H     H_    0.101340 0.509745 0.333629 0.112361
H32   H     H_    0.036689 0.541940 0.206363 0.120500
H33   H     H_    0.101525 0.005182 0.200962 0.122672
H34   H     H_    0.537180 0.876095 0.677093 0.114092
H35   H     H_    0.250469 0.824362 0.184032 0.168324
H36   H     H_    0.306601 0.803059 0.305759 0.172842
H37   H     H_    0.152359 0.981080 0.324559 0.128641
H38   H     H_    0.828815 0.764031 0.780728 0.123246
H39   H     H_    0.799967 0.742436 0.661162 0.121036
H40   H     H_    0.799700 0.444072 0.815308 0.140109
H41   H     H_    0.576541 0.516208 0.710351 0.153653
O1    O     O_R   0.507380 0.255700 0.581440 -0.535773
O2    O     O_R   0.524480 0.695810 0.424040 -0.508217
O3    O     O_R   0.736390 0.504290 0.414790 -0.517634
O4    O     O_R   0.691300 0.277290 0.422170 -0.507219
O5    O     O_3   0.499990 0.499990 0.499980 -0.248444
O6    O     O_R   0.089400 0.825690 0.930570 -0.524889
O7    O     O_R   0.818460 0.054440 0.929850 -0.497890
O8    O     O_R   0.606060 0.077150 0.915510 -0.531465
O9    O     O_R   0.646550 0.806680 0.917570 -0.504944
O10   O     O_R   0.837170 0.593410 0.915250 -0.521251
O11   O     O_R   0.065200 0.635530 0.931570 -0.497373
O12   O     O_R   0.280320 0.527350 0.578930 -0.503722
O13   O     O_R   0.068260 0.828890 0.091840 -0.518285
O14   O     O_R   0.798870 0.057410 0.079340 -0.525950
O15   O     O_R   0.584930 0.080350 0.076780 -0.519534
O16   O     O_R   0.626960 0.809650 0.067060 -0.504322
O17   O     O_R   0.816040 0.596610 0.076510 -0.528943
O18   O     O_R   0.045610 0.638500 0.081060 -0.504327
O19   O     O_3   0.833640 0.833710 0.001100 -0.278885
O20   O     O_R   0.260510 0.739590 0.584590 -0.534663
O21   O     O_R   0.532300 0.695080 0.573820 -0.509491
O22   O     O_R   0.744840 0.503500 0.576370 -0.529385
O23   O     O_R   0.699120 0.276560 0.571960 -0.501772
O24   O     O_R   0.498940 0.256500 0.419860 -0.520923
O25   O     O_R   0.272500 0.528080 0.429150 -0.504035
O26   O     O_R   0.252060 0.740380 0.423010 -0.524501
I1    I     I_    0.545291 0.514168 0.864263 -0.466123

loop_
_geom_bond_atom_site_label_1
_geom_bond_atom_site_label_2
_ccdc_geom_bond_type
C44   C49   S    
C8    C13   S    
Cr1   O12   S    
C32   C45   S    
C35   C36   A    
C9    C14   S    
C7    C8    A    
C41   C56   S    
C5    H39   S    
C7    C11   A    
C26   C27   A    
C2    I1    S    
C47   H32   S    
C18   C24   A    
C22   H16   S    
Cr2   O26   S    
C28   C29   A    
C10   C15   A    
C57   O18   A    
C30   C31   S    
C45   O2    A    
C28   H18   S    
C48   H35   S    
Cr4   O14   S    
C38   H26   S    
C4    C59   S    
C59   H23   S    
Cr3   O23   S    
Cr3   O5    S    
C19   H11   S    
Cr1   O1    S    
C16   C53   S    
C39   H27   S    
Cr1   O25   S    
C55   O17   A    
C19   C20   A    
C8    C9    A    
Cr6   O10   S    
C6    H41   S    
C31   H22   S    
C30   H20   S    
C53   O11   A    
C43   C48   S    
C56   O4    A    
C29   H19   S    
C20   H13   S    
C3    C60   S    
C15   C23   S    
C54   O15   A    
C34   O25   A    
C13   C14   S    
C37   C41   A    
C59   H34   S    
Cr5   O8    S    
C36   C41   A    
C2    C6    S    
C40   H30   S    
C42   C57   S    
C53   O6    A    
C52   O9    A    
C25   C29   A    
C55   O16   A    
C34   C50   S    
C51   O7    A    
Cr4   O7    S    
C12   O22   A    
C37   H25   S    
C27   C31   S    
C1    O20   A    
C28   C32   A    
C4    C6    S    
C49   H36   S    
C58   H12   S    
C11   H6    S    
C16   C17   A    
C34   O26   A    
C25   C26   A    
C2    H40   S    
C51   O8    A    
Cr6   O19   S    
C23   O23   A    
C14   H10   S    
C35   C39   S    
C43   C44   A    
C39   H28   S    
C1    O12   A    
C37   C38   A    
C36   C40   S    
C16   C20   A    
C31   H24   S    
C45   O3    A    
C17   C18   A    
Cr5   O15   S    
C57   O13   A    
C48   C49   S    
C46   H31   S    
C13   H7    S    
C26   C30   S    
Cr4   O19   S    
Cr5   O9    S    
Cr6   O17   S    
C4    C12   S    
C42   C43   A    
C40   H29   S    
C39   C40   S    
C44   C50   A    
C33   C54   S    
C48   H33   S    
C46   C47   A    
Cr4   O6    S    
C5    C60   S    
C27   C32   A    
C18   C22   S    
Cr5   O16   S    
C54   O14   A    
C25   C55   S    
C21   H15   S    
C4    C5    S    
C5    H4    S    
C49   H37   S    
C3    C52   S    
C12   O21   A    
C14   H9    S    
C46   C50   A    
C33   C38   A    
Cr4   O13   S    
Cr6   O18   S    
Cr5   O19   S    
Cr3   O3    S    
C19   C24   A    
C58   C59   S    
C7    C51   S    
C60   H38   S    
C22   H17   S    
Cr2   O21   S    
Cr2   O20   S    
Cr2   O2    S    
C60   H3    S    
C23   O1    A    
C21   H14   S    
C6    H2    S    
C33   C35   A    
C2    C3    S    
C42   C47   A    
Cr3   O22   S    
Cr3   O4    S    
C17   C21   S    
C56   O24   A    
C10   C11   A    
Cr1   O24   S    
C10   H5    S    
C3    C58   S    
C58   H1    S    
Cr2   O5    S    
C13   H8    S    
C1    C24   S    
Cr6   O11   S    
C52   O10   A    
C30   H21   S    
C21   C22   S    
Cr1   O5    S    
C9    C15   A    
