data_mof_unit_14262.cif
_audit_creation_date              2013-03-05T15:56:43-0500
_audit_creation_method            fapswitch 2.2
_symmetry_space_group_name_H-M    P1
_symmetry_Int_Tables_number       1
_space_group_crystal_system       triclinic
_cell_length_a                    20.8151
_cell_length_b                    21.652885
_cell_length_c                    13.914481
_cell_angle_alpha                 90.00004
_cell_angle_beta                  91.428389
_cell_angle_gamma                 89.999959
_cell_volume                      6269.40477104

loop_
_atom_site_label
_atom_site_type_symbol
_atom_site_description
_atom_site_fract_x
_atom_site_fract_y
_atom_site_fract_z
_atom_type_partial_charge
O1    O     O_R   0.064880 0.435140 0.582280 -0.568836
O2    O     O_R   0.935120 0.564860 0.417720 -0.535530
O3    O     O_R   0.935120 0.564860 0.582280 -0.557319
O4    O     O_R   0.064880 0.435140 0.417720 -0.531806
O5    O     O_R   0.935120 0.435140 0.417720 -0.568847
O6    O     O_R   0.064880 0.564860 0.582280 -0.535534
O7    O     O_R   0.064880 0.564860 0.417720 -0.557309
O8    O     O_R   0.935120 0.435140 0.582280 -0.531822
O9    O     O_R   0.564880 0.935140 0.582280 -0.568845
O10   O     O_R   0.435120 0.064860 0.417720 -0.535548
O11   O     O_R   0.435120 0.064860 0.582280 -0.557303
O12   O     O_R   0.564880 0.935140 0.417720 -0.531822
O13   O     O_R   0.435120 0.935140 0.417720 -0.568832
O14   O     O_R   0.564880 0.064860 0.582280 -0.535537
O15   O     O_R   0.564880 0.064860 0.417720 -0.557316
O16   O     O_R   0.435120 0.935140 0.582280 -0.531803
C1    C     C_R   0.085506 0.414477 0.500564 0.814920
C2    C     C_R   0.914079 0.585064 0.499411 0.824463
C3    C     C_R   0.914494 0.414476 0.499436 0.814927
C4    C     C_R   0.085920 0.585064 0.500590 0.824446
C5    C     C_R   0.585506 0.914476 0.500564 0.814924
C6    C     C_R   0.414080 0.085065 0.499410 0.824445
C7    C     C_R   0.414494 0.914477 0.499436 0.814918
C8    C     C_R   0.585921 0.085064 0.500589 0.824463
Cu1   Cu    Cu3+1 0.000000 0.500000 0.597420 1.053404
Cu2   Cu    Cu3+1 0.000000 0.500000 0.402580 1.053414
Cu3   Cu    Cu3+1 0.500000 0.000000 0.597420 1.053416
Cu4   Cu    Cu3+1 0.500000 0.000000 0.402580 1.053402
C9    C     C_R   0.126946 0.683291 0.438130 -0.247688
C10   C     C_R   0.873635 0.316090 0.562919 -0.194188
C11   C     C_R   0.873035 0.683274 0.561907 -0.247669
C12   C     C_R   0.126350 0.316076 0.437112 -0.194214
C13   C     C_R   0.626969 0.183270 0.438085 -0.247651
C14   C     C_R   0.373655 0.816071 0.562875 -0.194230
C15   C     C_R   0.373049 0.183286 0.561882 -0.247661
C16   C     C_R   0.626360 0.816086 0.437090 -0.194204
C17   C     C_R   0.134300 0.633313 0.501153 -0.047372
C18   C     C_R   0.866539 0.365702 0.498922 -0.046586
C19   C     C_R   0.865697 0.633311 0.498851 -0.047398
C20   C     C_R   0.133462 0.365703 0.501077 -0.046546
C21   C     C_R   0.634304 0.133311 0.501149 -0.047406
C22   C     C_R   0.366537 0.865704 0.498922 -0.046531
C23   C     C_R   0.365699 0.133313 0.498847 -0.047385
C24   C     C_R   0.633461 0.865702 0.501078 -0.046576
C25   C     C_R   0.188204 0.629013 0.562898 -0.163976
C26   C     C_R   0.812892 0.369455 0.436662 -0.225575
C27   C     C_R   0.811806 0.629023 0.437079 -0.163990
C28   C     C_R   0.187127 0.369473 0.563302 -0.225541
C29   C     C_R   0.688191 0.129027 0.562930 -0.164001
C30   C     C_R   0.312867 0.869479 0.436710 -0.225526
C31   C     C_R   0.311801 0.129018 0.437092 -0.163997
C32   C     C_R   0.687112 0.869459 0.563330 -0.225565
C33   C     C_R   0.234715 0.675355 0.563489 0.085840
C34   C     C_R   0.765878 0.323676 0.437711 0.098958
C35   C     C_R   0.765296 0.675367 0.436485 0.085831
C36   C     C_R   0.234140 0.323693 0.562252 0.098957
C37   C     C_R   0.734700 0.175371 0.563525 0.085831
C38   C     C_R   0.265854 0.823699 0.437760 0.098956
C39   C     C_R   0.265290 0.175361 0.436499 0.085841
C40   C     C_R   0.734125 0.823679 0.562282 0.098957
C41   C     C_R   0.227023 0.726162 0.500726 0.059444
C42   C     C_R   0.773614 0.272938 0.500546 0.062510
C43   C     C_R   0.772972 0.726158 0.499281 0.059450
C44   C     C_R   0.226389 0.272941 0.499450 0.062507
C45   C     C_R   0.727027 0.226159 0.500721 0.059452
C46   C     C_R   0.273611 0.772941 0.500550 0.062507
C47   C     C_R   0.272976 0.226162 0.499273 0.059447
C48   C     C_R   0.726385 0.772937 0.499456 0.062510
C49   C     C_R   0.172797 0.730178 0.437988 0.111374
C50   C     C_R   0.827708 0.269145 0.563520 0.106852
C51   C     C_R   0.827182 0.730159 0.562053 0.111354
C52   C     C_R   0.172279 0.269133 0.436510 0.106863
C53   C     C_R   0.672821 0.230155 0.437940 0.111353
C54   C     C_R   0.327727 0.769127 0.563477 0.106869
C55   C     C_R   0.327197 0.230173 0.562024 0.111373
C56   C     C_R   0.672287 0.769140 0.436491 0.106857
C57   C     C_R   0.288680 0.671818 0.625605 -0.193341
C58   C     C_R   0.711114 0.327967 0.377493 -0.215553
C59   C     C_R   0.711349 0.671845 0.374333 -0.193338
C60   C     C_R   0.288919 0.327998 0.622439 -0.215575
C61   C     C_R   0.788642 0.171854 0.625686 -0.193334
C62   C     C_R   0.211069 0.828009 0.377585 -0.215587
C63   C     C_R   0.211332 0.171829 0.374371 -0.193333
C64   C     C_R   0.788892 0.827973 0.622493 -0.215559
C65   C     C_R   0.834835 0.218585 0.625839 -0.204756
C66   C     C_R   0.165035 0.781267 0.377047 -0.218152
C67   C     C_R   0.165137 0.218558 0.374222 -0.204756
C68   C     C_R   0.834928 0.781232 0.623031 -0.218180
C69   C     C_R   0.334874 0.718547 0.625753 -0.204765
C70   C     C_R   0.665079 0.281225 0.376954 -0.218178
C71   C     C_R   0.665156 0.718576 0.374181 -0.204762
C72   C     C_R   0.334954 0.281257 0.622977 -0.218146
H1    H     H_    0.085030 0.685980 0.390375 0.147172
H2    H     H_    0.915322 0.313781 0.611159 0.149775
H3    H     H_    0.914939 0.685953 0.609686 0.147186
H4    H     H_    0.084651 0.313755 0.388899 0.149734
H5    H     H_    0.585068 0.185946 0.390299 0.147190
H6    H     H_    0.415360 0.813746 0.611079 0.149717
H7    H     H_    0.414960 0.185972 0.609645 0.147177
H8    H     H_    0.584670 0.813774 0.388857 0.149761
H9    H     H_    0.194665 0.589036 0.608691 0.210470
H10   H     H_    0.806946 0.408544 0.389053 0.200656
H11   H     H_    0.805353 0.589055 0.391265 0.210526
H12   H     H_    0.193085 0.408574 0.610882 0.200637
H13   H     H_    0.694641 0.089061 0.608749 0.210538
H14   H     H_    0.306904 0.908585 0.389141 0.200632
H15   H     H_    0.305343 0.089044 0.391291 0.210486
H16   H     H_    0.693060 0.908550 0.610933 0.200654
H17   H     H_    0.295015 0.633044 0.674197 0.152954
H18   H     H_    0.703679 0.367681 0.331446 0.149779
H19   H     H_    0.705027 0.633084 0.325714 0.152967
H20   H     H_    0.296364 0.367722 0.668463 0.149777
H21   H     H_    0.794962 0.133096 0.674313 0.152967
H22   H     H_    0.203620 0.867736 0.331570 0.149783
H23   H     H_    0.205001 0.133059 0.325769 0.152959
H24   H     H_    0.796329 0.867689 0.668535 0.149784
H25   H     H_    0.876135 0.215166 0.674520 0.145078
H26   H     H_    0.123224 0.785236 0.329462 0.144755
H27   H     H_    0.123824 0.215126 0.325568 0.145074
H28   H     H_    0.876726 0.785189 0.670642 0.144752
H29   H     H_    0.376192 0.715111 0.674397 0.145069
H30   H     H_    0.623284 0.285180 0.329336 0.144751
H31   H     H_    0.623852 0.715154 0.325508 0.145076
H32   H     H_    0.376760 0.285222 0.670570 0.144754
C73   C     C_R   0.056305 0.508200 0.796265 0.424388
C74   C     C_R   0.943696 0.508206 0.203733 0.424396
C75   C     C_R   0.943405 0.493715 0.792102 0.405355
C76   C     C_R   0.056595 0.493709 0.207899 0.405359
C77   C     C_R   0.556304 0.008203 0.796267 0.424405
C78   C     C_R   0.443695 0.008196 0.203734 0.424395
C79   C     C_R   0.443404 0.993710 0.792101 0.405361
C80   C     C_R   0.556596 0.993716 0.207899 0.405355
N1    N     N_R   0.000000 0.500000 0.743810 -0.294512
N2    N     N_R   0.000000 0.500000 0.256190 -0.294505
N3    N     N_R   0.500000 0.000000 0.743810 -0.294506
N4    N     N_R   0.500000 0.000000 0.256190 -0.294515
C81   C     C_R   0.941595 0.500792 0.894502 -0.129797
C82   C     C_R   0.058407 0.500782 0.105496 -0.129800
C83   C     C_R   0.058477 0.502973 0.899078 -0.129675
C84   C     C_R   0.941524 0.502982 0.100920 -0.129675
C85   C     C_R   0.441592 0.000778 0.894504 -0.129805
C86   C     C_R   0.558406 0.000790 0.105497 -0.129798
C87   C     C_R   0.558476 0.002978 0.899080 -0.129675
C88   C     C_R   0.441523 0.002966 0.100922 -0.129674
C89   C     C_R   0.000026 0.501564 0.948475 0.012865
C90   C     C_R   0.999975 0.501564 0.051523 0.012862
C91   C     C_R   0.500024 0.001560 0.948476 0.012860
C92   C     C_R   0.499974 0.001560 0.051524 0.012861
C93   C     C_R   0.882947 0.505465 0.944352 -0.031804
C94   C     C_R   0.117056 0.505439 0.055644 -0.031815
C95   C     C_R   0.117277 0.502278 0.953976 -0.035489
C96   C     C_R   0.882724 0.502303 0.046020 -0.035486
C97   C     C_R   0.382943 0.005428 0.944359 -0.031824
C98   C     C_R   0.617053 0.005460 0.055647 -0.031806
C99   C     C_R   0.617275 0.002296 0.953979 -0.035481
C100  C     C_R   0.382724 0.002264 0.046026 -0.035470
N5    N     N_R   0.110960 0.531775 0.748936 0.135350
O17   O     O_R   0.147756 0.495309 0.700731 -0.412005
O18   O     O_R   0.127184 0.589299 0.761565 -0.414519
N6    N     N_R   0.889044 0.531785 0.251062 0.135338
O19   O     O_R   0.852242 0.495322 0.299263 -0.412020
O20   O     O_R   0.872828 0.589312 0.238435 -0.414551
N7    N     N_R   0.887389 0.471764 0.741188 0.146023
O21   O     O_R   0.852438 0.508732 0.688022 -0.350845
O22   O     O_R   0.868092 0.415347 0.754856 -0.394822
N8    N     N_R   0.112610 0.471761 0.258816 0.146024
O23   O     O_R   0.147563 0.508732 0.311972 -0.350861
O24   O     O_R   0.131901 0.415340 0.245167 -0.394807
N9    N     N_R   0.610957 0.031782 0.748939 0.135335
O25   O     O_R   0.647758 0.995319 0.700739 -0.412019
O26   O     O_R   0.627174 0.089308 0.761570 -0.414562
N10   N     N_R   0.389039 0.031771 0.251061 0.135347
O27   O     O_R   0.352245 0.995307 0.299273 -0.411998
O28   O     O_R   0.372807 0.089292 0.238414 -0.414534
N11   N     N_R   0.387388 0.971768 0.741179 0.146026
O29   O     O_R   0.352434 0.008746 0.688038 -0.350869
O30   O     O_R   0.368098 0.915345 0.754810 -0.394799
N12   N     N_R   0.612613 0.971769 0.258814 0.146026
O31   O     O_R   0.647563 0.008740 0.311973 -0.350849
O32   O     O_R   0.631910 0.915352 0.245152 -0.394819
C101  C     C_R   0.822087 0.522868 0.892834 0.126187
C102  C     C_R   0.771687 0.480170 0.880123 -0.038658
C103  C     C_R   0.714476 0.497912 0.833132 -0.112357
C104  C     C_R   0.707099 0.558247 0.798827 -0.102585
C105  C     C_R   0.756842 0.601045 0.811724 -0.102867
C106  C     C_R   0.814079 0.583570 0.858906 -0.124330
H33   H     H_    0.776950 0.433258 0.906077 0.136787
H34   H     H_    0.675880 0.464859 0.823203 0.126987
H35   H     H_    0.662820 0.571848 0.762289 0.122809
H36   H     H_    0.751067 0.647750 0.785130 0.129602
H37   H     H_    0.852251 0.617144 0.868776 0.123914
C107  C     C_R   0.177923 0.522823 0.107156 0.126209
C108  C     C_R   0.228307 0.480107 0.119868 -0.038659
C109  C     C_R   0.285529 0.497833 0.166845 -0.112356
C110  C     C_R   0.292934 0.558169 0.201130 -0.102602
C111  C     C_R   0.243209 0.600985 0.188229 -0.102882
C112  C     C_R   0.185960 0.583527 0.141064 -0.124313
H38   H     H_    0.223023 0.433195 0.093925 0.136785
H39   H     H_    0.324113 0.464766 0.176776 0.126992
H40   H     H_    0.337222 0.571757 0.237654 0.122808
H41   H     H_    0.249006 0.647692 0.214805 0.129589
H42   H     H_    0.147802 0.617114 0.131189 0.123923
C113  C     C_R   0.179726 0.489658 0.908577 0.145210
C114  C     C_R   0.225469 0.536734 0.897374 -0.041445
C115  C     C_R   0.285598 0.522989 0.860241 -0.131673
C116  C     C_R   0.300926 0.462134 0.836280 -0.118612
C117  C     C_R   0.256053 0.414993 0.849106 -0.141359
C118  C     C_R   0.195467 0.428692 0.884351 -0.122961
H43   H     H_    0.214514 0.583777 0.917702 0.137030
H44   H     H_    0.320553 0.559381 0.851054 0.118599
H45   H     H_    0.347743 0.451418 0.808536 0.120386
H46   H     H_    0.268316 0.367683 0.832636 0.126039
H47   H     H_    0.161265 0.391729 0.894693 0.125113
C119  C     C_R   0.820269 0.489698 0.091413 0.145245
C120  C     C_R   0.774541 0.536787 0.102617 -0.041452
C121  C     C_R   0.714403 0.523055 0.139731 -0.131710
C122  C     C_R   0.699052 0.462202 0.163668 -0.118575
C123  C     C_R   0.743910 0.415049 0.150839 -0.141398
C124  C     C_R   0.804506 0.428734 0.115617 -0.122981
H48   H     H_    0.785512 0.583828 0.082300 0.137039
H49   H     H_    0.679459 0.559457 0.148919 0.118598
H50   H     H_    0.652227 0.451497 0.191395 0.120400
H51   H     H_    0.731628 0.367740 0.167282 0.126009
H52   H     H_    0.838696 0.391762 0.105271 0.125122
C125  C     C_R   0.322072 0.022809 0.892853 0.126223
C126  C     C_R   0.271695 0.980086 0.880133 -0.038662
C127  C     C_R   0.214468 0.997809 0.833168 -0.112357
C128  C     C_R   0.207051 0.058150 0.798906 -0.102608
C129  C     C_R   0.256769 0.100972 0.811817 -0.102896
C130  C     C_R   0.314024 0.083516 0.858968 -0.124306
H53   H     H_    0.276988 0.933171 0.906061 0.136790
H54   H     H_    0.175889 0.964739 0.823230 0.126995
H55   H     H_    0.162758 0.071737 0.762393 0.122810
H56   H     H_    0.250962 0.147682 0.785259 0.129591
H57   H     H_    0.352176 0.117108 0.868852 0.123929
C131  C     C_R   0.677914 0.022864 0.107161 0.126198
C132  C     C_R   0.728312 0.980164 0.119878 -0.038656
C133  C     C_R   0.785525 0.997907 0.166862 -0.112357
C134  C     C_R   0.792906 0.058245 0.201150 -0.102587
C135  C     C_R   0.743166 0.101045 0.188246 -0.102881
C136  C     C_R   0.685926 0.083569 0.141073 -0.124331
H58   H     H_    0.723046 0.933250 0.093935 0.136792
H59   H     H_    0.824121 0.964854 0.176796 0.126989
H60   H     H_    0.837188 0.071848 0.237680 0.122810
H61   H     H_    0.748945 0.147753 0.214826 0.129604
H62   H     H_    0.647756 0.117143 0.131196 0.123917
C137  C     C_R   0.679728 0.989683 0.908586 0.145240
C138  C     C_R   0.725462 0.036765 0.897376 -0.041454
C139  C     C_R   0.785597 0.023026 0.860259 -0.131702
C140  C     C_R   0.800940 0.962170 0.836322 -0.118580
C141  C     C_R   0.756076 0.915023 0.849157 -0.141396
C142  C     C_R   0.695483 0.928716 0.884383 -0.122984
H63   H     H_    0.714498 0.083808 0.917691 0.137043
H64   H     H_    0.820546 0.059423 0.851066 0.118595
H65   H     H_    0.847762 0.951459 0.808592 0.120396
H66   H     H_    0.768351 0.867712 0.832711 0.126021
H67   H     H_    0.661288 0.891748 0.894733 0.125120
C143  C     C_R   0.320279 0.989626 0.091427 0.145199
C144  C     C_R   0.274521 0.036687 0.102632 -0.041453
C145  C     C_R   0.214399 0.022924 0.139771 -0.131661
C146  C     C_R   0.199093 0.962065 0.163738 -0.118627
C147  C     C_R   0.243981 0.914938 0.150915 -0.141355
C148  C     C_R   0.304561 0.928655 0.115661 -0.122961
H68   H     H_    0.285459 0.083733 0.082300 0.137034
H69   H     H_    0.179432 0.059305 0.148959 0.118597
H70   H     H_    0.152281 0.951335 0.191489 0.120379
H71   H     H_    0.231737 0.867625 0.167394 0.126059
H72   H     H_    0.338776 0.891703 0.105321 0.125109

loop_
_geom_bond_atom_site_label_1
_geom_bond_atom_site_label_2
_geom_bond_distance
_ccdc_geom_bond_type
C63   C67   1.395803 A    
C113  C114  1.406158 A    
C60   C72   1.393637 A    
C118  H47   1.083145 S    
C8    C21   1.450950 S    
C75   N1    1.377417 A    
O2    C2    1.303869 A    
C70   H30   1.083719 S    
N9    O25   1.298308 A    
C16   H8    1.084871 S    
C143  C148  1.403267 A    
C14   C22   1.400796 A    
C88   C92   1.412561 A    
C85   C97   1.422630 A    
C15   C23   1.398879 A    
N12   O31   1.300157 A    
C141  H66   1.081651 S    
C45   C53   1.412281 A    
C141  C142  1.396324 A    
C12   C52   1.395570 A    
C101  C102  1.406201 A    
C73   C83   1.434649 A    
C87   C91   1.412569 A    
C108  C109  1.398001 A    
C26   H10   1.080019 S    
C74   C84   1.434651 A    
C139  C140  1.398048 A    
N5    O17   1.298304 A    
C7    C22   1.453078 S    
C132  H58   1.082706 S    
O12   Cu4   1.956107 S    
C13   C53   1.393434 A    
C54   C69   1.402163 A    
C81   C89   1.413513 A    
N7    O22   1.301370 A    
C134  C135  1.397767 A    
C39   C63   1.402222 A    
C53   C70   1.400730 A    
C79   N3    1.377432 A    
C119  C124  1.403265 A    
C38   C62   1.400908 A    
C146  C147  1.398017 A    
C73   N5    1.423332 S    
C49   C66   1.400733 A    
O6    Cu1   1.963345 S    
C9    C17   1.398878 A    
C73   N1    1.376660 A    
C108  H38   1.082706 S    
C46   C54   1.411795 A    
C129  H56   1.082531 S    
C29   C37   1.394223 A    
C104  C105  1.397768 A    
O13   C7    1.304495 A    
O3    C2    1.299084 A    
C20   C28   1.398512 A    
C32   C40   1.393257 A    
O14   C8    1.303870 A    
C106  H37   1.083140 S    
C14   C54   1.395573 A    
C9    C49   1.393440 A    
C76   C82   1.434512 A    
C121  H49   1.082271 S    
C16   C56   1.395573 A    
C91   C92   1.433886 A    
C39   C47   1.411229 A    
C124  H52   1.083144 S    
C77   N3    1.376656 A    
C33   C41   1.411230 A    
C116  H45   1.082255 S    
C38   C46   1.410784 A    
C105  C106  1.398078 A    
C127  C128  1.398037 A    
C78   N10   1.423336 S    
C116  C117  1.398018 A    
C35   C43   1.411224 A    
C114  H43   1.082953 S    
C136  H62   1.083146 S    
C36   C44   1.410781 A    
O13   Cu4   1.963348 S    
C134  H60   1.082280 S    
C30   H14   1.080019 S    
O14   Cu3   1.963345 S    
C68   H28   1.083716 S    
Cu1   N1    2.036941 S    
C84   C96   1.426586 A    
C59   C71   1.395803 A    
C79   C85   1.434516 A    
C24   C32   1.398510 A    
O16   Cu3   1.956110 S    
C95   C113  1.484711 S    
C127  H54   1.082227 S    
C27   C35   1.394225 A    
C25   C33   1.394230 A    
C139  H64   1.082271 S    
N5    O18   1.301316 A    
C71   H31   1.083648 S    
C132  C133  1.398002 A    
O1    Cu1   1.963345 S    
O8    Cu1   1.956110 S    
N9    O26   1.301315 A    
C42   C50   1.411792 A    
C81   C93   1.422605 A    
N8    O23   1.300158 A    
C133  H59   1.082225 S    
C15   H7    1.085009 S    
C41   C46   1.402304 A    
C21   C29   1.399166 A    
C128  C129  1.397767 A    
C10   C50   1.395568 A    
N10   O28   1.301316 A    
C142  H67   1.083148 S    
C89   C90   1.433885 A    
C100  C143  1.484713 S    
C80   C86   1.434502 A    
C148  H72   1.083150 S    
O8    C3    1.299471 A    
C27   H11   1.081247 S    
C117  C118  1.396326 A    
C30   C38   1.393258 A    
C44   C47   1.402300 A    
C63   H23   1.083966 S    
C123  H51   1.081652 S    
N8    O24   1.301376 A    
C121  C122  1.398051 A    
C62   H22   1.081210 S    
N11   O30   1.301378 A    
C144  H68   1.082953 S    
C93   C96   1.416438 A    
C84   C90   1.412570 A    
C147  H71   1.081657 S    
N10   O27   1.298305 A    
C138  H63   1.082954 S    
C111  C112  1.398078 A    
C29   H13   1.081247 S    
C34   C42   1.410780 A    
C140  C141  1.398017 A    
C137  C142  1.403264 A    
C96   C119  1.484706 S    
O12   C5    1.299472 A    
C93   C101  1.488415 S    
O10   C6    1.303863 A    
C110  C111  1.397767 A    
C111  H41   1.082533 S    
C1    C20   1.453077 S    
N6    O20   1.301316 A    
C131  C136  1.405100 A    
C88   C100  1.426552 A    
C33   C57   1.402222 A    
C2    C19   1.450947 S    
C103  C104  1.398042 A    
C67   H27   1.083655 S    
C129  C130  1.398077 A    
Cu2   N2    2.036941 S    
C3    C18   1.453079 S    
C76   N2    1.377426 A    
C5    C24   1.453077 S    
C35   C59   1.402220 A    
C131  C132  1.406202 A    
N12   O32   1.301376 A    
N11   O29   1.300151 A    
O11   Cu3   1.956107 S    
C80   N4    1.377420 A    
C15   C55   1.393439 A    
C26   C34   1.393253 A    
C125  C126  1.406203 A    
C128  H55   1.082280 S    
C130  H57   1.083145 S    
C58   H18   1.081199 S    
Cu1   Cu2   2.711096 S    
C107  C112  1.405098 A    
C86   C98   1.422603 A    
C97   C100  1.416434 A    
C57   H17   1.083967 S    
C51   C68   1.400730 A    
O7    Cu2   1.956107 S    
C86   C92   1.413516 A    
C40   C48   1.410780 A    
C98   C99   1.416433 A    
C25   H9    1.081261 S    
C55   C72   1.400731 A    
C22   C30   1.398514 A    
C77   C87   1.434646 A    
O4    C1    1.299470 A    
C31   H15   1.081257 S    
O15   C8    1.299084 A    
C12   H4    1.084874 S    
C72   H32   1.083722 S    
C43   C51   1.412283 A    
O7    C4    1.299089 A    
O16   C7    1.299471 A    
C99   C137  1.484709 S    
C12   C20   1.400797 A    
C66   H26   1.083722 S    
C135  H61   1.082533 S    
C37   C61   1.402221 A    
C16   C24   1.400795 A    
C65   H25   1.083652 S    
C31   C39   1.394227 A    
C126  H53   1.082708 S    
C98   C131  1.488414 S    
C144  C145  1.397949 A    
C52   C67   1.402164 A    
C78   C88   1.434643 A    
C138  C139  1.397951 A    
O9    Cu3   1.963345 S    
C19   C27   1.399164 A    
C110  H40   1.082278 S    
C77   N9    1.423321 S    
O10   Cu4   1.963345 S    
C122  H50   1.082254 S    
C28   C36   1.393259 A    
C115  C116  1.398050 A    
C133  C134  1.398037 A    
C83   C89   1.412565 A    
C75   N7    1.430423 S    
C42   C45   1.402298 A    
Cu4   N4    2.036941 S    
C57   C69   1.395804 A    
C123  C124  1.396323 A    
C78   N4    1.376655 A    
C64   C68   1.393637 A    
C37   C45   1.411224 A    
C145  C146  1.398050 A    
C59   H19   1.083959 S    
C82   C94   1.422623 A    
O4    Cu2   1.956107 S    
C101  C106  1.405105 A    
C76   N8    1.430420 S    
C147  C148  1.396323 A    
O5    C3    1.304495 A    
C74   N6    1.423322 S    
C48   C56   1.411793 A    
O6    C4    1.303862 A    
C113  C118  1.403266 A    
C43   C48   1.402299 A    
O11   C6    1.299089 A    
O1    C1    1.304496 A    
C125  C130  1.405096 A    
C36   C60   1.400907 A    
C112  H42   1.083146 S    
C87   C99   1.426581 A    
C82   C90   1.413524 A    
C41   C49   1.412282 A    
C107  C108  1.406203 A    
C14   H6    1.084872 S    
O2    Cu2   1.963345 S    
C143  C144  1.406156 A    
C122  C123  1.398019 A    
C13   C21   1.398880 A    
Cu3   N3    2.036941 S    
C146  H70   1.082256 S    
C10   H2    1.084874 S    
C62   C66   1.393638 A    
C103  H34   1.082222 S    
N6    O19   1.298307 A    
C9    H1    1.085009 S    
C4    C17   1.450942 S    
C40   C64   1.400901 A    
O9    C5    1.304495 A    
O15   Cu4   1.956107 S    
C117  H46   1.081655 S    
C69   H29   1.083653 S    
C115  H44   1.082271 S    
C58   C70   1.393635 A    
C11   H3    1.085007 S    
C23   C31   1.399166 A    
C119  C120  1.406161 A    
C83   C95   1.426568 A    
C135  C136  1.398076 A    
C79   N11   1.430421 S    
C140  H65   1.082256 S    
C109  C110  1.398039 A    
C13   H5    1.085009 S    
C102  H33   1.082707 S    
C44   C52   1.411794 A    
C120  C121  1.397948 A    
C18   C26   1.398513 A    
N7    O21   1.300175 A    
C85   C91   1.413529 A    
C56   C71   1.402160 A    
C94   C107  1.488410 S    
O5    Cu2   1.963348 S    
C109  H39   1.082225 S    
C105  H36   1.082537 S    
O3    Cu1   1.956107 S    
C47   C55   1.412284 A    
C114  C115  1.397950 A    
C74   N2    1.376665 A    
C64   H24   1.081197 S    
C126  C127  1.398003 A    
C97   C125  1.488404 S    
C61   H21   1.083963 S    
Cu3   Cu4   2.711096 S    
C11   C19   1.398879 A    
C94   C95   1.416438 A    
C32   H16   1.080016 S    
C75   C81   1.434498 A    
C10   C18   1.400799 A    
C145  H69   1.082272 S    
C60   H20   1.081208 S    
C50   C65   1.402164 A    
C17   C25   1.399166 A    
C104  H35   1.082276 S    
C6    C23   1.450941 S    
C61   C65   1.395802 A    
C120  H48   1.082954 S    
C102  C103  1.398002 A    
C137  C138  1.406157 A    
C80   N12   1.430426 S    
C11   C51   1.393437 A    
C34   C58   1.400901 A    
C28   H12   1.080018 S    
