data_mof_unit_43549.cif
_audit_creation_date              2012-12-11T17:34:23-0500
_audit_creation_method            fapswitch 2.2
_symmetry_space_group_name_H-M    P1
_symmetry_Int_Tables_number       1
_space_group_crystal_system       triclinic
_cell_length_a                    23.818453
_cell_length_b                    7.214303
_cell_length_c                    20.676031
_cell_angle_alpha                 90.001829
_cell_angle_beta                  105.399995
_cell_angle_gamma                 90.000291
_cell_volume                      3425.27249296

loop_
_atom_site_label
_atom_site_type_symbol
_atom_type_description
_atom_site_fract_x
_atom_site_fract_y
_atom_site_fract_z
_atom_type_partial_charge
O1    O     O_R   0.449110 0.494310 0.552140 -0.530898
O2    O     O_R   0.550890 0.994310 0.447860 -0.526478
O3    O     O_R   0.440010 0.824420 0.415850 -0.528966
O4    O     O_R   0.559990 0.324420 0.584150 -0.529474
C1    C     C_R   0.425407 0.655663 0.391005 0.775509
C2    C     C_R   0.574605 0.155674 0.608989 0.778341
O5    O     O_R   0.442260 0.824040 0.549660 -0.546228
O6    O     O_R   0.557740 0.324040 0.450340 -0.551765
O7    O     O_R   0.553160 0.993960 0.582620 -0.534498
O8    O     O_R   0.446840 0.493960 0.417380 -0.537719
C3    C     C_R   0.428260 0.655720 0.567315 0.701019
C4    C     C_R   0.570727 0.155956 0.431499 0.693579
O9    O     O_3   0.536380 0.660670 0.510660 -0.379634
O10   O     O_3   0.463620 0.160670 0.489340 -0.378865
V1    V     V_3+5 0.493250 0.935680 0.498020 1.465318
V2    V     V_3+5 0.506750 0.435680 0.501980 1.454823
C5    C     C_R   0.812590 0.906432 0.154712 -0.136507
C6    C     C_R   0.187689 0.406788 0.845750 -0.136167
H1    H     H_    0.786663 0.784470 0.157070 0.127909
H2    H     H_    0.213655 0.284894 0.843433 0.126165
C7    C     C_R   0.852471 0.902410 0.115553 -0.191966
C8    C     C_R   0.147748 0.402679 0.884818 -0.191064
H3    H     H_    0.855862 0.776584 0.088290 0.160226
H4    H     H_    0.144376 0.276905 0.912117 0.160100
C9    C     C_R   0.887079 0.058328 0.111087 -0.042258
C10   C     C_R   0.113016 0.558421 0.889098 -0.042204
C11   C     C_R   0.880749 0.220289 0.147955 0.214353
C12   C     C_R   0.119305 0.720337 0.852198 0.214292
C13   C     C_R   0.840082 0.222223 0.186633 -0.156767
C14   C     C_R   0.160024 0.722352 0.813611 -0.157578
H5    H     H_    0.835267 0.345529 0.214657 0.113239
H6    H     H_    0.164744 0.845493 0.785453 0.113069
C15   C     C_R   0.806164 0.066426 0.190307 0.091264
C16   C     C_R   0.194047 0.566718 0.810104 0.092367
C17   C     C_1   0.765030 0.073101 0.230953 -0.024628
C18   C     C_1   0.234890 0.573146 0.769140 -0.024813
C19   C     C_1   0.731040 0.085346 0.265241 -0.026565
C20   C     C_1   0.268303 0.585285 0.734168 -0.025549
C21   C     C_R   0.682549 0.961972 0.347817 -0.121245
C22   C     C_R   0.345269 0.462475 0.686448 -0.130183
H7    H     H_    0.706257 0.833206 0.349124 0.147593
H8    H     H_    0.345128 0.334635 0.713931 0.151529
C23   C     C_R   0.644194 0.980987 0.388249 -0.155227
C24   C     C_R   0.383726 0.481119 0.646169 -0.148466
H9    H     H_    0.639682 0.865574 0.419969 0.140783
H10   H     H_    0.412543 0.366270 0.644379 0.177031
C25   C     C_R   0.612438 0.145834 0.388433 -0.154015
C26   C     C_R   0.385740 0.644857 0.609502 -0.167142
C27   C     C_R   0.620213 0.293557 0.345752 0.190908
C28   C     C_R   0.346896 0.791741 0.614339 0.208343
C29   C     C_R   0.659168 0.273639 0.305319 0.242444
C30   C     C_R   0.308364 0.772053 0.655304 0.244778
C31   C     C_R   0.690461 0.107082 0.306290 0.009061
C32   C     C_R   0.307604 0.606854 0.691603 0.005900
C33   C     C_R   0.639406 0.183099 0.796204 0.128228
C34   C     C_R   0.360656 0.681843 0.203763 0.126774
H11   H     H_    0.724693 0.174182 0.910599 0.196244
H12   H     H_    0.275398 0.672246 0.089353 0.196065
C35   C     C_R   0.617610 0.149099 0.675245 -0.185160
C36   C     C_R   0.382404 0.648992 0.324755 -0.189336
C37   C     C_R   0.900729 0.024567 0.768673 -0.281329
C38   C     C_R   0.099239 0.525385 0.231354 -0.283111
C39   C     C_R   0.862419 0.024320 0.705030 0.701786
C40   C     C_R   0.137534 0.525516 0.295008 0.705079
C41   C     C_R   0.803150 0.054084 0.696550 -0.210455
C42   C     C_R   0.196818 0.554971 0.303481 -0.207414
C43   C     C_R   0.780188 0.085648 0.752105 -0.042444
C44   C     C_R   0.219812 0.585792 0.247908 -0.044236
C45   C     C_R   0.820044 0.087108 0.817873 -0.051395
C46   C     C_R   0.179974 0.586826 0.182127 -0.051102
C47   C     C_R   0.719026 0.116017 0.744237 0.070747
C48   C     C_R   0.280988 0.615854 0.255769 0.071161
C49   C     C_R   0.699124 0.149527 0.802267 -0.034781
C50   C     C_R   0.300924 0.648591 0.197714 -0.034411
C51   C     C_R   0.739008 0.149717 0.865800 -0.186405
C52   C     C_R   0.261057 0.648362 0.134169 -0.186463
C53   C     C_R   0.798014 0.118828 0.873805 0.559350
C54   C     C_R   0.202037 0.617803 0.126175 0.559575
C55   C     C_R   0.676780 0.114985 0.680781 -0.290418
C56   C     C_R   0.323218 0.615231 0.319238 -0.288184
C57   C     C_R   0.599328 0.183731 0.732861 0.562440
C58   C     C_R   0.400714 0.682940 0.267115 0.560384
C59   C     C_R   0.880774 0.055591 0.825480 -0.164832
C60   C     C_R   0.119226 0.555681 0.174526 -0.164664
H13   H     H_    0.688219 0.089998 0.634528 0.128185
H14   H     H_    0.311756 0.590803 0.365512 0.129830
H15   H     H_    0.946581 0.000464 0.773713 0.131062
H16   H     H_    0.053372 0.501594 0.226321 0.131211
H17   H     H_    0.776510 0.051781 0.645593 0.141521
H18   H     H_    0.223444 0.553038 0.354448 0.144813
O11   O     O_R   0.053190 0.709680 0.082610 -0.527570
O12   O     O_R   0.946810 0.209680 0.917390 -0.527365
O13   O     O_R   0.057740 0.380240 0.950340 -0.549578
O14   O     O_R   0.942260 0.880240 0.049660 -0.549596
C61   C     C_R   0.070814 0.548954 0.931603 0.778111
C62   C     C_R   0.929207 0.048943 0.068445 0.777984
O15   O     O_R   0.060000 0.379940 0.084150 -0.542396
O16   O     O_R   0.940000 0.879940 0.915850 -0.542527
O17   O     O_R   0.949110 0.210100 0.052140 -0.506518
O18   O     O_R   0.050890 0.710100 0.947860 -0.506684
C63   C     C_R   0.074973 0.548435 0.108826 0.833247
C64   C     C_R   0.925027 0.048424 0.891177 0.833091
O19   O     O_3   0.963630 0.543720 0.989330 -0.375076
O20   O     O_3   0.036370 0.043720 0.010670 -0.375152
V3    V     V_3+5 0.006750 0.268680 0.001980 1.527083
V4    V     V_3+5 0.993250 0.768680 0.998020 1.526723
N1    N     N_3   0.619312 0.217863 0.854621 -0.656004
H19   H     H_    0.599224 0.347920 0.849267 0.267222
H20   H     H_    0.587938 0.118129 0.856531 0.267125
N2    N     N_3   0.380789 0.715799 0.145322 -0.654697
H21   H     H_    0.400902 0.845808 0.150510 0.269147
H22   H     H_    0.412153 0.615874 0.143574 0.269539
F1    F     F_    0.882949 0.994359 0.650696 -0.662289
F2    F     F_    0.116973 0.496278 0.349361 -0.657896
F3    F     F_    0.833078 0.121230 0.937300 -0.714987
F4    F     F_    0.166991 0.619770 0.062670 -0.715317
N3    N     N_3   0.916342 0.381004 0.147598 -0.643476
H23   H     H_    0.902766 0.492027 0.172257 0.219161
H24   H     H_    0.958595 0.347872 0.175335 0.210778
N4    N     N_3   0.083582 0.880839 0.852377 -0.643569
H25   H     H_    0.097167 0.991923 0.827756 0.219524
H26   H     H_    0.041390 0.847410 0.824529 0.210688
N5    N     N_3   0.588051 0.463496 0.340534 -0.577828
H27   H     H_    0.543570 0.433343 0.329273 0.266139
H28   H     H_    0.601047 0.534491 0.386102 0.234794
N6    N     N_3   0.344323 0.961198 0.577397 -0.611214
H29   H     H_    0.337603 0.930464 0.526496 0.229130
H30   H     H_    0.383406 0.033310 0.595319 0.245589
N7    N     N_3   0.666279 0.425228 0.263264 -0.616515
H31   H     H_    0.655559 0.379105 0.213547 0.238657
H32   H     H_    0.710102 0.464605 0.276721 0.218575
N8    N     N_3   0.270138 0.922743 0.659428 -0.616744
H33   H     H_    0.278662 0.964125 0.709570 0.219094
H34   H     H_    0.227212 0.874879 0.643975 0.242712
F5    F     F_    0.542164 0.218000 0.727578 -0.708183
F6    F     F_    0.457876 0.717118 0.272376 -0.694325

loop_
_geom_bond_atom_site_label_1
_geom_bond_atom_site_label_2
_ccdc_geom_bond_type
C42   C44   A    
C39   C41   A    
N6    H29   S    
C59   C64   S    
C11   C13   A    
N1    H20   S    
C45   C53   A    
O1    C3    A    
O2    C4    A    
C2    O7    A    
C47   C55   A    
C29   N7    S    
H12   C52   S    
N5    H27   S    
C42   H18   S    
C41   H17   S    
C50   C52   A    
C17   C19   T    
C52   C54   A    
C26   C28   A    
N3    H24   S    
N5    H28   S    
C46   C54   A    
C27   N5    S    
C62   O17   A    
C13   C15   A    
C6    H2    S    
C37   C39   A    
N2    H21   S    
C56   H14   S    
C37   H15   S    
O13   V3    S    
C36   C58   A    
O14   V4    S    
N4    H26   S    
N8    H33   S    
C41   C43   A    
C28   C30   A    
N1    H19   S    
C28   N6    S    
C33   C57   A    
C46   C60   A    
C43   C47   A    
O12   C64   A    
O15   V3    S    
O5    V1    S    
O13   C61   A    
C13   H5    S    
C60   C63   S    
C49   C51   A    
O11   V4    S    
C3    C26   S    
C38   C60   A    
C5    C15   A    
O11   C63   A    
C4    C25   S    
C34   N2    S    
O20   V3    S    
C30   C32   A    
C57   F5    S    
C11   N3    S    
O17   V3    S    
C40   F2    S    
C14   C16   A    
C30   N8    S    
C34   C50   A    
C48   C50   A    
C37   C59   A    
C35   C55   A    
C47   C49   A    
C61   O18   A    
C5    H1    S    
C21   C23   A    
C24   H10   S    
C27   C29   A    
O16   C64   A    
C38   H16   S    
C5    C7    A    
C33   N1    S    
C44   C48   A    
C43   C45   A    
C40   C42   A    
O4    V2    S    
O5    C3    A    
C45   C59   A    
C51   C53   A    
C20   C32   S    
C22   C24   A    
O6    C4    A    
C33   C49   A    
O1    V2    S    
O14   C62   A    
O2    V1    S    
C6    C16   A    
N8    H34   S    
C44   C46   A    
C22   C32   A    
C7    H3    S    
C12   N4    S    
C8    H4    S    
O4    C2    A    
C9    C11   A    
C55   H13   S    
O3    V1    S    
N4    H25   S    
N7    H31   S    
C10   C61   S    
C7    C9    A    
C36   C56   A    
N6    H30   S    
C1    C36   S    
C6    C8    A    
C10   C12   A    
C2    C35   S    
C54   F4    S    
C35   C57   A    
O3    C1    A    
C34   C58   A    
C25   C27   A    
O18   V4    S    
O16   V4    S    
H11   C51   S    
C18   C20   T    
C38   C40   A    
O7    V1    S    
C19   C31   S    
C12   C14   A    
C48   C56   A    
O8    V2    S    
N3    H23   S    
C14   H6    S    
C21   C31   A    
C22   H8    S    
C15   C17   S    
O19   V4    S    
C16   C18   S    
C58   F6    S    
N2    H22   S    
C39   F1    S    
O12   V3    S    
C1    O8    A    
C21   H7    S    
C9    C62   S    
O6    V2    S    
C8    C10   A    
O9    V2    S    
O10   V1    S    
C29   C31   A    
C53   F3    S    
C23   C25   A    
C23   H9    S    
O15   C63   A    
C24   C26   A    
N7    H32   S    
