data_mof_unit_16844.cif
_audit_creation_date              2012-12-10T18:14:44-0500
_audit_creation_method            fapswitch 2.2
_symmetry_space_group_name_H-M    P1
_symmetry_Int_Tables_number       1
_space_group_crystal_system       triclinic
_cell_length_a                    11.073496
_cell_length_b                    9.587238
_cell_length_c                    27.548025
_cell_angle_alpha                 89.349282
_cell_angle_beta                  90.082343
_cell_angle_gamma                 89.574607
_cell_volume                      2924.34258161

loop_
_atom_site_label
_atom_site_type_symbol
_atom_type_description
_atom_site_fract_x
_atom_site_fract_y
_atom_site_fract_z
_atom_type_partial_charge
C1    C     C_R   0.261480 0.500018 0.501588 0.804040
C2    C     C_R   0.341418 0.618514 0.288750 0.310284
C3    C     C_R   0.392747 0.525987 0.255444 0.163548
C4    C     C_R   0.388753 0.572961 0.102665 -0.151154
C5    C     C_R   0.276961 0.565131 0.127337 -0.202643
C6    C     C_R   0.170072 0.559868 0.098804 0.315274
C7    C     C_R   0.496874 0.559995 0.129022 -0.123717
C8    C     C_R   0.457051 0.505615 0.354757 -0.251410
C9    C     C_R   0.471159 0.508236 0.645989 -0.405889
C10   C     C_R   0.291767 0.605895 0.972734 0.061173
C11   C     C_R   0.512949 0.619100 0.976986 -0.092406
C12   C     C_R   0.490271 0.501026 0.407501 0.989977
C13   C     C_R   0.405429 0.612768 0.949312 -0.014435
C14   C     C_R   0.187292 0.632052 0.944472 0.339570
C15   C     C_R   0.191253 0.612179 0.893623 0.358323
C16   C     C_R   0.304326 0.599329 0.870397 -0.073559
C17   C     C_R   0.411273 0.613359 0.897896 -0.182831
C18   C     C_R   0.523906 0.623518 0.874039 -0.197091
C19   C     C_R   0.525527 0.620302 0.822780 0.662307
C20   C     C_R   0.314395 0.574451 0.820184 0.699996
C21   C     C_R   0.379386 0.646269 0.711050 0.436109
C22   C     C_R   0.386649 0.610978 0.661832 0.282636
C23   C     C_R   0.741397 0.499185 0.496238 0.972857
C24   C     C_R   0.535467 0.429774 0.681720 0.299041
C25   C     C_R   0.505577 0.444006 0.731051 0.322294
C26   C     C_R   0.433732 0.558114 0.746219 -0.047938
C27   C     C_R   0.286094 0.584095 0.023927 -0.067184
C28   C     C_R   0.393528 0.587452 0.051400 0.050576
C29   C     C_R   0.507033 0.593043 0.027768 0.017589
C30   C     C_R   0.179275 0.541354 0.048134 0.380126
C31   C     C_R   0.603163 0.523717 0.104253 0.426365
C32   C     C_R   0.622837 0.650706 0.952556 0.359542
C33   C     C_R   0.629896 0.641784 0.902086 0.440209
C34   C     C_R   0.495966 0.500288 0.592747 0.912248
C35   C     C_R   0.609280 0.547823 0.054316 -0.236489
C36   C     C_3   0.072459 0.575384 0.544471 -0.493818
C37   C     C_3   0.080544 0.349048 0.507475 -0.474338
C38   C     C_3   0.934951 0.601869 0.535619 0.648330
C39   C     C_3   0.939278 0.344005 0.507753 0.665846
C40   C     C_3   0.080932 0.560023 0.451543 -0.472276
C41   C     C_3   0.126109 0.498266 0.501071 -0.076293
C42   C     C_3   0.884141 0.496723 0.494434 -0.133111
C43   C     C_3   0.942476 0.537067 0.443212 0.634550
C44   C     C_3   0.606076 0.079171 0.526779 0.270340
C45   C     C_3   0.592248 0.915128 0.534738 0.254855
C46   C     C_3   0.391207 0.082656 0.525495 -0.233821
C47   C     C_3   0.383708 0.917825 0.519297 -0.234038
C48   C     C_3   0.502298 0.086125 0.451082 0.283318
C49   C     C_3   0.521731 0.922044 0.451529 0.201815
C50   C     C_R   0.279756 0.546534 0.178978 0.743760
C51   C     C_R   0.492889 0.569988 0.179536 0.685278
C52   C     C_R   0.465304 0.415127 0.272206 0.308104
C53   C     C_R   0.510762 0.416732 0.320018 0.234159
C54   C     C_R   0.363804 0.597870 0.339218 0.248221
Cu1   Cu    Cu3+1 0.499860 0.642410 0.500020 1.045911
Cu2   Cu    Cu3+1 0.499860 0.357590 0.500020 1.067563
H1    H     H_    0.690629 0.516841 0.035576 0.245521
H2    H     H_    0.124222 0.670595 0.552509 0.215238
H3    H     H_    0.123293 0.287490 0.478504 0.244313
H4    H     H_    0.085733 0.512049 0.578287 0.187595
H5    H     H_    0.118146 0.301763 0.541466 0.158460
H6    H     H_    0.102859 0.672536 0.449326 0.253557
H7    H     H_    0.132994 0.510319 0.421767 0.188325
H8    H     H_    0.685207 0.094851 0.503811 0.140310
H9    H     H_    0.677324 0.864551 0.527435 0.189117
H10   H     H_    0.392630 0.107599 0.564855 0.232043
H11   H     H_    0.358242 0.868652 0.554505 0.256657
H12   H     H_    0.579442 0.130797 0.431844 0.198446
H13   H     H_    0.617607 0.901534 0.441556 0.148196
H14   H     H_    0.306697 0.130975 0.511613 0.161887
H15   H     H_    0.306638 0.892838 0.495422 0.148704
N1    N     N_R   0.386631 0.553381 0.203724 -0.425350
N2    N     N_R   0.423487 0.587203 0.797416 -0.451809
N3    N     N_3   0.500250 0.143650 0.501060 -0.220598
N4    N     N_3   0.500250 0.856350 0.501060 -0.233506
O1    O     O_R   0.317570 0.620260 0.500030 -0.595591
O2    O     O_R   0.317570 0.379740 0.500030 -0.610744
O3    O     O_R   0.499900 0.620250 0.430280 -0.511871
O4    O     O_R   0.499900 0.379750 0.430280 -0.530255
O5    O     O_R   0.682190 0.620260 0.500010 -0.560372
O6    O     O_R   0.682190 0.379740 0.500010 -0.506288
O7    O     O_R   0.499860 0.620280 0.569750 -0.528574
O8    O     O_R   0.499860 0.379720 0.569750 -0.512628
O9    O     O_2   0.179573 0.515275 0.204236 -0.407365
O10   O     O_2   0.216888 0.535985 0.794333 -0.412642
O11   O     O_2   0.594132 0.598224 0.204626 -0.443630
O12   O     O_2   0.627564 0.649288 0.798092 -0.437107
O13   O     O_3   0.295225 0.664255 0.373879 -0.730843
H16   H     H_    0.216319 0.691466 0.359526 0.331418
O14   O     O_3   0.500022 0.315213 0.239207 -0.619986
H17   H     H_    0.523435 0.229088 0.257144 0.384698
S1    S     S_3+6 0.704031 0.399195 0.130092 0.119970
O15   O     O_2   0.773243 0.461294 0.171269 -0.140496
O16   O     O_2   0.631398 0.278873 0.149310 -0.236292
O17   O     O_3   0.800497 0.339474 0.087913 -0.473054
H18   H     H_    0.832800 0.250695 0.101531 0.409320
O18   O     O_3   0.724546 0.696732 0.976370 -0.638487
H19   H     H_    0.697883 0.751647 0.004734 0.346179
S2    S     S_3+6 0.661569 0.322762 0.668202 0.129791
O19   O     O_2   0.716283 0.364033 0.620478 -0.188322
O20   O     O_2   0.756598 0.337723 0.706807 -0.172649
O21   O     O_3   0.617117 0.155456 0.667292 -0.460506
H20   H     H_    0.592412 0.133347 0.701029 0.389599
O22   O     O_3   0.742520 0.653634 0.881429 -0.608876
H21   H     H_    0.755050 0.568885 0.861714 0.359827
O23   O     O_3   0.553910 0.349172 0.764091 -0.652514
H22   H     H_    0.506886 0.351824 0.794603 0.334532
O24   O     O_3   0.871290 0.574957 0.579059 -0.658950
H23   H     H_    0.911393 0.624718 0.606013 0.373378
O25   O     O_3   0.898635 0.309942 0.554950 -0.660048
H24   H     H_    0.942741 0.226435 0.567388 0.356536
O26   O     O_3   0.273378 0.729074 0.270971 -0.653839
H25   H     H_    0.272924 0.804415 0.295276 0.359000
S3    S     S_3+6 0.922172 0.788192 0.522641 0.024962
O27   O     O_2   0.835970 0.822252 0.482348 -0.232762
O28   O     O_2   0.879341 0.859764 0.567902 -0.321167
O29   O     O_3   0.055617 0.858847 0.506447 -0.525389
H26   H     H_    0.082037 0.914858 0.534492 0.364659
S4    S     S_3+6 0.902550 0.197984 0.468357 0.042574
O30   O     O_2   0.999421 0.164630 0.431851 -0.252648
O31   O     O_2   0.891217 0.075242 0.501260 -0.258123
O32   O     O_3   0.775364 0.218856 0.436906 -0.487980
H27   H     H_    0.777384 0.140905 0.413654 0.384781
O33   O     O_3   0.887311 0.655528 0.422412 -0.642439
H28   H     H_    0.935817 0.685712 0.393917 0.339464
O34   O     O_3   0.928425 0.429120 0.409765 -0.608441
H29   H     H_    0.964099 0.458380 0.378214 0.354987
O35   O     O_3   0.627189 0.145595 0.570646 -0.560931
H30   H     H_    0.710441 0.118720 0.580724 0.384736
O36   O     O_3   0.563288 0.884255 0.583591 -0.620560
H31   H     H_    0.639551 0.884518 0.602607 0.374189
O37   O     O_3   0.400619 0.130452 0.423757 -0.630482
H32   H     H_    0.328451 0.078374 0.434418 0.330304
O38   O     O_3   0.452921 0.863635 0.414184 -0.610005
H33   H     H_    0.368837 0.853154 0.425233 0.367949
S5    S     S_3+6 0.024712 0.572896 0.124790 0.151132
O39   O     O_2   0.931041 0.607642 0.086979 -0.193499
O40   O     O_2   0.997854 0.434149 0.148023 -0.159551
O41   O     O_3   0.022193 0.698723 0.166881 -0.459828
H34   H     H_    0.942450 0.689965 0.182827 0.404496
O42   O     O_3   0.311616 0.681728 0.629779 -0.641520
H35   H     H_    0.292985 0.619138 0.602527 0.296528
S6    S     S_3+6 0.303560 0.803402 0.726981 0.116752
O43   O     O_2   0.170648 0.775527 0.731428 -0.185311
O44   O     O_2   0.350293 0.859144 0.774144 -0.274663
O45   O     O_3   0.325186 0.924391 0.683176 -0.460867
H36   H     H_    0.278259 0.007005 0.693713 0.374604
O46   O     O_3   0.086636 0.609918 0.866241 -0.616140
H37   H     H_    0.019161 0.578673 0.887219 0.364418
O47   O     O_3   0.086088 0.686547 0.966872 -0.649700
H38   H     H_    0.035892 0.736983 0.942503 0.375095
S7    S     S_3+6 0.088403 0.408259 0.021588 0.096509
O48   O     O_2   0.153837 0.342303 0.979818 -0.293328
O49   O     O_2   0.064150 0.296904 0.059078 -0.225852
O50   O     O_3   0.955556 0.473043 0.001593 -0.412531
H39   H     H_    0.912040 0.391927 0.988379 0.381279
S8    S     S_3+6 0.650191 0.332611 0.331059 0.063351
O51   O     O_2   0.727940 0.342673 0.286426 -0.187771
O52   O     O_2   0.713619 0.403394 0.371816 -0.228176
O53   O     O_3   0.625195 0.163766 0.344375 -0.544370
H40   H     H_    0.694382 0.112158 0.330334 0.380153

loop_
_geom_bond_atom_site_label_1
_geom_bond_atom_site_label_2
_ccdc_geom_bond_type
C10   C27   A    
S6    O45   S    
C54   O13   S    
Cu1   Cu2   S    
O34   H29   S    
C24   S2    S    
C1    O2    A    
C52   O14   S    
O17   H18   S    
C21   C26   A    
O35   H30   S    
S3    O27   D    
C50   O9    S    
Cu2   O6    S    
C44   H8    S    
C2    O26   S    
S8    O51   D    
C40   H7    S    
C28   C29   A    
C32   O18   S    
C38   C42   S    
C36   H2    S    
S5    O41   S    
C5    C6    A    
C38   S3    S    
C3    C52   A    
C39   S4    S    
C9    C22   A    
O23   H22   S    
C15   C16   A    
C33   O22   S    
C12   O4    A    
C26   N2    S    
C40   H6    S    
O24   H23   S    
C43   O34   S    
C18   C19   A    
C50   N1    A    
O25   H24   S    
O22   H21   S    
C6    S5    S    
C49   O38   S    
O36   H31   S    
C39   O25   S    
C23   C42   S    
C16   C17   A    
C12   O3    A    
C49   N4    S    
C23   O5    A    
C8    C12   S    
Cu1   N4    S    
O13   H16   S    
C45   O36   S    
S8    O52   D    
C49   H13   S    
C21   C22   A    
C27   C30   A    
C37   C41   S    
C14   O47   S    
C36   C41   S    
C4    C7    A    
C51   O11   S    
C47   H11   S    
O26   H25   S    
C4    C28   A    
C25   O23   S    
O18   H19   S    
C39   C42   S    
S4    O31   D    
C7    C31   A    
C48   N3    S    
C19   N2    A    
Cu2   N3    S    
C24   C25   A    
C21   S6    S    
S5    O40   D    
C34   O8    A    
C2    C54   A    
C8    C54   A    
Cu1   O3    S    
O37   H32   S    
C25   C26   A    
S1    O17   S    
C48   H12   S    
Cu2   O2    S    
C30   S7    S    
S2    O19   D    
S7    O50   S    
C16   C20   A    
C20   O10   S    
C40   C43   S    
S1    O16   D    
C17   C18   A    
S4    O30   D    
O46   H37   S    
Cu1   O7    S    
C44   N3    S    
Cu2   O4    S    
C47   H15   S    
C37   H3    S    
Cu1   O1    S    
C1    C41   S    
C40   C41   S    
C6    C30   A    
S7    O49   D    
C11   C32   A    
S8    O53   S    
C10   C14   A    
C9    C34   S    
C31   C35   A    
C5    C50   A    
C51   N1    A    
C46   N3    S    
C52   C53   A    
Cu2   O8    S    
O45   H36   S    
S4    O32   S    
S6    O44   D    
C46   C47   S    
C44   O35   S    
C37   H5    S    
C23   O6    A    
S2    O20   D    
C14   C15   A    
C1    O1    A    
C44   C45   S    
C4    C5    A    
C36   H4    S    
C10   C13   A    
C8    C53   A    
S3    O28   D    
O41   H34   S    
C9    C24   A    
C46   H10   S    
O38   H33   S    
C29   C35   A    
C53   S8    S    
C13   C17   A    
C45   N4    S    
C32   C33   A    
C36   C38   S    
C3    N1    S    
C19   O12   S    
C47   N4    S    
C37   C39   S    
O29   H26   S    
O53   H40   S    
C45   H9    S    
Cu1   O5    S    
C11   C13   A    
O14   H17   S    
C15   O46   S    
C48   C49   S    
C22   O42   S    
S1    O15   D    
C20   N2    A    
C35   H1    S    
C38   O24   S    
O21   H20   S    
C18   C33   A    
C46   H14   S    
S3    O29   S    
C7    C51   A    
S2    O21   S    
S7    O48   D    
C11   C29   A    
C31   S1    S    
C42   C43   S    
O50   H39   S    
O47   H38   S    
C48   O37   S    
C2    C3    A    
C34   O7    A    
O32   H27   S    
O42   H35   S    
C43   O33   S    
S5    O39   D    
S6    O43   D    
O33   H28   S    
C27   C28   A    
