data_mof_unit_27136.cif
_audit_creation_date              2012-12-11T17:43:38-0500
_audit_creation_method            fapswitch 2.2
_symmetry_space_group_name_H-M    P1
_symmetry_Int_Tables_number       1
_space_group_crystal_system       triclinic
_cell_length_a                    15.061194
_cell_length_b                    15.20158
_cell_length_c                    16.930188
_cell_angle_alpha                 108.838743
_cell_angle_beta                  106.283536
_cell_angle_gamma                 109.298239
_cell_volume                      3120.42335469

loop_
_atom_site_label
_atom_site_type_symbol
_atom_type_description
_atom_site_fract_x
_atom_site_fract_y
_atom_site_fract_z
_atom_type_partial_charge
C1    C     C_R   0.087133 0.292045 0.080522 -0.159169
C2    C     C_R   0.087110 0.094561 0.052693 -0.234075
C3    C     C_R   0.002191 0.921720 0.036502 0.072312
C4    C     C_R   0.004804 0.111729 0.062832 0.060087
C5    C     C_R   0.086283 0.000125 0.037547 0.019486
C6    C     C_R   0.923425 0.036966 0.067386 0.023526
C7    C     C_R   0.735007 0.982865 0.034762 -0.170210
C8    C     C_R   0.275216 0.048833 0.083229 -0.186965
C9    C     C_R   0.684389 0.098977 0.125993 -0.099446
C10   C     C_R   0.333560 0.967312 0.974442 -0.100628
C11   C     C_R   0.477558 0.570192 0.269305 -0.123212
C12   C     C_R   0.909751 0.722926 0.962828 -0.110310
C13   C     C_R   0.511146 0.315916 0.647693 -0.084893
C14   C     C_R   0.472027 0.551709 0.181238 -0.123769
C15   C     C_R   0.498268 0.325461 0.728169 -0.145831
C16   C     C_R   0.934454 0.519657 0.747300 0.669177
C17   C     C_R   0.063771 0.545530 0.265643 0.702366
C18   C     C_R   0.443072 0.450311 0.116041 0.111108
C19   C     C_R   0.474275 0.403772 0.773255 0.112715
C20   C     C_R   0.421576 0.368274 0.140629 -0.196859
C21   C     C_R   0.461651 0.470974 0.735237 -0.174244
C22   C     C_R   0.426158 0.387018 0.228470 -0.123429
C23   C     C_R   0.024700 0.579525 0.744231 -0.103866
C24   C     C_R   0.474193 0.460815 0.654489 -0.106650
C25   C     C_R   0.454095 0.487928 0.292769 -0.081572
C26   C     C_R   0.499182 0.383577 0.610912 -0.054878
C27   C     C_R   0.519782 0.414839 0.010060 -0.230147
C28   C     C_R   0.379961 0.428221 0.872014 -0.243349
C29   C     C_R   0.536980 0.415539 0.933595 0.059568
C30   C     C_R   0.369862 0.438993 0.953975 0.070079
C31   C     C_R   0.464117 0.416109 0.860558 0.026377
C32   C     C_R   0.439918 0.430395 0.023289 0.018447
C33   C     C_R   0.657367 0.003578 0.053638 -0.106523
C34   C     C_R   0.971952 0.533417 0.275102 -0.115781
C35   C     C_R   0.356009 0.038692 0.062674 -0.122433
C36   C     C_R   0.961852 0.578680 0.361037 0.154081
C37   C     C_R   0.032486 0.619997 0.676958 0.161945
C38   C     C_R   0.137171 0.692845 0.606544 -0.210405
C39   C     C_R   0.856343 0.560822 0.445085 -0.223283
C40   C     C_R   0.777169 0.203603 0.812310 -0.127124
C41   C     C_R   0.279752 0.784444 0.176239 -0.147739
C42   C     C_R   0.130463 0.672722 0.679625 -0.193279
C43   C     C_R   0.863381 0.543989 0.361888 -0.163342
C44   C     C_R   0.941867 0.595902 0.603315 -0.256506
C45   C     C_R   0.761025 0.198000 0.725572 0.034060
C46   C     C_R   0.051588 0.645711 0.445094 -0.239124
C47   C     C_R   0.947582 0.607153 0.526542 0.155889
C48   C     C_R   0.045934 0.653322 0.527222 0.165882
C49   C     C_R   0.720822 0.103042 0.639210 0.134746
C50   C     C_R   0.445798 0.856693 0.321254 0.133326
C51   C     C_R   0.591415 0.030359 0.392025 -0.224775
C52   C     C_R   0.617778 0.914393 0.554132 -0.223038
C53   C     C_R   0.499289 0.948988 0.316808 -0.167661
C54   C     C_R   0.686096 0.004183 0.637422 -0.166340
C55   C     C_R   0.492512 0.841721 0.396614 -0.295122
C56   C     C_R   0.336983 0.782220 0.254443 0.013584
C57   C     C_R   0.701698 0.109326 0.555692 -0.285752
C58   C     C_R   0.582226 0.923771 0.473133 0.192829
C59   C     C_R   0.628737 0.020697 0.472688 0.190199
C60   C     C_R   0.789159 0.173705 0.179957 -0.109165
C61   C     C_R   0.230301 0.906124 0.906746 -0.119015
C62   C     C_R   0.867096 0.153183 0.161652 -0.132602
C63   C     C_R   0.149006 0.915077 0.927141 -0.117353
C64   C     C_R   0.262123 0.536323 0.951863 -0.129664
C65   C     C_R   0.699129 0.402706 0.994100 -0.147351
C66   C     C_R   0.840721 0.057816 0.088272 0.112968
C67   C     C_R   0.289113 0.462701 0.968529 0.042661
C68   C     C_R   0.170991 0.986190 0.015855 0.109115
C69   C     C_R   0.782856 0.298082 0.734688 -0.131991
C70   C     C_R   0.275782 0.689590 0.252001 -0.021070
C71   C     C_R   0.244565 0.433773 0.022281 -0.112557
C72   C     C_R   0.704659 0.501190 0.921069 -0.110812
C73   C     C_R   0.107204 0.602829 0.823162 -0.255518
C74   C     C_R   0.890277 0.463996 0.187484 -0.250680
C75   C     C_R   0.914557 0.204294 0.000353 -0.124336
C76   C     C_R   0.084031 0.805690 0.046240 -0.112411
C77   C     C_R   0.000685 0.200612 0.052026 0.055966
C78   C     C_R   0.640986 0.435618 0.944388 0.045265
C79   C     C_R   0.997366 0.820639 0.019722 0.031915
C80   C     C_R   0.922885 0.941116 0.053260 -0.239559
F1    F     F_    0.836445 0.502307 0.699999 -0.757607
F2    F     F_    0.161724 0.594722 0.333819 -0.762866
H1    H     H_    0.165467 0.319822 0.130925 0.112168
H2    H     H_    0.507533 0.272142 0.755579 0.117116
H3    H     H_    0.400202 0.289848 0.091404 0.127759
H4    H     H_    0.443974 0.532381 0.768895 0.109733
H5    H     H_    0.408459 0.323425 0.246794 0.107544
H6    H     H_    0.465081 0.513254 0.625953 0.111301
H7    H     H_    0.576336 0.415377 0.066697 0.128948
H8    H     H_    0.323088 0.430663 0.817981 0.132043
H9    H     H_    0.127476 0.682034 0.447099 0.198213
H10   H     H_    0.865417 0.558041 0.599334 0.205087
H11   H     H_    0.791858 0.497275 0.298659 0.120595
H12   H     H_    0.829850 0.706374 0.927376 0.103395
H13   H     H_    0.202230 0.693212 0.735116 0.114607
H14   H     H_    0.213311 0.728773 0.608020 0.135504
H15   H     H_    0.780059 0.527134 0.443960 0.134586
H16   H     H_    0.576152 0.945779 0.011883 0.099957
H17   H     H_    0.435991 0.086616 0.114969 0.101395
H18   H     H_    0.732777 0.184177 0.555257 0.123910
H19   H     H_    0.453961 0.771145 0.401419 0.122136
H20   H     H_    0.704037 0.995979 0.700263 0.116716
H21   H     H_    0.467084 0.961977 0.258541 0.115171
H22   H     H_    0.627585 0.103826 0.390180 0.129527
H23   H     H_    0.712509 0.909112 0.977592 0.109045
H24   H     H_    0.584794 0.839639 0.554722 0.130006
H25   H     H_    0.624167 0.114960 0.140286 0.093487
H26   H     H_    0.396191 0.959976 0.958298 0.096239
H27   H     H_    0.810042 0.247580 0.236044 0.116855
H28   H     H_    0.213434 0.852579 0.838222 0.118661
H29   H     H_    0.947953 0.211765 0.204537 0.117731
H30   H     H_    0.069364 0.867474 0.873926 0.121063
H31   H     H_    0.767558 0.140851 0.830939 0.094401
H32   H     H_    0.308810 0.836100 0.148080 0.100137
H33   H     H_    0.285361 0.576548 0.913253 0.100481
H34   H     H_    0.293595 0.104998 0.151672 0.113656
H35   H     H_    0.670789 0.341195 0.013270 0.097236
H36   H     H_    0.778365 0.322851 0.681518 0.153091
H37   H     H_    0.302047 0.652990 0.291989 0.149758
H38   H     H_    0.246064 0.375404 0.044702 0.115433
H39   H     H_    0.682332 0.534530 0.876104 0.115602
H40   H     H_    0.187605 0.660401 0.851109 0.131675
H41   H     H_    0.807824 0.436012 0.167939 0.137701
H42   H     H_    0.833571 0.149517 0.974610 0.105590
H43   H     H_    0.164184 0.863837 0.090881 0.116242
H44   H     H_    0.861372 0.881804 0.056167 0.130483
H45   H     H_    0.458206 0.502534 0.360965 0.105299
H46   H     H_    0.148708 0.151721 0.047828 0.133398
H47   H     H_    0.509250 0.376153 0.548634 0.103509
H48   H     H_    0.500754 0.648401 0.319570 0.112576
H49   H     H_    0.530494 0.256082 0.613898 0.115876
H50   H     H_    0.490427 0.616066 0.163843 0.115484
N1    N     N_R   0.055660 0.348550 0.045620 -0.041821
N2    N     N_R   0.185200 0.638170 0.176300 -0.052957
N3    N     N_R   0.201680 0.494570 0.045620 -0.046960
N4    N     N_R   0.798320 0.505430 0.954380 -0.041422
N5    N     N_R   0.068420 0.560530 0.871650 -0.067218
N6    N     N_R   0.931580 0.439470 0.128350 -0.068429
N7    N     N_R   0.948070 0.295860 0.997670 -0.041164
N8    N     N_R   0.051930 0.704140 0.002330 -0.045890
N9    N     N_R   0.944340 0.651450 0.954380 -0.040505
N10   N     N_R   0.960830 0.507850 0.823700 -0.096649
N11   N     N_R   0.039170 0.492150 0.176300 -0.102155
N12   N     N_R   0.811290 0.303410 0.871650 -0.043456
N13   N     N_R   0.188710 0.696590 0.128350 -0.047522
N14   N     N_R   0.205200 0.552990 0.997670 -0.039814
N15   N     N_R   0.794800 0.447010 0.002330 -0.037715
N16   N     N_R   0.814800 0.361830 0.823700 -0.035028
Ni1   Ni    Ni4+2 0.119340 0.493420 0.109960 0.231863
Ni2   Ni    Ni4+2 0.880660 0.506580 0.890040 0.267442
Ni3   Ni    Ni4+2 0.872590 0.372590 0.000000 0.204833
Ni4   Ni    Ni4+2 0.127410 0.627410 0.000000 0.203042

loop_
_geom_bond_atom_site_label_1
_geom_bond_atom_site_label_2
_ccdc_geom_bond_type
N5    N10   A    
C72   H39   S    
C27   C29   A    
C1    C77   A    
C14   C18   A    
C10   H26   S    
C76   C79   A    
C41   H32   S    
N12   N16   A    
C19   C31   S    
C14   H50   S    
C15   C19   A    
C74   N6    A    
C80   H44   S    
C71   H38   S    
C19   C21   A    
N16   Ni2   S    
C38   C42   A    
N12   Ni3   S    
N6    N11   A    
C71   N3    A    
C11   C14   A    
C35   H17   S    
C57   C59   A    
C11   C25   A    
C49   C54   A    
C12   C79   A    
C69   H36   S    
C63   H30   S    
C49   C57   A    
C12   N9    A    
C60   C62   A    
C33   H16   S    
N7    Ni3   S    
C37   C42   A    
C61   C63   A    
C72   C78   A    
C60   H27   S    
C63   C68   A    
C29   C78   S    
C40   H31   S    
C22   C25   A    
N11   Ni1   S    
C7    H23   S    
N5    Ni4   S    
C36   C46   A    
C10   C35   A    
C65   N15   A    
N8    Ni4   S    
C67   C71   A    
C30   C67   S    
C44   H10   S    
C44   C47   A    
C74   H41   S    
C52   H24   S    
C64   H33   S    
C9    C33   A    
C76   H43   S    
C7    C33   A    
C12   H12   S    
C23   C73   A    
C5    C68   S    
C1    N1    A    
C61   H28   S    
C52   C54   A    
N9    Ni2   S    
C76   N8    A    
C40   C45   A    
C46   C48   A    
C50   C53   A    
C62   C66   A    
C45   C69   A    
C75   H42   S    
N4    N15   A    
C64   C67   A    
N1    Ni1   S    
N8    N9    A    
C4    C6    A    
C39   C43   A    
C46   H9    S    
C58   C59   A    
N3    Ni1   S    
N2    Ni1   S    
C50   C56   S    
C42   H13   S    
C51   C53   A    
C8    C35   A    
N15   Ni3   S    
C41   C56   A    
C24   H6    S    
C6    C80   A    
C47   C48   A    
C45   C49   S    
C70   H37   S    
C17   F2    S    
N3    N14   A    
C20   H3    S    
C13   H49   S    
C41   N13   A    
C22   H5    S    
C62   H29   S    
C75   C77   A    
C3    C79   S    
C26   H47   S    
C52   C58   A    
C34   C74   A    
C16   N10   A    
N14   Ni4   S    
C20   C22   A    
C8    C68   A    
C16   C23   A    
C56   C70   A    
C13   C15   A    
C13   C26   A    
C21   C24   A    
C10   C61   A    
C51   C59   A    
C17   C34   A    
C11   H48   S    
C39   C47   A    
N2    N13   A    
C21   H4    S    
C65   C78   A    
C28   H8    S    
C64   N14   A    
C27   C32   A    
C38   C48   A    
C54   H20   S    
C28   C31   A    
C24   C26   A    
C3    C5    A    
C72   N4    A    
N4    Ni2   S    
N1    N7    A    
C15   H2    S    
N6    Ni3   S    
C1    H1    S    
C55   H19   S    
C50   C55   A    
C40   N12   A    
C17   N11   A    
C9    C60   A    
N10   Ni2   S    
C37   C44   A    
C28   C30   A    
C51   H22   S    
C4    C77   S    
C29   C31   A    
C23   C37   S    
C7    C66   A    
C30   C32   A    
C57   H18   S    
C73   N5    A    
C53   H21   S    
C2    C4    A    
C3    C80   A    
C16   F1    S    
C43   H11   S    
C34   C36   S    
C27   H7    S    
C18   C20   A    
C25   H45   S    
N13   Ni4   S    
C39   H15   S    
C8    H34   S    
C2    C5    A    
C6    C66   S    
C18   C32   S    
C73   H40   S    
C55   C58   A    
C38   H14   S    
C70   N2    A    
C69   N16   A    
C65   H35   S    
C9    H25   S    
C36   C43   A    
C75   N7    A    
C2    H46   S    
