data_mof_unit_63947.cif
_audit_creation_date              2012-12-10T16:57:52-0500
_audit_creation_method            fapswitch 2.2
_symmetry_space_group_name_H-M    P1
_symmetry_Int_Tables_number       1
_space_group_crystal_system       triclinic
_cell_length_a                    10.646582
_cell_length_b                    10.92813
_cell_length_c                    9.698775
_cell_angle_alpha                 90.148458
_cell_angle_beta                  90.56929
_cell_angle_gamma                 89.962037
_cell_volume                      1128.36590914

loop_
_atom_site_label
_atom_site_type_symbol
_atom_type_description
_atom_site_fract_x
_atom_site_fract_y
_atom_site_fract_z
_atom_type_partial_charge
C1    C     C_R   0.502984 0.265453 0.499897 0.835567
C2    C     C_3   0.956844 0.603068 0.440091 0.109608
C3    C     C_3   0.037624 0.505186 0.367627 0.104256
C4    C     C_3   0.122684 0.500066 0.496825 -0.211186
C5    C     C_2   0.505372 0.933132 0.389942 -0.244747
C6    C     C_2   0.481531 0.866094 0.502435 0.475211
C7    C     C_2   0.493861 0.066519 0.388225 -0.089446
C8    C     C_2   0.514871 0.133851 0.501434 -0.188798
C9    C     C_2   0.428309 0.428866 0.921199 -0.017528
C10   C     C_2   0.432704 0.424912 0.076821 -0.016005
C11   C     C_R   0.259408 0.500201 0.499089 0.871138
C12   C     C_R   0.496529 0.734602 0.500234 0.756526
C13   C     C_R   0.740473 0.500036 0.500767 0.888220
C14   C     C_3   0.042603 0.397897 0.559226 0.101747
C15   C     C_3   0.956676 0.403947 0.431243 0.588533
C16   C     C_3   0.876946 0.500958 0.502326 -0.216082
C17   C     C_3   0.961588 0.495884 0.631742 -0.234211
C18   C     C_3   0.043529 0.598622 0.569110 -0.192424
Cu1   Cu    Cu3+1 0.500030 0.500020 0.638630 1.014434
Cu2   Cu    Cu3+1 0.499970 0.499980 0.361370 1.012813
H1    H     H_    0.545371 0.093016 0.597805 0.214595
H2    H     H_    0.362847 0.367887 0.869091 0.178846
H3    H     H_    0.564538 0.552868 0.894888 0.206040
H4    H     H_    0.375286 0.356704 0.127216 0.168517
H5    H     H_    0.549157 0.566679 0.106708 0.208084
H6    H     H_    0.928482 0.492111 0.739842 0.208620
H7    H     H_    0.081924 0.679142 0.625386 0.202543
H8    H     H_    0.532568 0.889078 0.294209 0.157304
H9    H     H_    0.472167 0.109852 0.290162 0.171929
N1    N     N_2   0.498620 0.498660 0.846910 -0.281668
N2    N     N_2   0.498590 0.498630 0.153040 -0.274002
O1    O     O_R   0.500020 0.321960 0.617040 -0.572951
O2    O     O_R   0.499980 0.321920 0.382900 -0.576137
O3    O     O_R   0.316870 0.499990 0.617050 -0.564897
O4    O     O_R   0.316830 0.499950 0.382910 -0.562787
O5    O     O_R   0.500020 0.678080 0.617100 -0.532816
O6    O     O_R   0.499980 0.678040 0.382960 -0.610190
O7    O     O_R   0.683170 0.500050 0.617090 -0.586743
O8    O     O_R   0.683130 0.500010 0.382950 -0.542253
F1    F     F_    0.908984 0.303557 0.361179 -0.612903
I1    I     I_    0.111798 0.233387 0.651368 -0.208399
I2    I     I_    0.885417 0.768783 0.352189 -0.258305
I3    I     I_    0.087729 0.507660 0.154297 -0.234696
F2    F     F_    0.434174 0.916581 0.619387 -0.645359

loop_
_geom_bond_atom_site_label_1
_geom_bond_atom_site_label_2
_ccdc_geom_bond_type
H5    N2    S    
C7    H9    S    
Cu1   O7    S    
C12   O5    A    
C1    C8    S    
C2    C16   S    
C9    C10   S    
Cu1   Cu2   S    
C4    C18   S    
C11   O4    A    
C17   C18   S    
C1    O2    A    
C7    C8    D    
C6    F2    S    
C4    C11   S    
C6    C12   S    
Cu2   O6    S    
Cu1   N1    S    
C14   C17   S    
C3    I3    S    
C13   O7    A    
C9    N1    D    
C2    I2    S    
C14   I1    S    
Cu1   O1    S    
C2    C3    S    
Cu1   O5    S    
C11   O3    A    
C4    C14   S    
C5    C6    D    
C9    H2    S    
C15   F1    S    
C13   O8    A    
C2    C18   S    
C17   H6    S    
C3    C4    S    
C5    H8    S    
H3    N1    S    
C3    C15   S    
Cu2   O2    S    
C13   C16   S    
C12   O6    A    
C5    C7    S    
Cu2   O8    S    
C14   C15   S    
C10   H4    S    
Cu2   O4    S    
C10   N2    D    
Cu2   N2    S    
C1    O1    A    
C18   H7    S    
C15   C16   S    
C16   C17   S    
Cu1   O3    S    
C8    H1    S    
