data_mof_unit_24089.cif
_audit_creation_date              2012-12-10T18:46:12-0500
_audit_creation_method            fapswitch 2.2
_symmetry_space_group_name_H-M    P1
_symmetry_Int_Tables_number       1
_space_group_crystal_system       triclinic
_cell_length_a                    10.004252
_cell_length_b                    10.701815
_cell_length_c                    13.090313
_cell_angle_alpha                 93.60394
_cell_angle_beta                  69.924541
_cell_angle_gamma                 89.519497
_cell_volume                      1313.06919992

loop_
_atom_site_label
_atom_site_type_symbol
_atom_type_description
_atom_site_fract_x
_atom_site_fract_y
_atom_site_fract_z
_atom_type_partial_charge
C1    C     C_R   0.498277 0.739831 0.502795 0.863705
C2    C     C_R   0.451144 0.481773 0.974398 0.051521
C3    C     C_R   0.443679 0.546465 0.884946 0.073270
C4    C     C_R   0.545458 0.523814 0.028158 0.087609
C5    C     C_R   0.628637 0.630043 0.993505 0.135559
C6    C     C_R   0.611041 0.698210 0.911859 -0.315524
C7    C     C_R   0.513526 0.662822 0.861404 0.155014
C8    C     C_R   0.554498 0.467571 0.119419 -0.262171
C9    C     C_R   0.718833 0.621573 0.142440 -0.185465
C10   C     C_R   0.369339 0.490305 0.820539 -0.094404
C11   C     C_R   0.596653 0.934860 0.545364 -0.244138
C12   C     C_R   0.420182 0.502154 0.703916 0.846613
C13   C     C_R   0.596827 0.064230 0.553389 0.181505
C14   C     C_R   0.490962 0.129603 0.525726 -0.045174
C15   C     C_R   0.376464 0.066148 0.510629 -0.254018
C16   C     C_R   0.377772 0.938213 0.504135 -0.202701
C17   C     C_R   0.491681 0.872993 0.515968 -0.041881
C18   C     C_R   0.962379 0.426302 0.422770 0.133821
C19   C     C_R   0.106219 0.422133 0.424497 0.120866
C20   C     C_R   0.034713 0.572135 0.576617 0.197084
C21   C     C_R   0.892904 0.571577 0.575492 -0.126701
C22   C     C_R   0.497225 0.261112 0.508378 0.854051
C23   C     C_R   0.579798 0.501267 0.296237 0.862598
C24   C     C_R   0.720848 0.673500 0.047204 -0.191200
C25   C     C_R   0.628584 0.523258 0.181343 -0.040489
C26   C     C_R   0.278071 0.391842 0.857730 -0.215547
C27   C     C_R   0.274233 0.336801 0.951239 -0.152051
C28   C     C_R   0.363364 0.377411 0.006703 -0.195987
H1    H     H_    0.777165 0.665318 0.190421 0.142977
H2    H     H_    0.288515 0.114653 0.498225 0.185477
H3    H     H_    0.292085 0.890870 0.486403 0.164092
H4    H     H_    0.810286 0.629208 0.636135 0.149439
H5    H     H_    0.668703 0.783812 0.891499 0.147029
H6    H     H_    0.785492 0.754067 0.020717 0.135657
H7    H     H_    0.495301 0.386952 0.151140 0.125708
H8    H     H_    0.220949 0.348748 0.808501 0.150716
H9    H     H_    0.360646 0.323861 0.073844 0.130497
H10   H     H_    0.209355 0.256297 0.976606 0.150040
H11   H     H_    0.678364 0.882013 0.562709 0.145858
N1    N     N_R   0.142790 0.500030 0.500030 -0.130095
N2    N     N_R   0.857180 0.499940 0.500010 -0.123346
O1    O     O_R   0.385370 0.683250 0.500010 -0.634019
O2    O     O_R   0.614700 0.683220 0.500010 -0.627543
O3    O     O_R   0.328400 0.499990 0.653620 -0.613904
O4    O     O_R   0.557730 0.499960 0.653620 -0.611888
O5    O     O_R   0.385300 0.316780 0.499990 -0.641580
O6    O     O_R   0.614630 0.316750 0.499990 -0.641510
O7    O     O_R   0.442270 0.500040 0.346380 -0.629123
O8    O     O_R   0.671600 0.500010 0.346380 -0.625209
Zn1   Zn    Zn3+2 0.346870 0.500020 0.500000 0.911474
Zn2   Zn    Zn3+2 0.653130 0.499980 0.500000 0.907783
C29   C     C_3   0.706924 0.125055 0.595349 -0.419263
C30   C     C_3   0.636506 0.193030 0.707690 -0.786435
H12   H     H_    0.718371 0.241268 0.733924 0.242558
H13   H     H_    0.555747 0.263552 0.706362 0.267889
H14   H     H_    0.583487 0.124702 0.768209 0.240904
H15   H     H_    0.782431 0.053308 0.604368 0.180263
H16   H     H_    0.775956 0.187760 0.536718 0.224115
C31   C     C_3   0.922295 0.347150 0.338124 -0.377356
C32   C     C_3   0.977062 0.395972 0.223397 -0.339675
C33   C     C_3   0.925037 0.316327 0.144342 -0.890428
H17   H     H_    0.973054 0.220144 0.131769 0.246941
H18   H     H_    0.807379 0.310331 0.176217 0.258998
H19   H     H_    0.956483 0.358996 0.064644 0.263138
H20   H     H_    0.939010 0.494508 0.227249 0.237982
H21   H     H_    0.094187 0.395047 0.189656 0.221288
H22   H     H_    0.944650 0.247004 0.340707 0.149666
H23   H     H_    0.808936 0.343741 0.360658 0.271711
C34   C     C_3   0.223383 0.342494 0.336078 -0.373475
C35   C     C_3   0.201801 0.202601 0.310781 -0.440939
C36   C     C_3   0.343518 0.128278 0.259047 -0.909617
H24   H     H_    0.402011 0.159845 0.176841 0.252674
H25   H     H_    0.412903 0.140184 0.308902 0.266670
H26   H     H_    0.322593 0.027108 0.250493 0.263090
H27   H     H_    0.136722 0.159664 0.386423 0.226122
H28   H     H_    0.151223 0.192160 0.247790 0.245200
H29   H     H_    0.258806 0.392450 0.260571 0.173401
H30   H     H_    0.313059 0.337032 0.361924 0.292589
C37   C     C_3   0.060095 0.652319 0.666540 -0.396230
C38   C     C_3   0.999127 0.592668 0.775370 -0.864512
H31   H     H_    0.051148 0.499540 0.770901 0.273983
H32   H     H_    0.017174 0.653609 0.840874 0.244169
H33   H     H_    0.882955 0.580494 0.796827 0.258734
H34   H     H_    0.173613 0.668439 0.649599 0.265528
H35   H     H_    0.008409 0.746369 0.673443 0.168795
C39   C     C_3   0.476636 0.759155 0.793591 -0.408273
C40   C     C_3   0.320865 0.803828 0.842093 -0.884878
H36   H     H_    0.300354 0.877686 0.792880 0.253946
H37   H     H_    0.296449 0.843561 0.927215 0.265184
H38   H     H_    0.249090 0.725735 0.841428 0.258217
H39   H     H_    0.542202 0.843441 0.788991 0.201561
H40   H     H_    0.501679 0.723589 0.708422 0.211470

loop_
_geom_bond_atom_site_label_1
_geom_bond_atom_site_label_2
_ccdc_geom_bond_type
C40   H36   S    
C34   H29   S    
C4    C8    A    
C9    C25   A    
C30   H12   S    
C16   H3    S    
C26   C27   A    
C3    C7    A    
C39   H39   S    
C37   H34   S    
C20   N1    A    
C23   O8    A    
C7    C39   S    
O4    Zn2   S    
C27   H10   S    
C15   C16   A    
C18   C19   A    
C33   H18   S    
C31   H22   S    
C1    O2    A    
C16   C17   A    
O8    Zn2   S    
C35   C36   S    
C9    H1    S    
C10   C26   A    
O7    Zn1   S    
C22   O6    A    
C32   H21   S    
C31   C32   S    
C13   C14   A    
C8    C25   A    
C34   H30   S    
C33   H17   S    
C38   H33   S    
C10   C12   S    
C30   H13   S    
C21   H4    S    
C38   H32   S    
C29   H15   S    
C18   N2    A    
C36   H25   S    
C39   C40   S    
C12   O4    A    
O6    Zn2   S    
C24   H6    S    
C32   C33   S    
C8    H7    S    
C33   H19   S    
C2    C4    A    
C31   H23   S    
C13   C29   S    
C18   C31   S    
C11   H11   S    
C29   H16   S    
O1    Zn1   S    
C21   N2    A    
C26   H8    S    
C22   O5    A    
C32   H20   S    
C40   H37   S    
C35   H28   S    
C19   C34   S    
C37   H35   S    
C29   C30   S    
C15   H2    S    
C30   H14   S    
O3    Zn1   S    
C11   C17   A    
C23   O7    A    
C20   C37   S    
C38   H31   S    
C36   H26   S    
C9    C24   A    
C6    C7    A    
O5    Zn1   S    
C1    C17   S    
C6    H5    S    
C14   C22   S    
C2    C3    A    
C36   H24   S    
C12   O3    A    
C3    C10   A    
C39   H40   S    
C11   C13   A    
O2    Zn2   S    
C5    C6    A    
C5    C24   A    
C28   H9    S    
N1    Zn1   S    
C23   C25   S    
C34   C35   S    
C19   N1    A    
C37   C38   S    
C1    O1    A    
C4    C5    A    
C20   C21   A    
C40   H38   S    
C35   H27   S    
C14   C15   A    
C2    C28   A    
N2    Zn2   S    
C27   C28   A    
