data_mof_unit_56409.cif
_audit_creation_date              2012-12-11T15:57:48-0500
_audit_creation_method            fapswitch 2.2
_symmetry_space_group_name_H-M    P1
_symmetry_Int_Tables_number       1
_space_group_crystal_system       triclinic
_cell_length_a                    10.626924
_cell_length_b                    10.812705
_cell_length_c                    16.930418
_cell_angle_alpha                 99.824285
_cell_angle_beta                  99.912929
_cell_angle_gamma                 61.081489
_cell_volume                      1668.7694447

loop_
_atom_site_label
_atom_site_type_symbol
_atom_type_description
_atom_site_fract_x
_atom_site_fract_y
_atom_site_fract_z
_atom_type_partial_charge
C1    C     C_R   0.384338 0.702731 0.388230 0.572372
C2    C     C_2   0.278058 0.274674 0.797869 -0.104625
C3    C     C_2   0.340391 0.164843 0.742873 -0.160332
C4    C     C_R   0.365041 0.343101 0.358514 0.543748
C5    C     C_2   0.370804 0.185124 0.666293 -0.135853
C6    C     C_1   0.817700 0.342503 0.708711 -0.031502
C7    C     C_1   0.843825 0.313592 0.776395 -0.030900
C8    C     C_1   0.360631 0.760959 0.713877 -0.044446
C9    C     C_1   0.327679 0.808849 0.780873 -0.046013
C10   C     C_R   0.891039 0.309716 0.085424 0.538072
C11   C     C_R   0.289465 0.260676 0.121658 0.549885
C12   C     C_2   0.816216 0.339188 0.155321 -0.103389
C13   C     C_R   0.257704 0.957129 0.095711 0.558357
C14   C     C_R   0.884763 0.297217 0.858830 0.546975
C15   C     C_R   0.274147 0.250369 0.878350 0.569314
C16   C     C_R   0.774369 0.377659 0.403712 0.548020
C17   C     C_R   0.281478 0.879753 0.857442 0.556109
C18   C     C_R   0.382881 0.711846 0.631445 0.563488
C19   C     C_R   0.364381 0.345053 0.579209 0.547801
C20   C     C_R   0.773684 0.381164 0.629529 0.544093
C21   C     C_1   0.322616 0.316446 0.276784 -0.045425
C22   C     C_1   0.302794 0.291403 0.205931 -0.047435
C23   C     C_2   0.823082 0.231950 0.188247 -0.162827
C24   C     C_2   0.836603 0.332918 0.327858 -0.116500
C25   C     C_3   0.180149 0.012186 0.235591 -0.400649
C26   C     C_2   0.799140 0.248490 0.272066 -0.161850
C27   C     C_2   0.372742 0.731957 0.306155 -0.115049
C28   C     C_2   0.293816 0.921756 0.178577 -0.000793
C29   C     C_2   0.427549 0.819577 0.202021 -0.118192
C30   C     C_2   0.464243 0.764163 0.280417 -0.168093
C31   C     C_2   0.300015 0.310648 0.635535 -0.110091
Cr1   Cr    Cr6+3 0.608020 0.610770 0.522990 1.026570
Cr2   Cr    Cr6+3 0.289390 0.599570 0.488050 1.025858
Cr3   Cr    Cr6+3 0.602610 0.289690 0.489020 1.024081
Cr4   Cr    Cr6+3 0.053780 0.052210 0.965970 1.027924
Cr5   Cr    Cr6+3 0.060060 0.372530 0.992430 1.032325
Cr6   Cr    Cr6+3 0.372600 0.061970 0.991430 1.023444
H1    H     H_    0.855868 0.127363 0.155435 0.159792
H2    H     H_    0.278986 0.736291 0.266317 0.128135
H3    H     H_    0.386979 0.056806 0.758540 0.147812
H4    H     H_    0.097902 0.974713 0.228081 0.141227
H5    H     H_    0.226727 0.011847 0.299495 0.159708
H6    H     H_    0.126551 0.124464 0.221997 0.107182
H7    H     H_    0.465175 0.098648 0.640173 0.166835
H8    H     H_    0.234257 0.384010 0.785586 0.115813
H9    H     H_    0.199816 0.394612 0.657089 0.108446
H10   H     H_    0.745891 0.192622 0.286947 0.172853
H11   H     H_    0.776172 0.445208 0.187184 0.110856
H12   H     H_    0.893335 0.385487 0.313102 0.103069
H13   H     H_    0.510935 0.769118 0.160995 0.148625
H14   H     H_    0.564006 0.751581 0.316362 0.156330
O1    O     O_R   0.749250 0.499990 0.439200 -0.520590
O2    O     O_R   0.411120 0.181190 0.091480 -0.496410
O3    O     O_R   0.364220 0.944920 0.062310 -0.515826
O4    O     O_R   0.477870 0.725740 0.440280 -0.483765
O5    O     O_R   0.158740 0.906940 0.874970 -0.490560
O6    O     O_R   0.930920 0.176940 0.885610 -0.487721
O7    O     O_R   0.910730 0.394510 0.895320 -0.513199
O8    O     O_R   0.185840 0.361180 0.920280 -0.481036
O9    O     O_R   0.399210 0.173040 0.915160 -0.488463
O10   O     O_R   0.353170 0.937370 0.898860 -0.513019
O11   O     O_3   0.162150 0.162240 0.983280 -0.321044
O12   O     O_R   0.299400 0.468710 0.556310 -0.512667
O13   O     O_R   0.260770 0.742210 0.412610 -0.502638
O14   O     O_R   0.297990 0.466320 0.394220 -0.514188
O15   O     O_R   0.487720 0.253870 0.385870 -0.509290
O16   O     O_R   0.721940 0.304340 0.422320 -0.495332
O17   O     O_R   0.750770 0.502570 0.614050 -0.511346
O18   O     O_R   0.479280 0.728140 0.602370 -0.484646
O19   O     O_R   0.262290 0.744790 0.587460 -0.492460
O20   O     O_R   0.489240 0.256450 0.560730 -0.505972
O21   O     O_R   0.723350 0.306730 0.584410 -0.490993
O22   O     O_3   0.500010 0.500010 0.500020 -0.293586
O23   O     O_R   0.170650 0.915100 0.051290 -0.491216
O24   O     O_R   0.941960 0.184500 0.049060 -0.511129
O25   O     O_R   0.922640 0.402670 0.071640 -0.517787
O26   O     O_R   0.196880 0.368740 0.083740 -0.476274

loop_
_geom_bond_atom_site_label_1
_geom_bond_atom_site_label_2
_ccdc_geom_bond_type
C18   O19   A    
C30   H14   S    
Cr4   O23   S    
C15   O9    A    
C19   O20   A    
C12   H11   S    
Cr5   O8    S    
C19   C31   S    
C25   H6    S    
Cr6   O11   S    
Cr2   O14   S    
C25   C28   S    
C12   C23   D    
Cr4   O24   S    
C28   C29   D    
C24   C26   D    
Cr5   O7    S    
Cr5   O26   S    
C4    O14   A    
C23   C26   S    
Cr1   O1    S    
C11   O26   A    
C17   O10   A    
C10   O25   A    
C7    C14   S    
C27   H2    S    
C8    C9    T    
C31   H9    S    
C13   C28   S    
Cr5   O25   S    
Cr1   O4    S    
C11   O2    A    
Cr1   O17   S    
Cr6   O2    S    
C18   O18   A    
C16   C24   S    
C21   C22   T    
C27   C30   D    
Cr3   O15   S    
Cr5   O11   S    
C29   H13   S    
C2    H8    S    
C14   O7    A    
C25   H4    S    
Cr1   O22   S    
C8    C18   S    
C25   H5    S    
C29   C30   S    
C10   O24   A    
Cr2   O12   S    
C16   O16   A    
C2    C15   S    
C17   O5    A    
C6    C7    T    
C10   C12   S    
Cr2   O19   S    
Cr6   O3    S    
C26   H10   S    
C9    C17   S    
C5    H7    S    
C3    H3    S    
C1    O13   A    
Cr3   O21   S    
C13   O3    A    
Cr2   O22   S    
C24   H12   S    
C14   O6    A    
Cr4   O5    S    
C15   O8    A    
C20   O17   A    
C16   O1    A    
C3    C5    S    
Cr3   O16   S    
Cr6   O10   S    
Cr1   O18   S    
C23   H1    S    
C6    C20   S    
C11   C22   S    
Cr4   O6    S    
C2    C3    D    
C1    O4    A    
C19   O12   A    
C4    O15   A    
C4    C21   S    
Cr2   O13   S    
Cr4   O11   S    
Cr6   O9    S    
Cr3   O22   S    
C13   O23   A    
C1    C27   S    
C20   O21   A    
Cr3   O20   S    
C5    C31   D    
