data_mof_unit_13312.cif
_audit_creation_date              2013-03-05T16:41:16-0500
_audit_creation_method            fapswitch 2.2
_symmetry_space_group_name_H-M    P1
_symmetry_Int_Tables_number       1
_space_group_crystal_system       triclinic
_cell_length_a                    10.774014
_cell_length_b                    10.719238
_cell_length_c                    9.916317
_cell_angle_alpha                 91.047596
_cell_angle_beta                  91.373368
_cell_angle_gamma                 91.443214
_cell_volume                      1144.33115537

loop_
_atom_site_label
_atom_site_type_symbol
_atom_site_description
_atom_site_fract_x
_atom_site_fract_y
_atom_site_fract_z
_atom_type_partial_charge
O1    O     O_R   0.500020 0.316790 0.614690 -0.640993
O2    O     O_R   0.500000 0.316760 0.385350 -0.588794
C1    C     C_R   0.495861 0.260458 0.499326 0.861092
O3    O     O_R   0.319080 0.500020 0.614640 -0.617598
O4    O     O_R   0.319070 0.499980 0.385300 -0.588492
C2    C     C_R   0.262956 0.494965 0.498113 0.974982
Zn1   Zn    Zn3+2 0.500010 0.500020 0.653130 0.978937
Zn2   Zn    Zn3+2 0.499990 0.499980 0.346870 1.037767
O5    O     O_R   0.500000 0.683240 0.614650 -0.628598
O6    O     O_R   0.499980 0.683210 0.385310 -0.611625
O7    O     O_R   0.680930 0.500020 0.614700 -0.620925
O8    O     O_R   0.680920 0.499980 0.385360 -0.605676
C3    C     C_R   0.498344 0.739796 0.501087 0.941706
C4    C     C_R   0.737305 0.501097 0.500742 0.934032
C5    C     C_2   0.930709 0.447726 0.402662 -0.138920
C6    C     C_2   0.869443 0.513033 0.497044 -0.263329
C7    C     C_2   0.060628 0.476487 0.384286 0.309776
C8    C     C_2   0.133917 0.463572 0.493869 -0.474820
H1    H     H_    0.096269 0.424019 0.585240 0.157239
C9    C     C_R   0.514004 0.067492 0.619144 -0.001404
C10   C     C_R   0.482407 0.128788 0.501478 -0.080233
C11   C     C_R   0.431068 0.060779 0.391266 -0.126138
H2    H     H_    0.392951 0.107220 0.304750 0.201293
C12   C     C_R   0.433572 0.931273 0.391717 -0.134349
H3    H     H_    0.399173 0.878911 0.303475 0.202515
C13   C     C_R   0.485748 0.871398 0.503810 -0.060426
C14   C     C_R   0.516490 0.940786 0.620591 -0.000088
C15   C     C_3   0.621794 0.943265 0.724029 0.176875
C16   C     C_3   0.616745 0.086493 0.722478 -0.320809
H4    H     H_    0.584333 0.130474 0.817229 0.193036
C17   C     C_R   0.404517 0.444374 0.066633 0.143961
N1    N     N_R   0.499170 0.499140 0.142800 -0.104630
C18   C     C_R   0.591694 0.558604 0.076727 -0.050718
H5    H     H_    0.666769 0.604111 0.134981 0.164447
C19   C     C_R   0.593653 0.556072 0.933827 -0.006404
N2    N     N_R   0.499170 0.499180 0.857150 -0.126590
C20   C     C_R   0.400556 0.451210 0.924479 0.162962
C21   C     C_3   0.348712 0.322073 0.905451 -0.522216
C22   C     C_3   0.366874 0.307702 0.056955 0.158135
H6    H     H_    0.250041 0.322487 0.869663 0.198710
H7    H     H_    0.408364 0.261948 0.843556 0.232585
C23   C     C_1   0.875163 0.344643 0.323642 0.309680
N3    N     N_1   0.831311 0.262119 0.260798 -0.087449
C24   C     C_1   0.726978 0.151700 0.668902 0.370012
N4    N     N_1   0.813347 0.202853 0.627127 -0.190867
C25   C     C_1   0.701007 0.609672 0.873487 0.262836
N5    N     N_1   0.789661 0.653343 0.829023 -0.113074
C26   C     C_1   0.252248 0.277356 0.128423 0.230241
N6    N     N_1   0.162420 0.252228 0.184682 -0.164205
N7    N     N_R   0.466051 0.219769 0.086128 0.195417
O9    O     O_R   0.577796 0.258513 0.121199 -0.368795
O10   O     O_R   0.447103 0.101901 0.056702 -0.416070
C27   C     C_1   0.928416 0.616503 0.572958 0.295083
N8    N     N_1   0.977992 0.698527 0.631608 -0.063617
N9    N     N_R   0.097388 0.541554 0.265095 0.233690
O11   O     O_R   0.154820 0.649660 0.276921 -0.366905
O12   O     O_R   0.046031 0.509785 0.149017 -0.385936
C28   C     C_1   0.583401 0.891070 0.853348 0.245886
N10   N     N_1   0.552621 0.851341 0.955345 -0.147023
N11   N     N_R   0.739992 0.894210 0.677901 0.207033
O13   O     O_R   0.751826 0.852572 0.554907 -0.409164
O14   O     O_R   0.839015 0.909381 0.754845 -0.353046

loop_
_geom_bond_atom_site_label_1
_geom_bond_atom_site_label_2
_geom_bond_distance
_ccdc_geom_bond_type
O1    C1    1.283062 A    
O4    Zn2   1.995080 S    
N7    O10   1.301467 A    
N9    O11   1.301889 A    
C12   H3    1.083558 S    
C5    C7    1.442244 S    
C16   H4    1.111236 S    
C9    C14   1.359462 A    
C15   C28   1.472614 S    
Zn1   N2    2.023548 S    
C7    N9    1.441859 S    
C17   N1    1.368129 A    
Zn2   O8    1.977359 S    
N1    C18   1.357891 A    
C15   N11   1.469801 S    
C7    C8    1.339173 D    
O8    C4    1.282228 A    
N7    O9    1.300909 A    
O1    Zn1   1.993883 S    
C27   N8    1.157303 T    
C24   N4    1.157254 T    
Zn1   O7    1.995081 S    
C15   C16   1.537976 S    
C13   C14   1.393447 A    
C20   C21   1.486671 S    
O3    Zn1   1.977359 S    
C11   C12   1.389228 A    
O3    C2    1.290882 A    
C26   N6    1.157021 T    
C21   H6    1.112800 S    
C12   C13   1.406337 A    
C18   H5    1.083197 S    
O2    C1    1.292142 A    
C9    C16   1.497800 S    
N9    O12   1.301056 A    
C16   C24   1.477611 S    
O4    C2    1.285626 A    
C2    C8    1.421602 S    
O7    C4    1.295793 A    
C4    C6    1.427586 S    
C3    C13   1.420417 S    
C1    C10   1.415786 S    
C23   N3    1.157050 T    
C5    C6    1.353018 D    
Zn2   N1    2.023285 S    
C22   N7    1.469620 S    
C21   C22   1.521515 S    
C9    C10   1.389003 A    
C21   H7    1.109256 S    
N11   O14   1.301741 A    
C8    H1    1.090071 S    
C25   N5    1.153733 T    
C14   C15   1.510531 S    
Zn1   O5    2.007542 S    
O5    C3    1.288617 A    
C6    C27   1.453130 S    
N2    C20   1.363103 A    
C18   C19   1.417479 A    
C28   N10   1.157176 T    
C10   C11   1.397649 A    
C19   C25   1.427654 S    
O6    C3    1.289326 A    
Zn2   O6    1.993883 S    
O2    Zn2   2.007544 S    
C11   H2    1.077741 S    
C17   C20   1.412565 A    
C5    C23   1.451092 S    
C17   C22   1.510971 S    
N11   O13   1.301314 A    
C22   C26   1.470847 S    
C19   N2    1.378755 A    
