data_mof_unit_23115.cif
_audit_creation_date              2012-12-10T17:27:52-0500
_audit_creation_method            fapswitch 2.2
_symmetry_space_group_name_H-M    P1
_symmetry_Int_Tables_number       1
_space_group_crystal_system       triclinic
_cell_length_a                    10.68248
_cell_length_b                    12.032815
_cell_length_c                    12.921688
_cell_angle_alpha                 92.142162
_cell_angle_beta                  90.688593
_cell_angle_gamma                 85.270253
_cell_volume                      1654.07830306

loop_
_atom_site_label
_atom_site_type_symbol
_atom_type_description
_atom_site_fract_x
_atom_site_fract_y
_atom_site_fract_z
_atom_type_partial_charge
C1    C     C_R   0.498036 0.520922 0.700365 0.950203
C2    C     C_R   0.951951 0.394351 0.504880 0.065202
C3    C     C_R   0.875803 0.495001 0.490973 -0.102896
C4    C     C_R   0.928567 0.597659 0.493973 -0.204024
C5    C     C_R   0.055007 0.601063 0.509834 -0.215384
C6    C     C_R   0.128208 0.503096 0.531292 -0.118695
C7    C     C_R   0.502653 0.466138 0.189326 -0.070654
C8    C     C_R   0.499696 0.532285 0.811531 -0.278276
C9    C     C_R   0.534563 0.643166 0.966652 0.626135
C10   C     C_R   0.525707 0.634059 0.859863 -0.363559
C11   C     C_R   0.480036 0.439578 0.869815 0.530497
C12   C     C_R   0.740754 0.498031 0.493159 0.872418
C13   C     C_R   0.488783 0.447892 0.976242 -0.009213
C14   C     C_R   0.516713 0.550234 0.025085 -0.046023
C15   C     C_R   0.525102 0.557863 0.131610 -0.191199
C16   C     C_R   0.476791 0.364398 0.141248 -0.219538
C17   C     C_R   0.470123 0.355160 0.034642 -0.109632
C18   C     C_R   0.388362 0.960693 0.399581 -0.285130
C19   C     C_R   0.398169 0.843798 0.407446 0.337247
C20   C     C_R   0.545619 0.856174 0.545501 -0.077791
C21   C     C_R   0.538230 0.973805 0.537975 0.045120
C22   C     C_R   0.459009 0.026498 0.464046 0.036678
C23   C     C_R   0.502364 0.478824 0.299910 0.888267
C24   C     C_R   0.452307 0.144080 0.456015 -0.097273
C25   C     C_R   0.601798 0.156052 0.592460 0.345874
C26   C     C_R   0.608843 0.039681 0.602425 -0.302213
C27   C     C_R   0.260947 0.501665 0.512665 0.884143
C28   C     C_R   0.913802 0.287099 0.478951 -0.215925
C29   C     C_R   0.983182 0.191915 0.512301 -0.208026
C30   C     C_R   0.087963 0.201530 0.576861 0.238237
C31   C     C_R   0.131268 0.308230 0.597654 0.132537
C32   C     C_R   0.072026 0.402296 0.546808 0.054770
H1    H     H_    0.872791 0.675580 0.482059 0.173237
H2    H     H_    0.449045 0.276082 0.998472 0.196055
H3    H     H_    0.541434 0.705887 0.815063 0.211069
H4    H     H_    0.390440 0.184762 0.399445 0.144082
H5    H     H_    0.327093 0.000325 0.341821 0.151870
H6    H     H_    0.670548 0.000717 0.660327 0.156677
H7    H     H_    0.606891 0.815600 0.602543 0.137139
H8    H     H_    0.832762 0.275081 0.430212 0.186465
H9    H     H_    0.950792 0.110874 0.492042 0.154678
H10   H     H_    0.095599 0.679946 0.502342 0.168913
H11   H     H_    0.548185 0.635413 0.169719 0.202910
H12   H     H_    0.459462 0.292859 0.185895 0.163225
N1    N     N_R   0.523130 0.207800 0.519340 -0.110571
N2    N     N_R   0.476870 0.792180 0.480660 -0.101755
O1    O     O_R   0.506170 0.421690 0.658830 -0.575485
O2    O     O_R   0.491330 0.609320 0.646410 -0.633168
O3    O     O_R   0.690660 0.406170 0.506210 -0.647348
O4    O     O_R   0.675810 0.593790 0.493790 -0.620637
O5    O     O_R   0.508670 0.390680 0.353590 -0.625890
O6    O     O_R   0.493830 0.578310 0.341170 -0.627387
O7    O     O_R   0.324190 0.406210 0.506210 -0.617399
O8    O     O_R   0.309340 0.593830 0.493790 -0.632406
Zn1   Zn    Zn3+2 0.509910 0.374720 0.508290 0.945575
Zn2   Zn    Zn3+2 0.490090 0.625280 0.491710 0.943231
F1    F     F_    0.452319 0.340981 0.823802 -0.694388
C33   C     C_3   0.683861 0.217332 0.666485 -0.781314
H13   H     H_    0.649963 0.210617 0.746699 0.258254
H14   H     H_    0.781754 0.178550 0.662331 0.200119
H15   H     H_    0.688740 0.305317 0.651627 0.284023
C34   C     C_3   0.322946 0.779677 0.330065 -0.803009
H16   H     H_    0.255164 0.836064 0.286814 0.198330
H17   H     H_    0.385424 0.737048 0.270958 0.253650
H18   H     H_    0.265407 0.721389 0.367458 0.253768
C35   C     C_3   0.151916 0.098007 0.622645 -0.906996
H19   H     H_    0.109715 0.021386 0.593436 0.235272
H20   H     H_    0.252774 0.089746 0.602000 0.253940
H21   H     H_    0.143156 0.102862 0.708203 0.249346
C36   C     C_3   0.227340 0.322269 0.683001 -0.704492
H22   H     H_    0.317780 0.275411 0.661856 0.287980
H23   H     H_    0.242898 0.411129 0.699976 0.219639
H24   H     H_    0.193400 0.289624 0.755874 0.230700
F2    F     F_    0.560827 0.742120 0.012501 -0.669778

loop_
_geom_bond_atom_site_label_1
_geom_bond_atom_site_label_2
_ccdc_geom_bond_type
C9    F2    S    
C12   O4    A    
C9    C14   A    
C27   O7    A    
C1    O2    A    
C36   H22   S    
C13   C14   A    
C1    C8    S    
O4    Zn2   S    
C9    C10   A    
C16   H12   S    
C35   H20   S    
C31   C32   A    
C34   H18   S    
C6    C27   S    
C13   C17   A    
C30   C31   A    
C5    H10   S    
C26   H6    S    
C33   H15   S    
C7    C15   A    
C2    C3    A    
C20   H7    S    
C27   O8    A    
C15   H11   S    
C24   H4    S    
C21   C22   A    
C11   C13   A    
C23   O6    A    
C29   C30   A    
C11   F1    S    
C36   H24   S    
C8    C11   A    
C7    C23   S    
C24   N1    A    
C2    C32   A    
C28   C29   A    
C30   C35   S    
C21   C26   A    
C12   O3    A    
C22   C24   A    
O7    Zn1   S    
C1    O1    A    
C5    C6    A    
C8    C10   A    
C10   H3    S    
O8    Zn2   S    
C19   N2    A    
C35   H21   S    
C36   H23   S    
C25   C33   S    
C28   H8    S    
C19   C34   S    
C33   H14   S    
C3    C4    A    
C25   N1    A    
C35   H19   S    
C20   C21   A    
N1    Zn1   S    
C34   H17   S    
C18   C19   A    
C17   H2    S    
N2    Zn2   S    
O2    Zn2   S    
O1    Zn1   S    
C14   C15   A    
C7    C16   A    
C2    C28   A    
C3    C12   S    
C4    H1    S    
O5    Zn1   S    
C29   H9    S    
C25   C26   A    
C18   C22   A    
C33   H13   S    
C23   O5    A    
C18   H5    S    
C31   C36   S    
C20   N2    A    
C34   H16   S    
O6    Zn2   S    
C16   C17   A    
C4    C5    A    
C6    C32   A    
O3    Zn1   S    
