data_mof_unit_56806.cif
_audit_creation_date              2012-12-11T16:56:19-0500
_audit_creation_method            fapswitch 2.2
_symmetry_space_group_name_H-M    P1
_symmetry_Int_Tables_number       1
_space_group_crystal_system       triclinic
_cell_length_a                    6.976343
_cell_length_b                    14.500533
_cell_length_c                    16.224172
_cell_angle_alpha                 90.490217
_cell_angle_beta                  89.901582
_cell_angle_gamma                 90.066681
_cell_volume                      1641.18488789

loop_
_atom_site_label
_atom_site_type_symbol
_atom_type_description
_atom_site_fract_x
_atom_site_fract_y
_atom_site_fract_z
_atom_type_partial_charge
O1    O     O_R   0.505830 0.583360 0.413880 -0.537530
O2    O     O_R   0.175830 0.595460 0.585520 -0.533898
O3    O     O_R   0.005520 0.416640 0.586120 -0.545123
C1    C     C_R   0.344643 0.616902 0.614801 0.730919
O4    O     O_R   0.176120 0.594390 0.414490 -0.540620
O5    O     O_R   0.005810 0.415570 0.413870 -0.542671
C2    C     C_R   0.345050 0.616386 0.386035 0.707340
O6    O     O_R   0.505540 0.584430 0.586130 -0.542309
O7    O     O_3   0.339200 0.441330 0.500000 -0.376588
V1    V     V_3+5 0.064350 0.510880 0.500000 1.426412
O8    O     O_R   0.676100 0.404540 0.414480 -0.540951
C3    C     C_R   0.845137 0.382259 0.386075 0.691636
O9    O     O_R   0.675810 0.405610 0.585510 -0.542356
C4    C     C_R   0.844856 0.383831 0.613665 0.732754
V2    V     V_3+5 0.564340 0.489120 0.500000 1.414192
O10   O     O_3   0.839360 0.558670 0.500000 -0.364865
C5    C     C_2   0.721593 0.209219 0.786519 -0.122140
C6    C     C_2   0.885945 0.181874 0.822698 -0.303529
H1    H     H_    0.586388 0.180687 0.807725 0.140524
H2    H     H_    0.022837 0.209738 0.803608 0.129853
C7    C     C_2   0.708948 0.277666 0.718527 -0.132554
C8    C     C_2   0.861294 0.315684 0.680590 -0.307008
H3    H     H_    0.565677 0.296681 0.698901 0.135143
H4    H     H_    0.005641 0.297354 0.698454 0.130394
C9    C     C_R   0.728513 0.247127 0.190523 0.072304
C10   C     C_R   0.882616 0.185675 0.183313 -0.108108
C11   C     C_R   0.033416 0.195575 0.240355 -0.158059
H5    H     H_    0.155473 0.149889 0.237169 0.120703
C12   C     C_R   0.021836 0.260023 0.305709 -0.175935
H6    H     H_    0.136432 0.262848 0.350453 0.129136
C13   C     C_R   0.858127 0.315741 0.316461 -0.097906
C14   C     C_R   0.716427 0.310360 0.255611 0.083746
C15   C     C_3   0.505452 0.296869 0.264181 -0.446389
C16   C     C_3   0.518767 0.227862 0.192989 -0.221307
H7    H     H_    0.424302 0.360920 0.250379 0.170646
H8    H     H_    0.467950 0.264123 0.323748 0.168915
H9    H     H_    0.485362 0.155524 0.210014 0.122163
C17   C     C_R   0.509782 0.745506 0.692906 0.090770
C18   C     C_R   0.353871 0.685007 0.683717 -0.156697
C19   C     C_R   0.207858 0.689217 0.743762 -0.259736
H10   H     H_    0.088371 0.641744 0.740142 0.129732
C20   C     C_R   0.221388 0.749532 0.812564 0.404468
C21   C     C_R   0.378161 0.810823 0.820523 -0.195695
C22   C     C_R   0.520426 0.807224 0.759794 0.002249
C23   C     C_3   0.726985 0.787569 0.773409 -0.372798
C24   C     C_3   0.716905 0.720935 0.701068 -0.242219
H11   H     H_    0.748618 0.752286 0.833116 0.211510
H12   H     H_    0.817894 0.849709 0.763818 0.180866
H13   H     H_    0.740755 0.647659 0.717881 0.119634
C25   C     C_R   0.516093 0.687235 0.265090 0.062210
C26   C     C_R   0.353736 0.681438 0.315681 -0.116358
C27   C     C_R   0.200500 0.740389 0.297602 -0.163893
H14   H     H_    0.078861 0.742148 0.338107 0.148089
C28   C     C_R   0.210486 0.803092 0.231897 -0.183277
H15   H     H_    0.093516 0.850793 0.223191 0.132476
C29   C     C_R   0.375596 0.809165 0.182057 -0.096493
C30   C     C_R   0.525047 0.747428 0.198024 0.092137
C31   C     C_3   0.729302 0.770692 0.214618 -0.452069
C32   C     C_3   0.716242 0.710080 0.290242 -0.223660
H16   H     H_    0.750870 0.845525 0.227569 0.168778
H17   H     H_    0.825262 0.741793 0.166247 0.171054
H18   H     H_    0.813075 0.649281 0.289257 0.127204
O11   O     O_R   0.229930 0.912420 0.917160 -0.513324
O12   O     O_R   0.559420 0.902500 0.088780 -0.542857
O13   O     O_R   0.729660 0.081330 0.089380 -0.544278
C33   C     C_R   0.390006 0.879959 0.116704 0.678110
O14   O     O_R   0.559650 0.901420 0.917750 -0.543106
O15   O     O_R   0.729880 0.080250 0.917130 -0.537659
C34   C     C_R   0.390569 0.878397 0.889795 0.733990
O16   O     O_R   0.229700 0.913500 0.089410 -0.547228
O17   O     O_3   0.396250 0.055540 0.003280 -0.368583
V3    V     V_3+5 0.671130 0.986010 0.003260 1.424517
O18   O     O_R   0.059600 0.091310 0.917720 -0.540245
C35   C     C_R   0.891049 0.113227 0.889641 0.753585
O19   O     O_R   0.059370 0.092380 0.088750 -0.538441
C36   C     C_R   0.890611 0.114629 0.117208 0.690801
V4    V     V_3+5 0.171120 0.007820 0.003230 1.451212
O20   O     O_3   0.896130 0.938240 0.003240 -0.365183
O21   O     O_3   0.083912 0.746076 0.873704 -0.557427
C37   C     C_3   0.136153 0.677759 0.930867 0.085719
H19   H     H_    0.285538 0.688070 0.953672 0.096213
H20   H     H_    0.123087 0.607866 0.902435 0.120684
C38   C     C_3   0.002105 0.683360 0.004742 -0.697414
H21   H     H_    0.040209 0.629398 0.050014 0.173138
H22   H     H_    0.015392 0.752073 0.034935 0.230212
H23   H     H_    0.851390 0.672869 0.984711 0.207090
C39   C     C_1   0.833333 0.751369 0.630840 0.398861
N1    N     N_1   0.927918 0.775399 0.576479 -0.322448
C40   C     C_1   0.720304 0.765001 0.367227 0.359834
N2    N     N_1   0.721244 0.809045 0.426958 -0.336443
C41   C     C_1   0.422116 0.258893 0.117675 0.374178
N3    N     N_1   0.345842 0.283202 0.058431 -0.368724

loop_
_geom_bond_atom_site_label_1
_geom_bond_atom_site_label_2
_ccdc_geom_bond_type
C39   N1    T    
C11   C12   A    
C16   H9    S    
O18   C35   A    
C1    O6    A    
V4    O20   S    
C27   H14   S    
C24   H13   S    
C10   C11   A    
O13   C36   A    
C25   C32   S    
O5    C3    A    
C17   C18   A    
C31   H16   S    
V2    O10   S    
C15   H8    S    
C29   C30   A    
O14   V3    S    
C32   C40   S    
C16   C41   S    
V3    O20   S    
C15   H7    S    
O8    V2    S    
C13   C14   A    
C10   C36   S    
O1    V2    S    
O7    V1    S    
C41   N3    T    
C9    C16   S    
C31   H17   S    
C19   C20   A    
C20   O21   S    
C6    C35   S    
O9    C4    A    
O16   V4    S    
C37   C38   S    
C27   C28   A    
C25   C26   A    
C23   H11   S    
C28   C29   A    
C26   C27   A    
O11   C34   A    
C37   H20   S    
C18   C19   A    
O4    C2    A    
C31   C32   S    
C23   C24   S    
C5    C7    S    
O14   C34   A    
O12   C33   A    
O2    C1    A    
O19   C36   A    
C17   C22   A    
C12   H6    S    
C38   H21   S    
C1    C18   S    
O15   V3    S    
C5    C6    D    
O19   V4    S    
O3    C4    A    
C19   H10   S    
C38   H22   S    
O6    V2    S    
O9    V2    S    
C3    C13   S    
C8    H4    S    
C20   C21   A    
O2    V1    S    
O17   V4    S    
C22   C23   S    
C24   C39   S    
O11   V4    S    
C23   H12   S    
C28   H15   S    
C32   H18   S    
O1    C2    A    
C25   C30   A    
C37   H19   S    
O5    V1    S    
O8    C3    A    
O13   V3    S    
C14   C15   S    
C4    C8    S    
C7    H3    S    
C9    C10   A    
C2    C26   S    
O4    V1    S    
C12   C13   A    
O3    V1    S    
V1    O10   S    
C30   C31   S    
C33   O16   A    
C21   C22   A    
C29   C33   S    
C5    H1    S    
C15   C16   S    
C6    H2    S    
O12   V3    S    
O7    V2    S    
C17   C24   S    
O21   C37   S    
O17   V3    S    
C38   H23   S    
C21   C34   S    
C11   H5    S    
O18   V4    S    
C40   N2    T    
C7    C8    D    
O15   C35   A    
C9    C14   A    
