data_mof_unit_29291.cif
_audit_creation_date              2012-12-10T17:36:19-0500
_audit_creation_method            fapswitch 2.2
_symmetry_space_group_name_H-M    P1
_symmetry_Int_Tables_number       1
_space_group_crystal_system       triclinic
_cell_length_a                    12.327789
_cell_length_b                    13.193948
_cell_length_c                    15.861877
_cell_angle_alpha                 77.931556
_cell_angle_beta                  101.018384
_cell_angle_gamma                 116.366273
_cell_volume                      2246.23139508

loop_
_atom_site_label
_atom_site_type_symbol
_atom_type_description
_atom_site_fract_x
_atom_site_fract_y
_atom_site_fract_z
_atom_type_partial_charge
C1    C     C_R   0.854899 0.286636 0.508797 0.791477
C2    C     C_3   0.058855 0.421953 0.070729 -0.372513
C3    C     C_3   0.000115 0.499464 0.082894 0.310210
C4    C     C_3   0.072988 0.622230 0.038346 -0.373829
C5    C     C_3   0.072210 0.622258 0.940537 -0.358861
C6    C     C_1   0.000787 0.499512 0.175207 -0.108224
C7    C     C_1   0.998311 0.499576 0.824789 -0.094988
C8    C     C_1   0.998497 0.499678 0.749180 -0.146053
C9    C     C_R   0.274405 0.027307 0.401890 -0.258548
C10   C     C_R   0.227469 0.835074 0.474811 -0.202436
C11   C     C_R   0.813427 0.091309 0.581299 -0.280058
C12   C     C_R   0.999445 0.499754 0.659576 0.824107
C13   C     C_R   0.731204 0.984682 0.614854 -0.180172
C14   C     C_R   0.606976 0.948561 0.589017 0.589616
C15   C     C_R   0.562960 0.014948 0.520787 -0.024635
C16   C     C_R   0.648177 0.123849 0.485934 0.013418
C17   C     C_R   0.437549 0.979660 0.487614 0.097298
C18   C     C_R   0.398529 0.057578 0.429251 0.068787
C19   C     C_R   0.484068 0.161786 0.394102 -0.193116
C20   C     C_R   0.607063 0.190907 0.417811 -0.156272
C21   C     C_R   0.350638 0.867269 0.505680 -0.264673
C22   C     C_R   0.188603 0.916990 0.425744 0.615230
C23   C     C_R   0.144934 0.713391 0.487749 0.847007
C24   C     C_R   0.772391 0.164363 0.521167 -0.101952
C25   C     C_R   0.343165 0.324959 0.636456 0.162818
C26   C     C_R   0.759695 0.645666 0.384067 0.122167
C27   C     C_R   0.663199 0.677189 0.358933 -0.248027
C28   C     C_R   0.559617 0.621878 0.402615 -0.191098
C29   C     C_R   0.551290 0.533824 0.472622 0.019926
C30   C     C_R   0.652884 0.504867 0.496133 0.283268
C31   C     C_R   0.446685 0.473830 0.520144 -0.064779
C32   C     C_R   0.445290 0.385436 0.589488 0.099504
C33   C     C_R   0.545983 0.359466 0.611074 -0.221132
C34   C     C_R   0.000424 0.500075 0.340425 0.817148
C35   C     C_R   0.647152 0.418260 0.566155 -0.187354
C36   C     C_R   0.342666 0.497728 0.502012 0.028100
C37   C     C_R   0.244660 0.353565 0.614864 0.052532
C38   C     C_3   0.058081 0.421971 0.972916 -0.368100
C39   C     C_3   0.866927 0.454256 0.939786 -0.366244
C40   C     C_3   0.867694 0.454229 0.037611 -0.370333
C41   C     C_1   0.000957 0.499703 0.250824 -0.166470
C42   C     C_3   0.998816 0.499508 0.917087 0.297059
Cu1   Cu    Cu3+1 0.098280 0.475420 0.519630 0.956843
Cu2   Cu    Cu3+1 0.901720 0.524580 0.480370 0.958239
H1    H     H_    0.007959 0.333042 0.102115 0.170141
H2    H     H_    0.153166 0.452813 0.957873 0.175107
H3    H     H_    0.154304 0.452807 0.102610 0.167543
H4    H     H_    0.032434 0.679706 0.046081 0.171703
H5    H     H_    0.455997 0.218863 0.345046 0.142121
H6    H     H_    0.244290 0.087824 0.359185 0.163190
H7    H     H_    0.378053 0.800888 0.537975 0.249439
H8    H     H_    0.908194 0.120159 0.608167 0.189902
H9    H     H_    0.763420 0.932580 0.665923 0.180863
H10   H     H_    0.006821 0.333063 0.957373 0.170943
H11   H     H_    0.669221 0.267177 0.381860 0.164577
H12   H     H_    0.165744 0.307963 0.650230 0.152462
H13   H     H_    0.548560 0.293451 0.663847 0.202436
H14   H     H_    0.335903 0.563186 0.450744 0.129588
H15   H     H_    0.839695 0.688987 0.349777 0.168993
H16   H     H_    0.487799 0.649816 0.380134 0.136673
H17   H     H_    0.668656 0.744683 0.305358 0.154937
H18   H     H_    0.719370 0.392716 0.589346 0.205652
H19   H     H_    0.822309 0.508713 0.900564 0.176117
H20   H     H_    0.812229 0.365940 0.923624 0.173611
H21   H     H_    0.813348 0.365893 0.068388 0.168771
H22   H     H_    0.823420 0.508665 0.045324 0.169827
H23   H     H_    0.167549 0.656741 0.924900 0.177984
H24   H     H_    0.031271 0.679735 0.901345 0.176263
H25   H     H_    0.168695 0.656683 0.069636 0.168360
N1    N     N_R   0.246300 0.438200 0.549400 -0.204091
N2    N     N_R   0.754300 0.561180 0.451130 -0.216854
O1    O     O_R   0.972520 0.318130 0.524690 -0.580097
O2    O     O_R   0.806530 0.359650 0.491530 -0.611433
O3    O     O_R   0.083030 0.479240 0.637150 -0.567388
O4    O     O_R   0.917040 0.520750 0.603990 -0.594682
O5    O     O_R   0.193470 0.640350 0.508470 -0.594380
O6    O     O_R   0.027480 0.681870 0.475310 -0.523328
O7    O     O_R   0.082960 0.479250 0.396010 -0.579503
O8    O     O_R   0.916970 0.520760 0.362850 -0.591222
F1    F     F_    0.069737 0.888673 0.394901 -0.670672
F2    F     F_    0.532798 0.854024 0.637376 -0.682862
Br1   Br    Br    0.331532 0.202805 0.730090 -0.545585

loop_
_geom_bond_atom_site_label_1
_geom_bond_atom_site_label_2
_ccdc_geom_bond_type
C5    C42   S    
Cu1   O1    S    
C12   O3    A    
C19   C20   A    
C23   O5    A    
C5    H23   S    
C3    C6    S    
C30   N2    A    
C7    C8    T    
C10   C22   A    
Cu1   O7    S    
C39   H20   S    
C26   C27   A    
C30   C35   A    
C28   C29   A    
C38   C42   S    
C36   H14   S    
C5    H24   S    
C9    C22   A    
C15   C16   A    
C11   C24   A    
Cu2   N2    S    
C18   C19   A    
C7    C42   S    
C2    C38   S    
C11   H8    S    
C27   H17   S    
C25   C37   A    
C37   H12   S    
C6    C41   T    
C26   H15   S    
C16   C20   A    
C25   C32   A    
C16   C24   A    
C40   H22   S    
C37   N1    A    
C26   N2    A    
C34   C41   S    
C20   H11   S    
C4    H25   S    
C36   N1    A    
C39   C42   S    
C13   H9    S    
C28   H16   S    
C10   C21   A    
C1    O1    A    
C39   C40   S    
C17   C21   A    
Cu2   O4    S    
Cu1   Cu2   S    
C29   C30   A    
C34   O8    A    
C19   H5    S    
C31   C32   A    
C38   H10   S    
C8    C12   S    
C17   C18   A    
C23   O6    A    
C3    C40   S    
Cu1   N1    S    
C40   H21   S    
C25   Br1   S    
C10   C23   S    
C3    C4    S    
C21   H7    S    
C4    H4    S    
Cu1   O5    S    
C15   C17   A    
Cu2   O6    S    
C33   H13   S    
C31   C36   A    
Cu2   O8    S    
C9    H6    S    
C4    C5    S    
C2    H3    S    
C39   H19   S    
C1    O2    A    
C32   C33   A    
C2    C3    S    
C22   F1    S    
C29   C31   A    
C34   O7    A    
C11   C13   A    
Cu1   O3    S    
C33   C35   A    
C35   H18   S    
Cu2   O2    S    
C38   H2    S    
C2    H1    S    
C9    C18   A    
C1    C24   S    
C12   O4    A    
C27   C28   A    
C14   C15   A    
C14   F2    S    
C13   C14   A    
