data_mof_unit_21944.cif
_audit_creation_date              2012-12-11T17:39:32-0500
_audit_creation_method            fapswitch 2.2
_symmetry_space_group_name_H-M    P1
_symmetry_Int_Tables_number       1
_space_group_crystal_system       triclinic
_cell_length_a                    15.184607
_cell_length_b                    15.036769
_cell_length_c                    14.964933
_cell_angle_alpha                 108.335438
_cell_angle_beta                  110.237721
_cell_angle_gamma                 109.966963
_cell_volume                      2625.58908655

loop_
_atom_site_label
_atom_site_type_symbol
_atom_type_description
_atom_site_fract_x
_atom_site_fract_y
_atom_site_fract_z
_atom_type_partial_charge
C1    C     C_R   0.911915 0.975389 0.723942 -0.124684
C2    C     C_R   0.908561 0.697185 0.496117 -0.156863
C3    C     C_R   0.752587 0.780840 0.187655 -0.131288
C4    C     C_R   0.090202 0.313634 0.563819 -0.136727
C5    C     C_R   0.267375 0.953397 0.545655 -0.150800
C6    C     C_R   0.726076 0.678623 0.177336 0.153176
C7    C     C_R   0.304386 0.982579 0.481565 0.065664
C8    C     C_R   0.998670 0.690687 0.546976 0.072523
C9    C     C_R   0.998171 0.067408 0.197470 0.061477
C10   C     C_R   0.471023 0.605741 0.266454 -0.111125
C11   C     C_R   0.470235 0.703054 0.292994 -0.143720
C12   C     C_R   0.997799 0.320383 0.551364 0.039687
C13   C     C_R   0.444309 0.743056 0.372855 0.125306
C14   C     C_R   0.414249 0.681002 0.421669 -0.165168
C15   C     C_R   0.412766 0.582364 0.392958 -0.123159
C16   C     C_R   0.301991 0.212353 0.800357 -0.141404
C17   C     C_R   0.442114 0.545278 0.316204 -0.080803
C18   C     C_R   0.373290 0.865974 0.423658 -0.244078
C19   C     C_R   0.387560 0.970105 0.467379 0.058755
C20   C     C_R   0.481453 0.062138 0.497761 0.028518
C21   C     C_R   0.557698 0.047518 0.477062 -0.161041
C22   C     C_R   0.546231 0.944698 0.436944 0.032060
C23   C     C_R   0.359976 0.308348 0.802288 0.140400
C24   C     C_R   0.454429 0.851998 0.410078 0.024656
C25   C     C_R   0.512334 0.246264 0.527734 -0.148949
C26   C     C_R   0.558934 0.356623 0.598876 -0.157715
C27   C     C_R   0.607623 0.396073 0.711637 -0.087141
C28   C     C_R   0.700541 0.000415 0.408103 -0.193283
C29   C     C_R   0.606942 0.324825 0.753198 -0.084829
C30   C     C_R   0.559237 0.214277 0.682260 -0.150061
C31   C     C_R   0.513069 0.174631 0.569175 0.114106
C32   C     C_R   0.711765 0.131198 0.211892 -0.263815
C33   C     C_R   0.804807 0.232171 0.291800 -0.166092
C34   C     C_R   0.641164 0.944496 0.442290 0.053016
C35   C     C_R   0.802063 0.303258 0.376619 0.042577
C36   C     C_R   0.702984 0.276022 0.374753 -0.381663
C37   C     C_R   0.608896 0.177048 0.291951 0.716928
C38   C     C_R   0.613064 0.102763 0.210931 0.017824
C39   C     C_R   0.910347 0.498365 0.470088 -0.253529
C40   C     C_R   0.297627 0.299477 0.705438 -0.144242
C41   C     C_R   0.993218 0.598739 0.559451 0.056807
C42   C     C_R   0.065831 0.608119 0.655575 0.016349
C43   C     C_R   0.065425 0.514883 0.653436 -0.255834
C44   C     C_R   0.986067 0.413659 0.559944 0.067415
C45   C     C_R   0.750767 0.687698 0.278814 -0.155699
C46   C     C_R   0.902074 0.405120 0.470320 0.083881
C47   C     C_R   0.242089 0.780801 0.792339 -0.187213
C48   C     C_R   0.295868 0.890538 0.869809 -0.122683
C49   C     C_R   0.245596 0.930274 0.920771 -0.098793
C50   C     C_R   0.139949 0.860994 0.892341 -0.095456
C51   C     C_R   0.083366 0.752812 0.810110 -0.139804
C52   C     C_R   0.699689 0.910298 0.500989 -0.118347
C53   C     C_R   0.133664 0.712662 0.758406 0.139006
C54   C     C_2   0.520806 0.492567 0.892738 0.210854
C55   C     C_2   0.474804 0.389882 0.877000 -0.262065
C56   C     C_R   0.265368 0.045041 0.451671 -0.108555
C57   C     C_2   0.633933 0.572407 0.980528 -0.201696
C58   C     C_2   0.668041 0.576036 0.077306 -0.216982
C59   C     C_R   0.405402 0.269599 0.124296 -0.118033
C60   C     C_R   0.302389 0.209986 0.107869 -0.181054
C61   C     C_R   0.217143 0.225606 0.054466 0.095559
C62   C     C_R   0.237411 0.303831 0.020489 -0.132837
C63   C     C_R   0.340757 0.363492 0.037437 -0.097946
C64   C     C_R   0.910724 0.217567 0.487123 -0.104878
C65   C     C_R   0.424458 0.346076 0.088975 -0.153261
C66   C     C_R   0.099324 0.159339 0.124812 -0.235072
C67   C     C_R   0.090325 0.784583 0.581400 -0.113938
C68   C     C_R   0.998144 0.099798 0.113349 0.053491
C69   C     C_R   0.903234 0.065736 0.016481 0.031996
C70   C     C_R   0.912348 0.070769 0.928807 -0.230905
C71   C     C_R   0.011097 0.101621 0.931977 0.049188
C72   C     C_R   0.107505 0.161086 0.035328 0.031274
C73   C     C_R   0.731967 0.905409 0.957639 -0.186612
C74   C     C_R   0.620043 0.853732 0.914877 -0.123349
C75   C     C_R   0.564264 0.908946 0.897182 -0.092627
C76   C     C_R   0.093953 0.061064 0.812740 -0.128990
C77   C     C_R   0.621349 0.018830 0.929238 -0.129891
C78   C     C_R   0.909798 0.008538 0.203416 -0.162266
C79   C     C_R   0.734515 0.072960 0.978268 -0.161557
C80   C     C_R   0.790741 0.016597 0.993532 0.108711
C81   C     C_R   0.006576 0.051650 0.827014 0.051932
C82   C     C_3   0.512592 0.995214 0.121370 -0.380153
C83   C     C_3   0.514408 0.899574 0.136674 -0.251225
C84   C     C_3   0.420868 0.790758 0.037100 -0.923515
C85   C     C_3   0.458708 0.540886 0.841360 -0.420613
C86   C     C_3   0.479361 0.553168 0.751002 -0.266207
C87   C     C_3   0.404913 0.585291 0.687294 -0.950704
C88   C     C_R   0.089952 0.094967 0.290528 -0.122262
F1    F     F_    0.514429 0.152748 0.292165 -0.763468
H1    H     H_    0.828473 0.945578 0.703773 0.095669
H2    H     H_    0.495186 0.578071 0.208044 0.115371
H3    H     H_    0.492391 0.748358 0.253109 0.117045
H4    H     H_    0.173072 0.379715 0.609796 0.102446
H5    H     H_    0.394715 0.710186 0.483992 0.112474
H6    H     H_    0.390538 0.535496 0.431519 0.111930
H7    H     H_    0.299882 0.796621 0.401838 0.134634
H8    H     H_    0.632122 0.118798 0.503242 0.135284
H9    H     H_    0.477042 0.216988 0.440899 0.187812
H10   H     H_    0.558960 0.411854 0.566766 0.116408
H11   H     H_    0.646069 0.481898 0.766883 0.102082
H12   H     H_    0.283176 0.084598 0.405992 0.103248
H13   H     H_    0.645159 0.355576 0.840531 0.109196
H14   H     H_    0.562117 0.160296 0.715603 0.106213
H15   H     H_    0.335119 0.184073 0.854452 0.105091
H16   H     H_    0.716652 0.074352 0.151283 0.170812
H17   H     H_    0.880279 0.252150 0.291458 0.141277
H18   H     H_    0.699253 0.330818 0.438835 0.165800
H19   H     H_    0.851505 0.492151 0.398152 0.134910
H20   H     H_    0.125338 0.520673 0.724110 0.136782
H21   H     H_    0.280494 0.751716 0.750768 0.104458
H22   H     H_    0.374811 0.945961 0.887311 0.094965
H23   H     H_    0.174185 0.808687 0.628831 0.101889
H24   H     H_    0.287990 0.015110 0.980825 0.110621
H25   H     H_    0.100465 0.892179 0.930829 0.115278
H26   H     H_    0.675588 0.032530 0.355422 0.115058
H27   H     H_    0.998993 0.701529 0.783468 0.109021
H28   H     H_    0.523839 0.363788 0.921766 0.117806
H29   H     H_    0.673033 0.645159 0.976366 0.128120
H30   H     H_    0.632034 0.504735 0.084201 0.121233
H31   H     H_    0.504337 0.392227 0.102392 0.100722
H32   H     H_    0.470465 0.256536 0.164384 0.149049
H33   H     H_    0.288582 0.150363 0.135054 0.139716
H34   H     H_    0.828301 0.992043 0.160333 0.110806
H35   H     H_    0.173094 0.317744 0.980176 0.115708
H36   H     H_    0.355974 0.423165 0.010489 0.117025
H37   H     H_    0.323655 0.343759 0.666858 0.122068
H38   H     H_    0.173778 0.200868 0.202095 0.123850
H39   H     H_    0.838770 0.039414 0.853749 0.132023
H40   H     H_    0.773030 0.859255 0.963470 0.113171
H41   H     H_    0.576522 0.770504 0.893843 0.129955
H42   H     H_    0.476896 0.866281 0.858756 0.092641
H43   H     H_    0.578026 0.061800 0.915742 0.103262
H44   H     H_    0.777981 0.157468 0.000145 0.118469
H45   H     H_    0.173676 0.152318 0.321945 0.085928
H46   H     H_    0.672409 0.856760 0.531771 0.103598
H47   H     H_    0.828686 0.194330 0.467944 0.119436
H48   H     H_    0.179194 0.106868 0.872095 0.123511
H49   H     H_    0.737967 0.622935 0.298580 0.097090
H50   H     H_    0.341547 0.785039 0.021278 0.280065
H51   H     H_    0.428157 0.780851 0.963826 0.257898
H52   H     H_    0.423167 0.723666 0.052224 0.241360
H53   H     H_    0.592530 0.902623 0.150866 0.197442
H54   H     H_    0.505371 0.904187 0.208196 0.209114
H55   H     H_    0.438074 0.995420 0.116690 0.230745
H56   H     H_    0.825859 0.643718 0.472307 0.097964
H57   H     H_    0.507956 0.984302 0.043246 0.186865
H58   H     H_    0.321314 0.514569 0.631141 0.254585
H59   H     H_    0.401812 0.651791 0.742957 0.258911
H60   H     H_    0.435185 0.612751 0.637673 0.251996
H61   H     H_    0.565593 0.615389 0.787853 0.183604
H62   H     H_    0.466331 0.476516 0.692352 0.201468
H63   H     H_    0.370856 0.496656 0.812544 0.190973
H64   H     H_    0.486829 0.622379 0.906271 0.172432
H65   H     H_    0.742361 0.803352 0.124568 0.096453
H66   H     H_    0.289468 0.911179 0.587918 0.096890
H67   H     H_    0.442867 0.469968 0.295813 0.127776
N1    N     N_R   0.941940 0.944580 0.650780 -0.041723
N2    N     N_R   0.204460 0.150250 0.707090 -0.043557
N3    N     N_R   0.794270 0.003240 0.446420 -0.036455
N4    N     N_R   0.204920 0.207570 0.650770 -0.044606
N5    N     N_R   0.793810 0.945920 0.502740 -0.039302
N6    N     N_R   0.943620 0.152590 0.446420 -0.042713
N7    N     N_R   0.055110 0.000900 0.707100 -0.040263
N8    N     N_R   0.795080 0.792430 0.349230 -0.038994
N9    N     N_R   0.206190 0.054080 0.497260 -0.042679
N10   N     N_R   0.056380 0.847410 0.553580 -0.040928
N11   N     N_R   0.944890 0.999100 0.292900 -0.038455
N12   N     N_R   0.058060 0.055420 0.349220 -0.039924
N13   N     N_R   0.943200 0.791100 0.497260 -0.037214
N14   N     N_R   0.795540 0.849750 0.292910 -0.045244
N15   N     N_R   0.205730 0.996760 0.553580 -0.039268
N16   N     N_R   0.056800 0.208900 0.502740 -0.042237
Ni1   Ni    Ni4+2 0.869690 0.869690 0.500000 0.215958
Ni2   Ni    Ni4+2 0.130310 0.130310 0.500000 0.209760
Ni3   Ni    Ni4+2 0.129250 0.998840 0.629170 0.217267
Ni4   Ni    Ni4+2 0.870750 0.001160 0.370830 0.206607

loop_
_geom_bond_atom_site_label_1
_geom_bond_atom_site_label_2
_ccdc_geom_bond_type
C25   C31   A    
C66   C68   A    
C63   C65   A    
N9    N15   A    
C1    H1    S    
C6    C45   A    
C27   C29   A    
C18   H7    S    
C41   C42   A    
C6    C58   S    
N8    N14   A    
C35   C36   A    
C3    C6    A    
N7    Ni3   S    
C54   C57   S    
C62   H35   S    
C39   C41   A    
N14   Ni4   S    
C76   H48   S    
C2    H56   S    
N12   Ni2   S    
C78   N11   A    
C37   C38   A    
C87   H58   S    
C18   C24   A    
C36   C37   A    
C45   N8    A    
C56   H12   S    
C86   H61   S    
C42   C53   S    
C15   H6    S    
C30   C31   A    
C12   C64   A    
N6    Ni4   S    
C10   C17   A    
C1    C81   A    
C23   C40   A    
C21   H8    S    
C66   H38   S    
C18   C19   A    
C73   C74   A    
C58   H30   S    
C11   H3    S    
C16   H15   S    
C66   C72   A    
C83   C84   S    
C84   H50   S    
C75   H42   S    
C68   C69   A    
C88   N12   A    
C56   N9    A    
N3    N5    A    
C70   C71   A    
C32   C38   A    
C4    C12   A    
C29   C30   A    
N1    N7    A    
C26   H10   S    
C47   C53   A    
C28   C34   A    
C59   C60   A    
C13   C14   A    
C38   C82   S    
C36   H18   S    
N2    N4    A    
C61   C62   A    
C7    C56   A    
C22   C34   S    
C82   H57   S    
N16   Ni2   S    
C50   C51   A    
C77   C79   A    
C5    N15   A    
C39   H19   S    
C79   H44   S    
C73   H40   S    
C27   H11   S    
C74   C75   A    
C16   N2    A    
C8    C41   S    
C64   N6    A    
C87   H59   S    
N11   N12   A    
C5    C7    A    
C86   C87   S    
C44   C46   A    
N9    Ni2   S    
C5    H66   S    
N15   Ni3   S    
N2    Ni3   S    
C3    H65   S    
C4    H4    S    
C13   C24   S    
C60   C61   A    
C50   H25   S    
C77   H43   S    
C30   H14   S    
C43   C44   A    
N10   Ni3   S    
C62   C63   A    
C28   H26   S    
C54   C85   S    
N5    Ni1   S    
C25   H9    S    
C47   C48   A    
C40   H37   S    
C49   H24   S    
C26   C27   A    
N8    Ni1   S    
C85   H64   S    
C60   H33   S    
C78   H34   S    
C75   C77   A    
C85   C86   S    
C63   H36   S    
C8    C67   A    
C39   C46   A    
C61   C72   S    
C82   H55   S    
C48   C49   A    
C10   H2    S    
C82   C83   S    
C16   C23   A    
C7    C19   S    
N3    Ni4   S    
C74   H41   S    
C17   H67   S    
C22   C24   A    
C79   C80   A    
C42   C43   A    
C67   N10   A    
C55   H28   S    
C70   H39   S    
C15   C17   A    
C73   C80   A    
C54   C55   D    
C4    N16   A    
N4    Ni2   S    
C40   N4    A    
C2    C8    A    
C33   H17   S    
C69   C80   S    
C76   C81   A    
C83   H53   S    
C3    N14   A    
C23   C55   S    
C47   H21   S    
C52   N5    A    
C34   C52   A    
C51   H27   S    
C37   F1    S    
C32   H16   S    
C32   C33   A    
C19   C20   A    
C1    N1    A    
C25   C26   A    
C9    C68   S    
C88   H45   S    
C71   C72   A    
C9    C88   A    
C86   H62   S    
C59   C65   A    
C83   H54   S    
C11   C13   A    
C57   C58   D    
C84   H52   S    
C45   H49   S    
C33   C35   A    
C65   H31   S    
C29   H13   S    
C9    C78   A    
C28   N3    A    
C69   C70   A    
C85   H63   S    
C10   C11   A    
C2    N13   A    
C59   H32   S    
C67   H23   S    
C48   H22   S    
N6    N16   A    
C20   C21   A    
C84   H51   S    
N10   N13   A    
C12   C44   S    
C49   C50   A    
C87   H60   S    
C52   H46   S    
N13   Ni1   S    
C14   C15   A    
C57   H29   S    
C76   N7    A    
C64   H47   S    
C43   H20   S    
C51   C53   A    
C21   C22   A    
C35   C46   S    
C14   H5    S    
N1    Ni1   S    
N11   Ni4   S    
C71   C81   S    
C20   C31   S    
