data_mof_unit_58276.cif
_audit_creation_date              2012-12-11T14:58:01-0500
_audit_creation_method            fapswitch 2.2
_symmetry_space_group_name_H-M    P1
_symmetry_Int_Tables_number       1
_space_group_crystal_system       triclinic
_cell_length_a                    7.060482
_cell_length_b                    17.045733
_cell_length_c                    16.863343
_cell_angle_alpha                 100.364632
_cell_angle_beta                  89.620096
_cell_angle_gamma                 90.53871
_cell_volume                      1996.29203695

loop_
_atom_site_label
_atom_site_type_symbol
_atom_type_description
_atom_site_fract_x
_atom_site_fract_y
_atom_site_fract_z
_atom_type_partial_charge
O1    O     O_R   0.506180 0.438940 0.579430 -0.525236
O2    O     O_R   0.170520 0.406230 0.413590 -0.551601
O3    O     O_R   0.005180 0.561060 0.420570 -0.547921
C1    C     C_R   0.340168 0.386310 0.382818 0.767245
O4    O     O_R   0.176140 0.429310 0.578370 -0.537532
O5    O     O_R   0.010830 0.584300 0.586530 -0.533231
C2    C     C_R   0.344411 0.410918 0.602171 0.783985
O6    O     O_R   0.500520 0.415700 0.413470 -0.520413
O7    O     O_3   0.340830 0.550820 0.502480 -0.378954
V1    V     V_3+5 0.064040 0.490570 0.499540 1.447402
O8    O     O_R   0.681400 0.593770 0.586410 -0.536463
C3    C     C_R   0.851844 0.615769 0.615505 0.681427
O9    O     O_R   0.675790 0.570690 0.421630 -0.538211
C4    C     C_R   0.845601 0.589812 0.398491 0.708639
V2    V     V_3+5 0.564650 0.509430 0.500460 1.486220
O10   O     O_3   0.837730 0.449180 0.497520 -0.373543
C5    C     C_R   0.905606 0.869646 0.173514 -0.189380
C6    C     C_R   0.856283 0.644397 0.338414 -0.171998
C7    C     C_R   0.888256 0.657543 0.197884 -0.132141
C8    C     C_R   0.884951 0.610443 0.257508 -0.285123
C9    C     C_R   0.827430 0.728503 0.359273 0.395228
C10   C     C_R   0.852124 0.778241 0.299153 -0.032087
C11   C     C_R   0.880930 0.740807 0.217785 0.048678
C12   C     C_R   0.909780 0.786300 0.156755 -0.255265
C13   C     C_R   0.872883 0.909545 0.253409 0.289218
C14   C     C_R   0.850076 0.863784 0.316749 0.279216
H1    H     H_    0.934076 0.756574 0.095135 0.168103
H2    H     H_    0.905140 0.628781 0.135750 0.167675
H3    H     H_    0.897578 0.546370 0.239815 0.135356
C15   C     C_R   0.989390 0.903169 0.720419 -0.165021
C16   C     C_R   0.033211 0.913711 0.642363 -0.147366
C17   C     C_R   0.035065 0.848531 0.579762 -0.040943
C18   C     C_R   0.985772 0.772875 0.594059 -0.134448
C19   C     C_R   0.932898 0.760758 0.671621 0.035464
C20   C     C_R   0.942066 0.826860 0.736811 0.078274
C21   C     C_R   0.872524 0.684364 0.684905 -0.137011
C22   C     C_R   0.844657 0.673215 0.765561 0.002464
C23   C     C_R   0.844604 0.739744 0.830003 0.010907
C24   C     C_R   0.900077 0.816127 0.816312 -0.120114
C25   C     C_R   0.826409 0.596316 0.784448 -0.159512
C26   C     C_R   0.791495 0.585050 0.863498 0.522770
C27   C     C_R   0.746984 0.652164 0.922657 0.311978
C28   C     C_R   0.785694 0.728181 0.907169 -0.263972
H4    H     H_    0.991956 0.955375 0.767608 0.099166
H5    H     H_    0.069653 0.972359 0.630575 0.127821
H6    H     H_    0.077413 0.856347 0.519925 0.187666
H7    H     H_    0.994147 0.723549 0.544105 0.136631
H8    H     H_    0.843464 0.543828 0.738182 0.154910
H9    H     H_    0.763960 0.778128 0.955785 0.163285
H10   H     H_    0.609022 0.471124 0.133318 0.134504
C29   C     C_R   0.321784 0.226184 0.407990 -0.153729
C30   C     C_R   0.323044 0.150332 0.425905 -0.192886
C31   C     C_R   0.346738 0.085087 0.365404 -0.247679
C32   C     C_R   0.381506 0.093835 0.285059 0.382132
C33   C     C_R   0.378624 0.171728 0.265186 -0.009790
C34   C     C_R   0.348012 0.238992 0.328278 0.015834
C35   C     C_R   0.417671 0.184231 0.185439 -0.144794
C36   C     C_R   0.452708 0.262877 0.172527 -0.016965
C37   C     C_R   0.425333 0.330413 0.235692 -0.003311
C38   C     C_R   0.359462 0.318141 0.313096 -0.157812
C39   C     C_R   0.524519 0.274792 0.097368 -0.156746
C40   C     C_R   0.583269 0.349216 0.085565 -0.116444
C41   C     C_R   0.557431 0.414865 0.145217 -0.211084
C42   C     C_R   0.470251 0.407860 0.218868 0.401215
H11   H     H_    0.302846 0.274701 0.458137 0.093763
H12   H     H_    0.306762 0.141776 0.487616 0.138032
H13   H     H_    0.350614 0.028062 0.383920 0.146035
H14   H     H_    0.545462 0.226077 0.047847 0.154038
H15   H     H_    0.652932 0.356006 0.030148 0.213333
C43   C     C_R   0.406212 0.135818 0.830034 -0.138530
C44   C     C_R   0.353736 0.361540 0.666678 -0.187491
C45   C     C_R   0.442232 0.350357 0.803958 0.362243
C46   C     C_R   0.407994 0.397326 0.744726 0.337135
C47   C     C_R   0.309165 0.279468 0.651664 -0.291288
C48   C     C_R   0.338598 0.232080 0.711368 0.061800
C49   C     C_R   0.421532 0.266255 0.785912 -0.111035
C50   C     C_R   0.473480 0.215346 0.841107 0.412244
C51   C     C_R   0.310773 0.104991 0.758217 -0.257416
C52   C     C_R   0.285029 0.151195 0.698158 -0.133644
H16   H     H_    0.260435 0.043929 0.747769 0.131691
H17   H     H_    0.217325 0.124237 0.642261 0.119340
H18   H     H_    0.252628 0.252557 0.593613 0.129785
O11   O     O_R   0.265840 0.084300 0.086750 -0.546353
O12   O     O_R   0.589750 0.070740 0.921690 -0.542576
O13   O     O_R   0.755020 0.915730 0.913400 -0.537970
C53   C     C_R   0.420976 0.086016 0.894711 0.714133
O14   O     O_R   0.595830 0.093740 0.086480 -0.528330
O15   O     O_R   0.761150 0.938890 0.079360 -0.512113
C54   C     C_R   0.427129 0.115814 0.115452 0.776140
O16   O     O_R   0.259710 0.061140 0.920790 -0.549547
O17   O     O_3   0.425260 0.949200 0.997610 -0.370650
V3    V     V_3+5 0.702060 0.009430 0.000450 1.455442
O18   O     O_R   0.090530 0.929220 0.078150 -0.561823
C55   C     C_R   0.920738 0.915373 0.106024 0.777388
O19   O     O_R   0.084440 0.906220 0.913360 -0.535670
C56   C     C_R   0.914882 0.884279 0.885057 0.678903
V4    V     V_3+5 0.201450 0.990520 0.999290 1.416580
O20   O     O_3   0.928380 0.050800 0.002390 -0.391244
O21   O     O_3   0.786974 0.506852 0.876218 -0.519784
C57   C     C_3   0.882169 0.494418 0.946754 0.122190
H19   H     H_    0.895949 0.429017 0.941376 0.159868
H20   H     H_    0.794793 0.512470 0.001499 0.185005
C58   C     C_3   0.083112 0.530148 0.957240 -0.350352
H21   H     H_    0.167008 0.509021 0.901972 0.288137
H22   H     H_    0.079100 0.596284 0.967771 0.196877
C59   C     C_3   0.178835 0.505242 0.029455 -0.718790
H23   H     H_    0.091417 0.523832 0.084093 0.177533
H24   H     H_    0.321037 0.533455 0.038741 0.303588
H25   H     H_    0.194824 0.439660 0.020284 0.260219
O22   O     O_3   0.461479 0.031410 0.231087 -0.556758
C60   C     C_3   0.354388 0.960123 0.223316 0.126310
H26   H     H_    0.364514 0.930816 0.159383 0.165197
H27   H     H_    0.203254 0.970980 0.236130 0.085429
C61   C     C_3   0.439847 0.902440 0.272590 -0.311335
H28   H     H_    0.524111 0.857405 0.231821 0.191382
H29   H     H_    0.530133 0.935792 0.319783 0.275045
C62   C     C_3   0.296139 0.858328 0.314800 -0.878179
H30   H     H_    0.215549 0.899978 0.360391 0.253898
H31   H     H_    0.369368 0.815450 0.345865 0.246827
H32   H     H_    0.202275 0.825121 0.268807 0.245054
O23   O     O_3   0.818339 0.989340 0.262687 -0.551294
C63   C     C_3   0.923562 0.042944 0.320079 0.136494
H33   H     H_    0.005018 0.082747 0.286993 0.107921
H34   H     H_    0.023807 0.013160 0.354821 0.146946
C64   C     C_3   0.787396 0.095399 0.377065 -0.214532
H35   H     H_    0.716624 0.136742 0.343251 0.196492
H36   H     H_    0.681937 0.056584 0.399537 0.248763
C65   C     C_3   0.879371 0.145181 0.450801 -0.821709
H37   H     H_    0.970511 0.107686 0.481962 0.247175
H38   H     H_    0.767191 0.171492 0.493699 0.231262
H39   H     H_    0.959985 0.195231 0.433005 0.238620
O24   O     O_3   0.449213 0.475670 0.277210 -0.576489
C66   C     C_3   0.328197 0.531357 0.250732 0.035421
H40   H     H_    0.223300 0.550087 0.299206 0.163277
H41   H     H_    0.246742 0.506753 0.195537 0.107808
C67   C     C_3   0.443099 0.604650 0.239234 -0.303845
H42   H     H_    0.507234 0.630545 0.297640 0.204525
H43   H     H_    0.552866 0.587832 0.193104 0.231765
C68   C     C_3   0.327959 0.668832 0.212152 -0.789515
H44   H     H_    0.254823 0.645396 0.154798 0.258548
H45   H     H_    0.423689 0.717974 0.201711 0.259497
H46   H     H_    0.227026 0.691986 0.260836 0.238339
O25   O     O_3   0.599017 0.240727 0.903054 -0.567380
C69   C     C_3   0.785760 0.239326 0.871104 0.091554
H47   H     H_    0.823870 0.299781 0.859904 0.171483
H48   H     H_    0.802033 0.197826 0.811985 0.074670
C70   C     C_3   0.924439 0.211761 0.930154 -0.282834
H49   H     H_    0.845829 0.189055 0.978627 0.229491
H50   H     H_    0.009736 0.161933 0.897065 0.180908
C71   C     C_3   0.059480 0.277473 0.969275 -0.787162
H51   H     H_    0.133032 0.304812 0.922547 0.254536
H52   H     H_    0.167302 0.251806 0.004618 0.237799
H53   H     H_    0.980776 0.323780 0.010874 0.215772
Cl1   Cl    Cl    0.478258 0.399136 0.903463 -0.659106
Cl2   Cl    Cl    0.415197 0.502494 0.769464 -0.635077
Cl3   Cl    Cl    0.813202 0.914974 0.416505 -0.763624
O26   O     O_3   0.798558 0.763291 0.439060 -0.564407
C72   C     C_3   0.616159 0.745935 0.467173 0.123125
H54   H     H_    0.629833 0.695638 0.499337 0.151438
H55   H     H_    0.510243 0.729185 0.418283 0.068878
C73   C     C_3   0.541595 0.817322 0.528129 -0.265087
H56   H     H_    0.656415 0.860963 0.548282 0.271432
H57   H     H_    0.431767 0.848666 0.499069 0.183062
C74   C     C_3   0.458313 0.791432 0.603307 -0.815548
H58   H     H_    0.350818 0.743779 0.586103 0.237038
H59   H     H_    0.395121 0.843342 0.643499 0.240932
H60   H     H_    0.569617 0.767447 0.637633 0.241740
Cl4   Cl    Cl    0.626205 0.645846 0.012928 -0.733489

loop_
_geom_bond_atom_site_label_1
_geom_bond_atom_site_label_2
_ccdc_geom_bond_type
C33   C34   A    
O18   C55   A    
C43   C51   A    
C6    C9    A    
C26   C27   A    
C4    C6    S    
C14   Cl3   S    
C7    C8    A    
C12   H1    S    
C70   H49   S    
C1    O6    A    
O14   V3    S    
C65   H37   S    
C73   H56   S    
V3    O20   S    
C31   C32   A    
C37   C42   A    
O26   C72   S    
C35   C54   S    
C15   C20   A    
C21   C22   A    
C70   H50   S    
O12   C53   A    
C29   C34   A    
C22   C25   A    
C62   H31   S    
C2    C44   S    
C15   C16   A    
O13   C56   A    
C51   H16   S    
C59   H23   S    
O25   C69   S    
C32   O22   S    
C19   C20   A    
C29   H11   S    
O22   C60   S    
C72   C73   S    
O8    V2    S    
O14   C54   A    
C58   H22   S    
C42   O24   S    
O24   C66   S    
C71   H53   S    
C66   C67   S    
C11   C12   A    
C26   O21   S    
O1    V2    S    
C3    C21   S    
O7    V1    S    
O16   V4    S    
C6    C8    A    
C45   C49   A    
C36   C39   A    
C64   H35   S    
C37   C38   A    
O9    C4    A    
C43   C50   A    
C72   H55   S    
H10   C41   S    
O11   V4    S    
C15   H4    S    
C17   H6    S    
C47   H18   S    
C69   C70   S    
C73   H57   S    
O13   V3    S    
C27   Cl4   S    
V4    O20   S    
C8    H3    S    
O11   C54   A    
O15   C55   A    
C5    C12   A    
C45   Cl1   S    
C47   C48   A    
C29   C30   A    
O15   V3    S    
C70   C71   S    
C49   C50   A    
C69   H48   S    
C53   O16   A    
C62   H32   S    
O17   V3    S    
C44   C46   A    
C51   C52   A    
C28   H9    S    
C36   C37   A    
C57   C58   S    
C34   C38   A    
C40   H15   S    
C67   C68   S    
C58   C59   S    
O2    C1    A    
C48   C49   A    
C50   O25   S    
C22   C23   A    
C64   C65   S    
C66   H40   S    
C16   C17   A    
C68   H44   S    
C46   Cl2   S    
C40   C41   A    
C57   H20   S    
C18   C19   A    
C60   H27   S    
O17   V4    S    
C7    H2    S    
O23   C63   S    
O3    C4    A    
C67   H43   S    
C25   C26   A    
O6    V2    S    
O9    V2    S    
C16   H5    S    
C72   H54   S    
C18   H7    S    
C71   H52   S    
C27   C28   A    
C63   H34   S    
O2    V1    S    
C65   H39   S    
O18   V4    S    
C73   C74   S    
C30   H12   S    
C30   C31   A    
C7    C11   A    
O4    C2    A    
C25   H8    S    
C32   C33   A    
C74   H58   S    
C60   H26   S    
O1    C2    A    
C9    O26   S    
C74   H60   S    
C45   C46   A    
C1    C38   S    
C65   H38   S    
O5    V1    S    
C44   C47   A    
C61   H29   S    
O8    C3    A    
O19   V4    S    
C61   H28   S    
C13   O23   S    
C52   H17   S    
C71   H51   S    
O21   C57   S    
C69   H47   S    
C5    C13   A    
C17   C18   A    
C63   C64   S    
C33   C35   A    
C13   C14   A    
O4    V1    S    
O3    V1    S    
V1    O10   S    
C62   H30   S    
O5    C3    A    
C68   H45   S    
C39   H14   S    
C35   C36   A    
C23   C24   A    
C59   H24   S    
C20   C24   A    
C74   H59   S    
C57   H19   S    
C68   H46   S    
C60   C61   S    
C19   C21   A    
O7    V2    S    
C39   C40   A    
C31   H13   S    
C24   C56   S    
C61   C62   S    
C41   C42   A    
C23   C28   A    
C10   C14   A    
C58   H21   S    
C64   H36   S    
C66   H41   S    
C10   C11   A    
C67   H42   S    
C5    C55   S    
O12   V3    S    
C63   H33   S    
C9    C10   A    
C48   C52   A    
O19   C56   A    
V2    O10   S    
C59   H25   S    
C43   C53   S    
