data_mof_unit_60946.cif
_audit_creation_date              2012-12-10T18:24:45-0500
_audit_creation_method            fapswitch 2.2
_symmetry_space_group_name_H-M    P1
_symmetry_Int_Tables_number       1
_space_group_crystal_system       triclinic
_cell_length_a                    16.04444
_cell_length_b                    16.047053
_cell_length_c                    19.541151
_cell_angle_alpha                 95.305268
_cell_angle_beta                  90.744724
_cell_angle_gamma                 84.106971
_cell_volume                      4983.12350874

loop_
_atom_site_label
_atom_site_type_symbol
_atom_type_description
_atom_site_fract_x
_atom_site_fract_y
_atom_site_fract_z
_atom_type_partial_charge
C1    C     C_R   0.275819 0.510793 0.490995 0.503607
C2    C     C_2   0.488777 0.519507 0.982835 -0.130696
C3    C     C_2   0.534095 0.463146 0.018389 -0.154584
C4    C     C_R   0.724123 0.489202 0.509009 0.506161
C5    C     C_R   0.516375 0.482510 0.236586 0.008769
C6    C     C_1   0.186276 0.516128 0.486559 0.001918
C7    C     C_2   0.020587 0.527439 0.477014 0.022187
C8    C     C_2   0.979037 0.480803 0.516229 -0.113104
C9    C     C_1   0.888924 0.482642 0.514608 -0.053088
C10   C     C_1   0.110993 0.521056 0.482415 -0.026408
C11   C     C_1   0.813667 0.485136 0.512461 0.011513
C12   C     C_R   0.487477 0.514780 0.907044 0.044422
C13   C     C_1   0.516379 0.184861 0.487152 0.020172
C14   C     C_2   0.524761 0.018838 0.480455 -0.117694
C15   C     C_2   0.474965 0.981164 0.519463 -0.120325
C16   C     C_R   0.511719 0.274862 0.490891 0.504854
C17   C     C_1   0.479524 0.890783 0.515879 -0.042403
C18   C     C_1   0.520240 0.109218 0.484061 -0.039093
C19   C     C_1   0.483449 0.815138 0.512808 0.016265
C20   C     C_R   0.488228 0.725133 0.509089 0.504296
C21   C     C_R   0.510124 0.489676 0.311484 0.505541
C22   C     C_R   0.489974 0.509712 0.688508 0.505739
C23   C     C_R   0.452967 0.585217 0.874973 -0.114292
C24   C     C_R   0.486137 0.511605 0.763331 0.037398
C25   C     C_R   0.518579 0.440540 0.795179 -0.121059
C26   C     C_R   0.518397 0.441576 0.866220 -0.103100
C27   C     C_2   0.478914 0.322543 0.086949 0.224612
C28   C     C_3   0.974180 0.585131 0.428380 -0.251677
C29   C     C_3   0.031161 0.633435 0.387884 -0.432432
C30   C     C_R   0.451943 0.583611 0.803449 -0.121792
C31   C     C_R   0.548853 0.541158 0.131904 -0.121582
C32   C     C_R   0.543745 0.548078 0.203144 -0.131026
C33   C     C_R   0.495596 0.409211 0.198273 -0.085706
C34   C     C_R   0.501952 0.400642 0.126474 0.027533
C35   C     C_R   0.528126 0.468046 0.093328 -0.000212
H1    H     H_    0.543666 0.383632 0.765036 0.134123
H2    H     H_    0.426262 0.639031 0.779654 0.132326
H3    H     H_    0.450775 0.571338 0.010856 0.128245
H4    H     H_    0.541959 0.384357 0.888036 0.102653
H5    H     H_    0.479828 0.316229 0.031234 0.108801
H6    H     H_    0.067244 0.674390 0.423484 0.159954
H7    H     H_    0.075122 0.588990 0.355382 0.161790
H8    H     H_    0.992412 0.673776 0.353888 0.142265
H9    H     H_    0.937399 0.546938 0.391069 0.156176
H10   H     H_    0.929566 0.631598 0.458546 0.154976
H11   H     H_    0.013242 0.439942 0.550646 0.124692
H12   H     H_    0.430361 0.018056 0.554437 0.137408
H13   H     H_    0.569369 0.981943 0.445486 0.139875
H14   H     H_    0.560119 0.605051 0.232027 0.136533
H15   H     H_    0.475061 0.358427 0.224605 0.179607
H16   H     H_    0.573540 0.410581 0.993536 0.114973
H17   H     H_    0.427690 0.641874 0.905329 0.108140
H18   H     H_    0.569562 0.592717 0.106669 0.124376
O1    O     O_3   0.500000 0.500000 0.500000 -0.439918
O2    O     O_R   0.462330 0.445560 0.340470 -0.542863
O3    O     O_R   0.440930 0.559110 0.655640 -0.543293
O4    O     O_R   0.554010 0.538050 0.348260 -0.541761
O5    O     O_R   0.542730 0.457290 0.655630 -0.545165
O6    O     O_2   0.458260 0.263911 0.116260 -0.502076
O7    O     O_R   0.555880 0.314540 0.535300 -0.537981
O8    O     O_R   0.439840 0.689760 0.546310 -0.536887
O9    O     O_R   0.320170 0.458170 0.449830 -0.533067
O10   O     O_R   0.684110 0.537530 0.468570 -0.539241
O11   O     O_R   0.310830 0.559620 0.535340 -0.536001
O12   O     O_R   0.684890 0.444680 0.546270 -0.533355
O13   O     O_R   0.463420 0.314900 0.449800 -0.532461
O14   O     O_R   0.540870 0.680800 0.468590 -0.537931
Zn1   Zn    Zn3+2 0.569660 0.430340 0.558290 0.946715
Zn2   Zn    Zn3+2 0.437560 0.430860 0.436130 0.954148
Zn3   Zn    Zn3+2 0.568560 0.563000 0.447270 0.943769
Zn4   Zn    Zn3+2 0.424220 0.575810 0.558310 0.945741

loop_
_geom_bond_atom_site_label_1
_geom_bond_atom_site_label_2
_ccdc_geom_bond_type
C6    C10   T    
C7    C10   S    
C22   O3    A    
C23   C30   A    
C21   O4    A    
C15   H12   S    
O4    Zn3   S    
C2    H3    S    
C20   O14   A    
C19   C20   S    
O1    Zn3   S    
O10   Zn3   S    
C3    C35   S    
C27   H5    S    
O14   Zn3   S    
C2    C12   S    
C1    O9    A    
O8    Zn4   S    
C2    C3    D    
C23   H17   S    
C21   O2    A    
C7    C8    D    
C25   C26   A    
C27   O6    D    
C31   H18   S    
C4    C11   S    
C9    C11   T    
C4    O10   A    
C22   O5    A    
O2    Zn2   S    
O1    Zn2   S    
C13   C18   T    
O9    Zn2   S    
C22   C24   S    
O5    Zn1   S    
C28   C29   S    
C17   C19   T    
C33   C34   A    
C24   C30   A    
C27   C34   S    
C4    O12   A    
C29   H7    S    
C31   C32   A    
C31   C35   A    
C26   H4    S    
C13   C16   S    
O13   Zn2   S    
C32   H14   S    
O1    Zn4   S    
C25   H1    S    
C1    C6    S    
C1    O11   A    
C20   O8    A    
O12   Zn1   S    
C16   O13   A    
C24   C25   A    
O7    Zn1   S    
O1    Zn1   S    
C34   C35   A    
C16   O7    A    
O11   Zn4   S    
C12   C23   A    
C15   C17   S    
C28   H10   S    
C3    H16   S    
C14   C15   D    
C14   H13   S    
C8    H11   S    
C29   H6    S    
C33   H15   S    
C14   C18   S    
C28   H9    S    
C5    C32   A    
C29   H8    S    
C7    C28   S    
C30   H2    S    
O3    Zn4   S    
C12   C26   A    
C8    C9    S    
C5    C21   S    
C5    C33   A    
