data_mof_unit_26548.cif
_audit_creation_date              2012-12-10T17:15:09-0500
_audit_creation_method            fapswitch 2.2
_symmetry_space_group_name_H-M    P1
_symmetry_Int_Tables_number       1
_space_group_crystal_system       triclinic
_cell_length_a                    10.128263
_cell_length_b                    10.758268
_cell_length_c                    12.874938
_cell_angle_alpha                 91.300816
_cell_angle_beta                  92.965027
_cell_angle_gamma                 94.748173
_cell_volume                      1395.68693156

loop_
_atom_site_label
_atom_site_type_symbol
_atom_type_description
_atom_site_fract_x
_atom_site_fract_y
_atom_site_fract_z
_atom_type_partial_charge
C1    C     C_R   0.444449 0.267200 0.497264 0.904888
C2    C     C_R   0.655495 0.417707 0.044293 -0.195770
C3    C     C_R   0.333196 0.499926 0.847418 -0.292244
C4    C     C_R   0.648003 0.437013 0.150220 -0.296950
C5    C     C_R   0.554980 0.428338 0.870748 0.439345
C6    C     C_R   0.411305 0.462614 0.125136 0.404242
C7    C     C_R   0.544927 0.433909 0.977663 0.014014
C8    C     C_R   0.423140 0.460253 0.018447 0.008895
C9    C     C_2   0.410520 0.135697 0.508252 -0.377266
C10   C     C_2   0.582222 0.865278 0.529598 -0.366622
C11   C     C_2   0.503199 0.066806 0.547239 -0.169079
C12   C     C_R   0.554182 0.733024 0.510652 0.940551
C13   C     C_2   0.480479 0.933898 0.542833 -0.154124
C14   C     C_3   0.226608 0.348172 0.175855 0.123762
C15   C     C_3   0.075956 0.349206 0.159573 -0.326404
C16   C     C_3   0.005054 0.223308 0.183846 -0.981545
C17   C     C_3   0.632866 0.259824 0.789382 0.144440
C18   C     C_3   0.671516 0.163658 0.868772 -0.420903
C19   C     C_3   0.650730 0.031386 0.821925 -0.933004
C20   C     C_3   0.899692 0.260648 0.577479 0.120993
C21   C     C_3   0.976781 0.188146 0.657607 -0.366597
C22   C     C_3   0.002501 0.059428 0.614845 -0.976423
C23   C     C_2   0.074804 0.510455 0.521325 0.019783
C24   C     C_3   0.172528 0.685129 0.327205 0.238134
C25   C     C_3   0.109524 0.796504 0.374679 -0.441134
C26   C     C_3   0.161458 0.918531 0.327171 -0.984036
C27   C     C_2   0.928639 0.519414 0.499275 0.035107
C28   C     C_R   0.473851 0.495950 0.698295 0.888975
C29   C     C_R   0.521855 0.488832 0.301101 0.888347
C30   C     C_R   0.527418 0.463427 0.190788 -0.160166
C31   C     C_R   0.454046 0.475019 0.806886 -0.178500
C32   C     C_R   0.316085 0.487970 0.952309 -0.184552
H1    H     H_    0.736768 0.431891 0.200116 0.191209
H2    H     H_    0.109046 0.470692 0.593492 0.135064
H3    H     H_    0.251507 0.317603 0.255930 0.177755
H4    H     H_    0.259364 0.278037 0.119318 0.104171
H5    H     H_    0.039691 0.422180 0.210418 0.267966
H6    H     H_    0.050498 0.371509 0.077460 0.204254
H7    H     H_    0.038380 0.148405 0.133104 0.267227
H8    H     H_    0.896335 0.226857 0.169730 0.265551
H9    H     H_    0.025626 0.201056 0.266666 0.267060
H10   H     H_    0.690256 0.248173 0.719522 0.198407
H11   H     H_    0.526278 0.240403 0.762573 0.097451
H12   H     H_    0.252373 0.530275 0.798484 0.189881
H13   H     H_    0.777533 0.183715 0.895177 0.233514
H14   H     H_    0.610025 0.169921 0.937395 0.224077
H15   H     H_    0.544859 0.008767 0.796325 0.272511
H16   H     H_    0.679052 0.963728 0.881248 0.272165
H17   H     H_    0.713157 0.021802 0.754207 0.263377
H18   H     H_    0.958116 0.269074 0.506532 0.128860
H19   H     H_    0.803082 0.208334 0.555597 0.138963
H20   H     H_    0.073466 0.241330 0.679369 0.227405
H21   H     H_    0.920010 0.177181 0.728805 0.230800
H22   H     H_    0.907233 0.003763 0.593921 0.259381
H23   H     H_    0.222057 0.508960 0.981951 0.188655
H24   H     H_    0.058499 0.009388 0.674866 0.272462
H25   H     H_    0.062101 0.068399 0.544996 0.264088
H26   H     H_    0.155755 0.685862 0.241266 0.155154
H27   H     H_    0.281118 0.694585 0.342937 0.190909
H28   H     H_    0.000018 0.783818 0.360364 0.230015
H29   H     H_    0.132448 0.802051 0.460103 0.221688
H30   H     H_    0.271004 0.933023 0.339943 0.268868
H31   H     H_    0.116072 0.997753 0.364017 0.264257
H32   H     H_    0.135093 0.916980 0.242296 0.270828
H33   H     H_    0.749903 0.397832 0.014613 0.193557
H34   H     H_    0.378312 0.893185 0.540420 0.190967
H35   H     H_    0.601303 0.107187 0.573021 0.169346
H36   H     H_    0.683923 0.906718 0.531313 0.142159
H37   H     H_    0.311895 0.095061 0.483373 0.157869
H38   H     H_    0.896700 0.583674 0.441236 0.132075
N1    N     N_2   0.162330 0.550370 0.457540 0.046940
N2    N     N_2   0.837670 0.449630 0.542460 0.059938
O1    O     O_R   0.567930 0.307680 0.508550 -0.625723
O2    O     O_3   0.666043 0.382784 0.829938 -0.619358
O3    O     O_3   0.878625 0.378707 0.620988 -0.554097
O4    O     O_3   0.112069 0.571569 0.360955 -0.600881
O5    O     O_R   0.432070 0.692320 0.491450 -0.642652
O6    O     O_R   0.351090 0.340020 0.481290 -0.625503
O7    O     O_R   0.648910 0.659980 0.518710 -0.621832
O8    O     O_R   0.590490 0.486480 0.665020 -0.543217
O9    O     O_R   0.409510 0.513520 0.334980 -0.576949
O10   O     O_R   0.373660 0.518820 0.637760 -0.650940
O11   O     O_R   0.626340 0.481180 0.362240 -0.639748
O12   O     O_3   0.286853 0.470361 0.163828 -0.642404
Zn1   Zn    Zn3+2 0.644780 0.478400 0.518200 0.986271
Zn2   Zn    Zn3+2 0.355220 0.521600 0.481800 0.954054

loop_
_geom_bond_atom_site_label_1
_geom_bond_atom_site_label_2
_ccdc_geom_bond_type
C2    C7    A    
C14   O12   S    
C2    H33   S    
C22   H25   S    
N2    Zn1   S    
C7    C8    A    
C22   H22   S    
C29   C30   S    
C9    H37   S    
C29   O11   A    
C20   H19   S    
C14   H4    S    
N1    O4    S    
C19   H15   S    
C15   C16   S    
C12   O7    A    
C18   C19   S    
C5    O2    S    
C26   H32   S    
C17   H10   S    
C15   H5    S    
C20   H18   S    
C25   H28   S    
C23   C27   S    
C32   H23   S    
O9    Zn2   S    
O6    Zn2   S    
C21   C22   S    
C1    O6    A    
N2    O3    S    
C18   H14   S    
C11   H35   S    
C13   H34   S    
C3    H12   S    
C6    O12   S    
C28   O10   A    
C8    C32   A    
C23   N1    D    
C1    C9    S    
C24   C25   S    
C14   H3    S    
C5    C7    A    
C19   H16   S    
C24   O4    S    
C22   H24   S    
C25   C26   S    
O10   Zn2   S    
C20   O3    S    
C2    C4    A    
C26   H31   S    
C17   H11   S    
C15   H6    S    
C29   O9    A    
O8    Zn1   S    
N1    Zn2   S    
C19   H17   S    
C23   H2    S    
C12   O5    A    
C17   C18   S    
C25   H29   S    
C3    C31   A    
C9    C11   D    
O1    Zn1   S    
C27   H38   S    
C10   C12   S    
C16   H8    S    
O11   Zn1   S    
O5    Zn2   S    
C17   O2    S    
C18   H13   S    
O7    Zn1   S    
C4    H1    S    
C6    C30   A    
C28   C31   S    
C10   C13   D    
C6    C8    A    
C10   H36   S    
C1    O1    A    
C26   H30   S    
C21   H21   S    
C11   C13   S    
C24   H27   S    
C3    C32   A    
C28   O8    A    
C16   H7    S    
C20   C21   S    
C24   H26   S    
C14   C15   S    
C16   H9    S    
C21   H20   S    
C4    C30   A    
C27   N2    D    
C5    C31   A    
