data_mof_unit_39776.cif
_audit_creation_date              2012-10-26T20:02:33-0400
_audit_creation_method            fapswitch 2.2
_symmetry_space_group_name_H-M    P1
_symmetry_Int_Tables_number       1
_space_group_crystal_system       triclinic
_cell_length_a                    18.957379
_cell_length_b                    18.628321
_cell_length_c                    12.371071
_cell_angle_alpha                 89.980212
_cell_angle_beta                  128.994314
_cell_angle_gamma                 89.982791
_cell_volume                      3395.44480225

loop_
_atom_site_label
_atom_site_type_symbol
_atom_type_description
_atom_site_fract_x
_atom_site_fract_y
_atom_site_fract_z
_atom_type_partial_charge
C1    C     C_R   0.609670 0.896528 0.649804 0.535822
C2    C     C_R   0.687455 0.754375 0.065386 0.047391
C3    C     C_R   0.300182 0.570355 0.202189 -0.091056
C4    C     C_R   0.269812 0.999207 0.481871 0.096343
C5    C     C_R   0.225406 0.934566 0.415718 -0.084657
C6    C     C_R   0.147562 0.933947 0.275834 -0.121675
C7    C     C_R   0.110807 0.998485 0.203208 -0.115683
C8    C     C_R   0.149218 0.063532 0.272611 -0.124938
C9    C     C_R   0.226747 0.063679 0.412700 -0.083060
C10   C     C_R   0.769818 0.499040 0.481905 0.096373
C11   C     C_R   0.725423 0.434342 0.416113 -0.084932
C12   C     C_R   0.647547 0.433587 0.276283 -0.121667
C13   C     C_R   0.187088 0.746449 0.064922 0.044739
C14   C     C_R   0.610779 0.498041 0.203327 -0.115677
C15   C     C_R   0.649194 0.563155 0.272365 -0.124986
C16   C     C_R   0.726729 0.563444 0.412422 -0.082858
C17   C     C_R   0.187455 0.254382 0.065403 0.047403
C18   C     C_R   0.610113 0.208983 0.959418 -0.146536
C19   C     C_R   0.610487 0.792173 0.960419 -0.151161
C20   C     C_R   0.110134 0.708953 0.959466 -0.146551
C21   C     C_R   0.110501 0.292201 0.960465 -0.151178
C22   C     C_R   0.597718 0.191462 0.839746 -0.124562
C23   C     C_R   0.596865 0.808633 0.839331 -0.134202
C24   C     C_R   0.097717 0.691449 0.839770 -0.124561
C25   C     C_R   0.610082 0.103192 0.650330 0.537662
C26   C     C_R   0.096862 0.308652 0.839360 -0.134220
C27   C     C_R   0.312377 0.823138 0.137757 -0.136936
C28   C     C_R   0.310351 0.175345 0.135313 -0.134276
C29   C     C_R   0.812407 0.323117 0.137782 -0.136956
C30   C     C_R   0.810396 0.675377 0.135357 -0.134275
C31   C     C_R   0.274667 0.804333 0.289277 -0.142695
C32   C     C_R   0.276251 0.197110 0.290627 -0.140426
C33   C     C_R   0.774610 0.304378 0.289223 -0.142565
C34   C     C_R   0.776251 0.697117 0.290623 -0.140498
C35   C     C_R   0.669420 0.165180 0.730693 -0.000683
C36   C     C_R   0.109664 0.396524 0.649798 0.535825
C37   C     C_R   0.667737 0.833618 0.728514 -0.004927
C38   C     C_R   0.169400 0.665192 0.730677 -0.000683
C39   C     C_R   0.167707 0.333601 0.728486 -0.004927
C40   C     C_R   0.686377 0.999477 0.288928 -0.158620
C41   C     C_R   0.186379 0.499477 0.288930 -0.158632
C42   C     C_R   0.342682 0.999838 0.633421 0.129850
C43   C     C_R   0.842684 0.499855 0.633429 0.129852
C44   C     C_R   0.312065 0.000225 0.710487 -0.166436
C45   C     C_R   0.812067 0.500412 0.710492 -0.166428
C46   C     C_R   0.387359 0.101223 0.346309 0.552605
C47   C     C_R   0.110077 0.603195 0.650325 0.537668
C48   C     C_R   0.387488 0.898720 0.346496 0.552552
C49   C     C_R   0.887367 0.601230 0.346319 0.552585
C50   C     C_R   0.887485 0.398722 0.346493 0.552569
C51   C     C_R   0.372115 0.000664 0.853264 -0.153499
C52   C     C_R   0.872119 0.500902 0.853267 -0.153495
C53   C     C_R   0.465759 0.000628 0.924856 -0.016688
C54   C     C_R   0.965762 0.500721 0.924857 -0.016690
C55   C     C_R   0.496192 0.000200 0.843542 0.141001
C56   C     C_R   0.996194 0.500225 0.843543 0.140989
C57   C     C_R   0.529508 0.000850 0.074471 -0.026291
C58   C     C_R   0.247866 0.772425 0.043823 0.027646
C59   C     C_R   0.029511 0.500898 0.074473 -0.026297
C60   C     C_R   0.623730 0.001381 0.142242 0.024487
C61   C     C_R   0.123734 0.501398 0.142244 0.024476
C62   C     C_R   0.653468 0.002589 0.062403 -0.048091
C63   C     C_R   0.153473 0.502588 0.062404 -0.048086
C64   C     C_R   0.590429 0.000582 0.917031 -0.100975
C65   C     C_R   0.090432 0.500578 0.917032 -0.100986
C66   C     C_R   0.503304 0.000515 0.160545 0.033254
C67   C     C_R   0.003306 0.500531 0.160544 0.033246
C68   C     C_R   0.656200 0.999134 0.366463 0.029362
C69   C     C_R   0.246385 0.226567 0.041929 0.024833
C70   C     C_R   0.156201 0.499133 0.366464 0.029357
C71   C     C_R   0.702983 0.260175 0.189876 -0.151063
C72   C     C_R   0.704973 0.741907 0.191931 -0.137768
C73   C     C_R   0.203037 0.760128 0.189940 -0.151124
C74   C     C_R   0.204988 0.241918 0.191960 -0.137784
C75   C     C_R   0.324074 0.841013 0.257993 0.002697
C76   C     C_R   0.323741 0.158847 0.257438 0.003460
C77   C     C_R   0.824067 0.341019 0.257986 0.002717
C78   C     C_R   0.823761 0.658863 0.257457 0.003417
C79   C     C_R   0.734574 0.184349 0.715907 -0.135540
C80   C     C_R   0.747883 0.272418 0.043831 0.027628
C81   C     C_R   0.731759 0.813250 0.711969 -0.137221
C82   C     C_R   0.234539 0.684376 0.715871 -0.135543
C83   C     C_R   0.231696 0.313201 0.711891 -0.137236
C84   C     C_R   0.301678 0.733917 0.804805 -0.144185
C85   C     C_R   0.297713 0.262501 0.799145 -0.146474
C86   C     C_R   0.801725 0.233882 0.804853 -0.144192
C87   C     C_R   0.797800 0.762570 0.799256 -0.146462
C88   C     C_R   0.307078 0.763466 0.912866 -0.120553
C89   C     C_R   0.303360 0.233144 0.907599 -0.124023
C90   C     C_R   0.807124 0.263436 0.912909 -0.120538
C91   C     C_R   0.746419 0.726587 0.041956 0.024827
C92   C     C_R   0.803437 0.733202 0.907691 -0.124033
C93   C     C_R   0.741363 0.247121 0.929427 0.035357
C94   C     C_R   0.738918 0.750918 0.926166 0.027332
C95   C     C_R   0.241333 0.747138 0.929404 0.035346
C96   C     C_R   0.238872 0.250890 0.926121 0.027337
C97   C     C_R   0.668371 0.200988 0.831512 0.027921
C98   C     C_R   0.666570 0.797867 0.829304 0.015255
C99   C     C_R   0.168353 0.700993 0.831504 0.027924
C100  C     C_R   0.166544 0.297860 0.829290 0.015255
C101  C     C_R   0.750862 0.008485 0.127202 0.019938
C102  C     C_R   0.687071 0.246471 0.064889 0.044752
C103  C     C_R   0.793721 0.953582 0.109778 -0.096913
C104  C     C_R   0.885123 0.959959 0.168994 -0.109746
C105  C     C_R   0.933981 0.021349 0.244943 -0.106533
C106  C     C_R   0.891404 0.076674 0.260877 -0.111737
C107  C     C_R   0.800155 0.070378 0.202144 -0.091066
C108  C     C_R   0.250873 0.508471 0.127205 0.019955
C109  C     C_R   0.293723 0.453565 0.109751 -0.096914
C110  C     C_R   0.385130 0.459934 0.168978 -0.109737
C111  C     C_R   0.434003 0.521315 0.244972 -0.106518
C112  C     C_R   0.391437 0.576642 0.260935 -0.111735
Cu1   Cu    Cu3+1 0.526340 1.000000 0.421010 0.921021
Cu2   Cu    Cu3+1 0.026340 0.500000 0.421010 0.921021
Cu3   Cu    Cu3+1 0.473640 0.000000 0.578990 0.916914
Cu4   Cu    Cu3+1 0.973640 0.500000 0.578990 0.916909
H1    H     H_    0.289822 0.811109 0.388299 0.115564
H2    H     H_    0.842325 0.501470 0.903927 0.100208
H3    H     H_    0.239920 0.000202 0.658582 0.107269
H4    H     H_    0.739923 0.500464 0.658589 0.107275
H5    H     H_    0.618691 0.000565 0.865113 0.194647
H6    H     H_    0.118693 0.500547 0.865112 0.194647
H7    H     H_    0.558316 0.194704 0.967912 0.106740
H8    H     H_    0.559720 0.807619 0.970527 0.109345
H9    H     H_    0.058358 0.694653 0.967991 0.106759
H10   H     H_    0.059756 0.307670 0.970607 0.109343
H11   H     H_    0.660296 0.236645 0.210651 0.104151
H12   H     H_    0.292746 0.191308 0.390798 0.113059
H13   H     H_    0.663721 0.766739 0.214331 0.106595
H14   H     H_    0.160386 0.736569 0.210752 0.104207
H15   H     H_    0.163761 0.266766 0.214387 0.106558
H16   H     H_    0.351750 0.851405 0.116105 0.120807
H17   H     H_    0.348069 0.145748 0.111949 0.120076
H18   H     H_    0.851817 0.351358 0.116166 0.120826
H19   H     H_    0.848135 0.645800 0.112018 0.120085
H20   H     H_    0.735852 0.159066 0.638323 0.128108
H21   H     H_    0.732999 0.838380 0.634210 0.128903
H22   H     H_    0.235817 0.659098 0.638282 0.128114
H23   H     H_    0.789715 0.311190 0.388213 0.115654
H24   H     H_    0.232929 0.338319 0.634116 0.128900
H25   H     H_    0.365096 0.797195 0.983749 0.099289
H26   H     H_    0.360687 0.198519 0.977354 0.100188
H27   H     H_    0.865150 0.297163 0.983793 0.099269
H28   H     H_    0.860777 0.698590 0.977469 0.100181
H29   H     H_    0.352558 0.747066 0.793868 0.111363
H30   H     H_    0.347679 0.248336 0.786743 0.111674
H31   H     H_    0.852615 0.247023 0.793928 0.111345
H32   H     H_    0.847792 0.748430 0.786893 0.111693
H33   H     H_    0.531848 0.170579 0.755255 0.153278
H34   H     H_    0.792745 0.691326 0.390796 0.112987
H35   H     H_    0.531080 0.830024 0.755518 0.156595
H36   H     H_    0.031849 0.670561 0.755292 0.153292
H37   H     H_    0.031080 0.330056 0.755567 0.156612
H38   H     H_    0.704892 0.998029 0.478856 0.120638
H39   H     H_    0.204891 0.498019 0.478856 0.120649
H40   H     H_    0.756576 0.905852 0.051272 0.127975
H41   H     H_    0.918088 0.917305 0.156149 0.111463
H42   H     H_    0.004833 0.026067 0.291718 0.122087
H43   H     H_    0.929147 0.124361 0.319024 0.111636
H44   H     H_    0.767961 0.113409 0.215561 0.122108
H45   H     H_    0.758819 0.997589 0.344993 0.110220
H46   H     H_    0.256567 0.405842 0.051210 0.127965
H47   H     H_    0.418086 0.417280 0.156108 0.111441
H48   H     H_    0.504857 0.526029 0.291749 0.122080
H49   H     H_    0.429190 0.624322 0.319117 0.111630
H50   H     H_    0.267995 0.613390 0.215626 0.122103
H51   H     H_    0.249304 0.885304 0.475087 0.088999
H52   H     H_    0.114338 0.883707 0.224933 0.111834
H53   H     H_    0.050090 0.998192 0.095421 0.115115
H54   H     H_    0.117228 0.113639 0.219245 0.115231
H55   H     H_    0.251491 0.113487 0.469973 0.090110
H56   H     H_    0.258821 0.497576 0.344995 0.110220
H57   H     H_    0.749361 0.385147 0.475714 0.088952
H58   H     H_    0.614314 0.383310 0.225676 0.111752
H59   H     H_    0.550043 0.497640 0.095574 0.115115
H60   H     H_    0.617190 0.613215 0.218758 0.115266
H61   H     H_    0.751448 0.613308 0.469452 0.090200
H62   H     H_    0.433453 0.000578 0.118184 0.116761
H63   H     H_    0.933455 0.500559 0.118182 0.116774
H64   H     H_    0.342320 0.001065 0.903923 0.100199
N1    N     N_R   0.566260 0.000000 0.302220 -0.233012
N2    N     N_R   0.066260 0.500000 0.302220 -0.233017
N3    N     N_R   0.434410 0.000000 0.697680 -0.243583
N4    N     N_R   0.934410 0.500000 0.697680 -0.243589
O1    O     O_R   0.608610 0.924520 0.551740 -0.502347
O2    O     O_R   0.435880 0.924530 0.314850 -0.512779
O3    O     O_R   0.935880 0.575470 0.314850 -0.512427
O4    O     O_R   0.935880 0.424530 0.314850 -0.512791
O5    O     O_R   0.391380 0.075460 0.448260 -0.497576
O6    O     O_R   0.391380 0.924540 0.448260 -0.496870
O7    O     O_R   0.891380 0.575460 0.448260 -0.497638
O8    O     O_R   0.891380 0.424540 0.448260 -0.496816
O9    O     O_R   0.608610 0.075480 0.551740 -0.502230
O10   O     O_R   0.108610 0.424520 0.551740 -0.502348
O11   O     O_R   0.108610 0.575480 0.551740 -0.502226
O12   O     O_R   0.564110 0.924510 0.685150 -0.535412
O13   O     O_R   0.564110 0.075490 0.685150 -0.533308
O14   O     O_R   0.064110 0.424510 0.685150 -0.535433
O15   O     O_R   0.064110 0.575490 0.685150 -0.533298
O16   O     O_R   0.435880 0.075470 0.314850 -0.512442

loop_
_geom_bond_atom_site_label_1
_geom_bond_atom_site_label_2
_ccdc_geom_bond_type
C101  C107  A    
C21   C26   A    
C63   C65   A    
C17   C69   A    
C40   C60   A    
C34   C72   A    
C24   C99   A    
C111  C112  A    
C41   C61   A    
C104  H41   S    
Cu3   O12   S    
C69   C96   A    
C50   O4    A    
C86   H31   S    
C46   C76   S    
C107  H44   S    
C34   H34   S    
C7    C8    A    
C84   H29   S    
C49   C78   S    
C81   H21   S    
C79   H20   S    
C66   H62   S    
C15   H60   S    
C38   C99   A    
C47   O11   A    
C36   O14   A    
C68   H38   S    
C109  H46   S    
C32   C74   A    
C5    C6    A    
C27   C75   A    
C31   C73   A    
C106  C107  A    
C94   C98   A    
C64   H5    S    
C96   C100  A    
C43   N4    A    
Cu2   O4    S    
C108  C109  A    
C60   C62   A    
C18   C102  A    
C61   C63   A    
C110  C111  A    
C104  C105  A    
C62   C64   A    
C24   H36   S    
C59   C67   A    
Cu3   O6    S    
C46   O16   A    
C70   N2    A    
C31   H1    S    
C20   C24   A    
C8    H54   S    
C8    C9    A    
C37   C81   A    
C50   O8    A    
C4    C9    A    
C57   C66   A    
C48   O6    A    
C90   H27   S    
C1    C37   S    
C18   H7    S    
C62   C101  S    
C29   H18   S    
C2    C19   A    
C22   H33   S    
C101  C103  A    
C22   C97   A    
C74   H15   S    
C38   C82   A    
C27   H16   S    
C48   C75   S    
C71   H11   S    
C42   C44   A    
C2    C72   A    
C37   C98   A    
C52   C54   A    
C54   C56   A    
C54   C59   A    
C53   C55   A    
C19   H8    S    
C41   H56   S    
Cu1   N1    S    
C68   N1    A    
C11   H57   S    
C59   C61   A    
Cu2   O11   S    
Cu1   O2    S    
C28   H17   S    
C72   H13   S    
C1    O12   A    
C85   H30   S    
C87   H32   S    
Cu4   O15   S    
C53   C57   A    
C4    C5    A    
C57   C60   A    
C13   C58   A    
C56   N4    A    
C44   H3    S    
Cu2   N2    S    
C15   C16   A    
C17   C21   A    
Cu2   O3    S    
C70   H39   S    
C80   C102  A    
Cu2   Cu4   S    
C51   C53   A    
C30   C78   A    
C89   H26   S    
C19   C23   A    
C58   C95   A    
C35   C97   A    
C48   O2    A    
C14   H59   S    
C67   N2    A    
Cu4   O14   S    
C56   C65   A    
C31   C75   A    
C105  H42   S    
C49   O3    A    
C3    C112  A    
C110  H47   S    
Cu1   O1    S    
C55   C64   A    
C28   C69   A    
C92   C94   A    
C63   C108  S    
C65   H6    S    
C43   C45   A    
C38   C47   S    
C81   C87   A    
C25   C35   S    
C45   H4    S    
C83   C85   A    
Cu4   O7    S    
C12   C14   A    
C82   C84   A    
C7    H53   S    
C86   C90   A    
C17   C74   A    
C42   N3    A    
C9    H55   S    
C46   O5    A    
C51   H64   S    
C28   C76   A    
C50   C77   S    
C93   C97   A    
C88   H25   S    
C25   O9    A    
C16   H61   S    
C44   C51   A    
C90   C93   A    
C12   H58   S    
C6    H52   S    
C23   H35   S    
C73   H14   S    
C85   C89   A    
Cu2   O10   S    
C13   C20   A    
C10   C43   S    
C18   C22   A    
Cu1   O9    S    
C66   N1    A    
C36   C39   S    
C111  H48   S    
C84   C88   A    
C13   C73   A    
C30   C91   A    
C27   C58   A    
C32   C76   A    
Cu3   N3    S    
C11   C12   A    
C6    C7    A    
C49   O7    A    
C1    O1    A    
C3    C108  A    
C105  C106  A    
C71   C102  A    
C45   C52   A    
C32   H12   S    
C89   C96   A    
C80   C93   A    
C39   C83   A    
C40   H45   S    
C82   H22   S    
C67   H63   S    
C109  C110  A    
C34   C78   A    
C91   C94   A    
C33   C77   A    
C39   C100  A    
C29   C80   A    
C4    C42   S    
C33   H23   S    
C112  H49   S    
Cu4   N4    S    
C35   C79   A    
Cu1   O16   S    
C95   C99   A    
C5    H51   S    
Cu4   O8    S    
C2    C91   A    
C92   H28   S    
C36   O10   A    
C88   C95   A    
C25   O13   A    
C10   C11   A    
C33   C71   A    
C83   H24   S    
Cu3   O5    S    
C103  H40   S    
C20   H9    S    
C23   C98   A    
C29   C77   A    
C47   O15   A    
C30   H19   S    
C40   C68   A    
C103  C104  A    
C55   N3    A    
C14   C15   A    
C26   H37   S    
C10   C16   A    
Cu3   O13   S    
C21   H10   S    
C87   C92   A    
C79   C86   A    
C106  H43   S    
C3    H50   S    
C26   C100  A    
C41   C70   A    
Cu1   Cu3   S    
C52   H2    S    
