data_mof_unit_67876.cif
_audit_creation_date              2013-03-05T15:41:51-0500
_audit_creation_method            fapswitch 2.2
_symmetry_space_group_name_H-M    P1
_symmetry_Int_Tables_number       1
_space_group_crystal_system       triclinic
_cell_length_a                    7.86121
_cell_length_b                    8.587051
_cell_length_c                    10.508398
_cell_angle_alpha                 90.558123
_cell_angle_beta                  84.149424
_cell_angle_gamma                 94.22129
_cell_volume                      703.754183879

loop_
_atom_site_label
_atom_site_type_symbol
_atom_site_description
_atom_site_fract_x
_atom_site_fract_y
_atom_site_fract_z
_atom_type_partial_charge
O1    O     O_R   0.389250 0.738570 0.508410 -0.609354
O2    O     O_R   0.610750 0.261430 0.491590 -0.613310
O3    O     O_R   0.678390 0.711620 0.486450 -0.630434
O4    O     O_R   0.321610 0.288380 0.513550 -0.628750
C1    C     C_R   0.545974 0.794541 0.496642 0.956216
C2    C     C_R   0.454041 0.205465 0.503538 0.942004
O5    O     O_R   0.355460 0.513510 0.697030 -0.632220
O6    O     O_R   0.644540 0.486490 0.302970 -0.620522
O7    O     O_R   0.644600 0.486560 0.675070 -0.620726
O8    O     O_R   0.355400 0.513440 0.324930 -0.622438
C3    C     C_R   0.501258 0.510853 0.741625 0.893921
C4    C     C_R   0.498672 0.491077 0.258297 0.864072
Zn1   Zn    Zn3+2 0.306940 0.517990 0.514670 0.924255
Zn2   Zn    Zn3+2 0.693060 0.482010 0.485330 0.923845
N1    N     N_2   0.950320 0.457950 0.465730 -0.185182
N2    N     N_2   0.049680 0.542050 0.534270 -0.185250
C5    C     C_3   0.380444 0.595693 0.975574 0.229422
C6    C     C_3   0.616846 0.408002 0.023805 0.235224
C7    C     C_3   0.533613 0.644518 0.050285 -0.251574
C8    C     C_3   0.462023 0.358913 0.950142 -0.297963
H1    H     H_    0.562610 0.759547 0.095535 0.137264
H2    H     H_    0.431932 0.243669 0.905570 0.152246
C9    C     C_3   0.498559 0.489048 0.123564 -0.118658
C10   C     C_3   0.498756 0.513855 0.876721 -0.113410
C11   C     C_3   0.342798 0.442860 0.050554 0.066370
C12   C     C_3   0.652769 0.561372 0.949613 0.111867
H3    H     H_    0.014862 0.383677 0.404483 0.199880
H4    H     H_    0.985986 0.613565 0.597977 0.190745
C13   C     C_2   0.569576 0.958651 0.495063 -0.385257
C14   C     C_2   0.430464 0.041361 0.505281 -0.382933
H5    H     H_    0.700578 0.010801 0.485526 0.182500
H6    H     H_    0.299463 0.989212 0.514840 0.184069
N3    N     N_2   0.260420 0.702805 0.941251 -0.313533
H7    H     H_    0.174225 0.652517 0.883211 0.234180
C15   C     C_3   0.187963 0.796634 0.045094 -0.822710
H8    H     H_    0.107114 0.881810 0.006716 0.249266
H9    H     H_    0.290939 0.862928 0.091872 0.248845
H10   H     H_    0.108416 0.721965 0.117308 0.244112
N4    N     N_2   0.742471 0.300461 0.047659 -0.300203
H11   H     H_    0.697830 0.222737 0.119644 0.223706
C16   C     C_3   0.812211 0.223199 0.932980 -0.846669
H12   H     H_    0.914363 0.149130 0.955376 0.242894
H13   H     H_    0.869546 0.309788 0.860401 0.256957
H14   H     H_    0.710635 0.147762 0.891917 0.244737
C17   C     C_3   0.169227 0.368429 0.107456 -0.379798
C18   C     C_3   0.189487 0.212256 0.173181 -0.349165
C19   C     C_3   0.018027 0.127727 0.223547 -0.872429
H15   H     H_    0.924419 0.210485 0.263014 0.266149
H16   H     H_    0.961548 0.059024 0.146657 0.252711
H17   H     H_    0.038654 0.044918 0.300198 0.247582
H18   H     H_    0.259529 0.134281 0.104978 0.215080
H19   H     H_    0.267000 0.233228 0.254874 0.224722
H20   H     H_    0.107015 0.450102 0.176808 0.213967
H21   H     H_    0.088776 0.349752 0.027977 0.229499
C20   C     C_3   0.820729 0.644062 0.892233 -0.418387
C21   C     C_3   0.794072 0.812376 0.852683 -0.337733
C22   C     C_3   0.934471 0.881258 0.753348 -0.892939
H22   H     H_    0.063134 0.848503 0.772352 0.272270
H23   H     H_    0.907059 0.842994 0.656230 0.259006
H24   H     H_    0.935804 0.010292 0.753630 0.255531
H25   H     H_    0.669062 0.817631 0.812549 0.225378
H26   H     H_    0.790459 0.886352 0.939931 0.211895
H27   H     H_    0.907268 0.646934 0.968433 0.204099
H28   H     H_    0.876968 0.576186 0.810540 0.215063

loop_
_geom_bond_atom_site_label_1
_geom_bond_atom_site_label_2
_geom_bond_distance
_ccdc_geom_bond_type
N2    H4    1.022221 S    
C7    C9    1.540720 S    
O7    Zn2   1.991975 S    
C13   C14   1.341946 D    
C11   C17   1.529893 S    
N4    C16   1.447845 S    
O7    C3    1.293651 A    
C16   H12   1.105189 S    
N1    H3    1.025429 S    
C19   H15   1.107952 S    
C6    C12   1.530494 S    
O6    C4    1.285926 A    
C5    C11   1.531727 S    
C12   C20   1.522874 S    
C20   C21   1.542612 S    
N3    H7    1.026475 S    
C17   H20   1.109068 S    
C13   H5    1.087693 S    
C17   C18   1.540377 S    
C20   H28   1.105872 S    
C14   H6    1.087690 S    
C16   H13   1.108756 S    
C4    C9    1.415856 S    
C22   H22   1.107328 S    
O2    C2    1.283291 A    
O3    Zn2   1.983350 S    
C5    N3    1.438732 S    
O1    C1    1.283411 A    
O8    C4    1.290014 A    
O4    C2    1.298908 A    
C7    H1    1.110647 S    
C10   C12   1.526217 S    
C17   H21   1.101546 S    
O5    C3    1.283486 A    
C19   H17   1.111526 S    
C1    C13   1.407809 S    
C9    C11   1.536017 S    
Zn2   N1    2.037369 S    
O2    Zn2   1.955521 S    
C16   H14   1.109985 S    
C21   H26   1.109465 S    
C22   H23   1.106264 S    
C5    C10   1.524131 S    
O1    Zn1   1.955521 S    
C8    C11   1.547410 S    
C6    C9    1.526530 S    
C18   H19   1.108229 S    
C3    C10   1.417783 S    
O5    Zn1   1.992945 S    
C15   H10   1.109829 S    
C21   C22   1.529284 S    
C15   H9    1.108538 S    
C6    C8    1.538959 S    
C19   H16   1.106035 S    
Zn1   N2    2.037369 S    
N4    H11   1.030560 S    
C7    C12   1.545339 S    
C6    N4    1.442272 S    
C8    C10   1.538466 S    
C21   H25   1.112236 S    
C5    C7    1.534266 S    
C22   H24   1.107276 S    
O6    Zn2   1.992943 S    
C15   H8    1.108144 S    
N3    C15   1.445028 S    
C18   C19   1.530297 S    
C18   H18   1.108891 S    
C2    C14   1.407770 S    
N1    N2    1.293021 D    
O4    Zn1   1.983350 S    
C8    H2    1.110743 S    
O3    C1    1.298833 A    
O8    Zn1   1.991975 S    
C20   H27   1.101272 S    
