data_mof_unit_35409.cif
_audit_creation_date              2013-03-05T15:47:04-0500
_audit_creation_method            fapswitch 2.2
_symmetry_space_group_name_H-M    P1
_symmetry_Int_Tables_number       1
_space_group_crystal_system       triclinic
_cell_length_a                    23.520602
_cell_length_b                    10.947031
_cell_length_c                    9.829137
_cell_angle_alpha                 110.199627
_cell_angle_beta                  99.139316
_cell_angle_gamma                 90.280713
_cell_volume                      2340.12450809

loop_
_atom_site_label
_atom_site_type_symbol
_atom_site_description
_atom_site_fract_x
_atom_site_fract_y
_atom_site_fract_z
_atom_type_partial_charge
O1    O     O_R   0.505330 0.332340 0.577400 -0.595881
O2    O     O_R   0.494670 0.667660 0.422600 -0.590256
O3    O     O_R   0.488470 0.295500 0.332650 -0.536089
O4    O     O_R   0.511530 0.704500 0.667350 -0.533131
C1    C     C_R   0.499236 0.254292 0.442831 0.854127
C2    C     C_R   0.507135 0.745813 0.557210 0.852886
O5    O     O_R   0.426310 0.518390 0.622390 -0.598135
O6    O     O_R   0.573690 0.481610 0.377610 -0.611075
O7    O     O_R   0.409450 0.481550 0.377650 -0.537052
O8    O     O_R   0.590550 0.518450 0.622350 -0.545463
C3    C     C_R   0.390916 0.499826 0.500332 0.814214
C4    C     C_R   0.609079 0.500248 0.499695 0.785185
Cu1   Cu    Cu3+1 0.509980 0.521810 0.644910 1.038038
Cu2   Cu    Cu3+1 0.490020 0.478190 0.355090 1.038110
C5    C     C_R   0.882553 0.618233 0.531496 0.575802
C6    C     C_R   0.118243 0.384884 0.481092 0.574319
N1    N     N_R   0.852172 0.502910 0.503622 -0.475013
N2    N     N_R   0.148567 0.500076 0.508035 -0.475332
C7    C     C_R   0.878590 0.388599 0.481722 0.572832
C8    C     C_R   0.122763 0.615685 0.539382 0.572922
C9    C     C_R   0.938316 0.386445 0.485211 -0.065345
C10   C     C_R   0.063427 0.618690 0.542012 -0.064773
C11   C     C_R   0.970862 0.503790 0.514530 -0.048343
C12   C     C_R   0.031040 0.501694 0.515226 -0.047578
C13   C     C_R   0.943240 0.622770 0.542130 -0.126215
C14   C     C_R   0.058690 0.382776 0.488118 -0.129492
C15   C     C_R   0.965904 0.269587 0.461589 -0.166413
C16   C     C_R   0.036261 0.736460 0.572264 -0.168246
C17   C     C_R   0.025495 0.266553 0.465394 0.335665
C18   C     C_R   0.977123 0.740475 0.575664 0.337092
O9    O     O_2   0.853607 0.726716 0.545565 -0.453253
O10   O     O_2   0.145731 0.273310 0.444481 -0.451429
O11   O     O_2   0.846916 0.277224 0.455722 -0.500450
O12   O     O_2   0.154534 0.727238 0.566777 -0.495035
H1    H     H_    0.941339 0.179574 0.442963 0.238758
H2    H     H_    0.061220 0.827295 0.596943 0.237205
C19   C     C_R   0.229633 0.486967 0.372533 0.182992
C20   C     C_R   0.752657 0.484821 0.368077 0.194353
C21   C     C_R   0.289219 0.486951 0.372293 -0.155944
C22   C     C_R   0.693089 0.484361 0.368822 -0.177500
H3    H     H_    0.305031 0.477365 0.271595 0.197644
H4    H     H_    0.663501 0.471179 0.267638 0.183431
C23   C     C_R   0.328333 0.499590 0.501165 -0.096339
C24   C     C_R   0.671666 0.500841 0.499280 -0.090249
C25   C     C_R   0.307216 0.511938 0.630834 -0.181218
C26   C     C_R   0.710500 0.518094 0.629640 -0.181657
H5    H     H_    0.336328 0.521472 0.731613 0.200055
H6    H     H_    0.695239 0.531008 0.731756 0.205022
C27   C     C_R   0.248101 0.511822 0.631809 -0.113719
C28   C     C_R   0.769659 0.518761 0.629717 -0.126624
H7    H     H_    0.232327 0.521317 0.732470 0.162569
H8    H     H_    0.799179 0.532079 0.730963 0.161921
C29   C     C_R   0.209209 0.499635 0.503694 0.334996
C30   C     C_R   0.790991 0.502212 0.499956 0.338575
C31   C     C_2   0.504552 0.115590 0.417102 -0.317596
C32   C     C_2   0.515838 0.884864 0.583481 -0.307370
C33   C     C_2   0.536164 0.071245 0.516134 0.146515
C34   C     C_2   0.534271 0.930374 0.485137 0.146858
H9    H     H_    0.506562 0.952999 0.686684 0.153445
H10   H     H_    0.481549 0.046788 0.313959 0.157469
H11   H     H_    0.461800 0.419609 0.845038 0.161563
H12   H     H_    0.543351 0.565736 0.150753 0.157283
N3    N     N_2   0.475010 0.445410 0.137370 -0.067297
N4    N     N_2   0.524990 0.554590 0.862630 -0.067516
C35   C     C_2   0.506610 0.504292 0.078978 0.008384
C36   C     C_2   0.496366 0.487657 0.918602 0.024324
N5    N     N_R   0.576383 0.622907 0.945259 0.221995
O13   O     O_R   0.589158 0.736536 0.939681 -0.321164
O14   O     O_R   0.617449 0.561587 0.994169 -0.405784
N6    N     N_R   0.421992 0.384617 0.056577 0.226681
O15   O     O_R   0.403992 0.277592 0.070036 -0.310551
O16   O     O_R   0.384658 0.449616 0.001110 -0.394377
N7    N     N_R   0.051244 0.145331 0.451624 0.179078
O17   O     O_R   0.029826 0.039681 0.343796 -0.289583
O18   O     O_R   0.086872 0.135281 0.562391 -0.268684
N8    N     N_R   0.953316 0.865759 0.619798 0.170272
O19   O     O_R   0.964409 0.949363 0.558734 -0.290572
O20   O     O_R   0.932134 0.906260 0.741157 -0.273747
C37   C     C_3   0.188239 0.473403 0.233867 -0.758424
H13   H     H_    0.158605 0.385241 0.202825 0.251416
H14   H     H_    0.162543 0.560696 0.251839 0.248541
H15   H     H_    0.211178 0.463875 0.140596 0.238133
C38   C     C_3   0.775039 0.466670 0.227662 -0.767650
H16   H     H_    0.803080 0.553436 0.241419 0.251283
H17   H     H_    0.800478 0.378876 0.199814 0.244612
H18   H     H_    0.739365 0.453776 0.134075 0.244224
C39   C     C_3   0.553056 0.844524 0.344493 -0.722682
H19   H     H_    0.574850 0.903998 0.293958 0.242654
H20   H     H_    0.584367 0.775597 0.367597 0.228564
H21   H     H_    0.514900 0.790814 0.263363 0.233747
C40   C     C_3   0.573827 0.158278 0.656725 -0.725281
H22   H     H_    0.602028 0.099474 0.708319 0.228521
H23   H     H_    0.602397 0.226730 0.632906 0.233931
H24   H     H_    0.546759 0.213079 0.737582 0.237318

loop_
_geom_bond_atom_site_label_1
_geom_bond_atom_site_label_2
_geom_bond_distance
_ccdc_geom_bond_type
C39   H19   1.111006 S    
N3    C35   1.297537 D    
C20   C38   1.504622 S    
C15   C17   1.397039 A    
N7    O17   1.301104 A    
C34   C39   1.513409 S    
C21   H3    1.083771 S    
O5    C3    1.298599 A    
C19   C37   1.504971 S    
C28   C30   1.398540 A    
O1    C1    1.287709 A    
C7    C9    1.400257 A    
N8    O20   1.301315 A    
C5    C13   1.413928 A    
C17   N7    1.433877 S    
O4    Cu1   1.934357 S    
N2    C29   1.433710 S    
H11   C36   1.083545 S    
C27   H7    1.083212 S    
C28   H8    1.083059 S    
C11   C12   1.414673 A    
C3    C23   1.473311 S    
N6    O15   1.299768 A    
C22   C24   1.406099 A    
O7    C3    1.298231 A    
C8    O12   1.349909 S    
C22   H4    1.083657 S    
C9    C15   1.400825 A    
C10   C16   1.400881 A    
C31   H10   1.087324 S    
N7    O18   1.301326 A    
O2    C2    1.288834 A    
C24   C26   1.403979 A    
C25   H5    1.083243 S    
C9    C11   1.408491 A    
C6    C14   1.413807 A    
C26   H6    1.083151 S    
N5    O13   1.299707 A    
N4    N5    1.392806 S    
N8    O19   1.301035 A    
O4    C2    1.300087 A    
C7    O11   1.349915 S    
C2    C32   1.460951 S    
C40   H22   1.110984 S    
C37   H14   1.110241 S    
C21   C23   1.406264 A    
C15   H1    1.083758 S    
N5    O14   1.302460 A    
N4    C36   1.297704 D    
O7    Cu2   1.941723 S    
C40   H23   1.110901 S    
C18   N8    1.434067 S    
C38   H16   1.110095 S    
C20   C30   1.409282 A    
N3    N6    1.393149 S    
C25   C27   1.391979 A    
O6    C4    1.298617 A    
C23   C25   1.404343 A    
O3    Cu2   1.934357 S    
O8    C4    1.298060 A    
C38   H17   1.110227 S    
C8    C10   1.400292 A    
C31   C33   1.354978 D    
C10   C12   1.408478 A    
O1    Cu1   1.943854 S    
C13   C18   1.420290 A    
C5    N1    1.367321 A    
O6    Cu2   1.943829 S    
C33   C40   1.515160 S    
H12   C35   1.081613 S    
C1    C31   1.460056 S    
C12   C14   1.418608 A    
O3    C1    1.300718 A    
O8    Cu1   1.941728 S    
C37   H15   1.110896 S    
C5    O9    1.348099 S    
C6    O10   1.348125 S    
C26   C28   1.391304 A    
C32   H9    1.087342 S    
C16   C18   1.397209 A    
C19   C29   1.409244 A    
C19   C21   1.401871 A    
C40   H24   1.110000 S    
C20   C22   1.402247 A    
C33   C34   1.464064 S    
Cu1   N4    2.015302 S    
C27   C29   1.398991 A    
Cu2   N3    2.015302 S    
N1    C7    1.364708 A    
C32   C34   1.354303 D    
N2    C8    1.364776 A    
C11   C13   1.418596 A    
O2    Cu2   1.943854 S    
C37   H13   1.110340 S    
O5    Cu1   1.943829 S    
C38   H18   1.110912 S    
C16   H2    1.083838 S    
C14   C17   1.420157 A    
C6    N2    1.367319 A    
C35   C36   1.502260 S    
C39   H21   1.109381 S    
C39   H20   1.110819 S    
C4    C24   1.472733 S    
N6    O16   1.302520 A    
Cu1   Cu2   2.682719 S    
N1    C30   1.433662 S    
