data_mof_unit_20454.cif
_audit_creation_date              2012-12-11T16:09:00-0500
_audit_creation_method            fapswitch 2.2
_symmetry_space_group_name_H-M    P1
_symmetry_Int_Tables_number       1
_space_group_crystal_system       triclinic
_cell_length_a                    12.975232
_cell_length_b                    13.270937
_cell_length_c                    27.71158
_cell_angle_alpha                 94.787892
_cell_angle_beta                  90.317296
_cell_angle_gamma                 119.272402
_cell_volume                      4141.99852358

loop_
_atom_site_label
_atom_site_type_symbol
_atom_type_description
_atom_site_fract_x
_atom_site_fract_y
_atom_site_fract_z
_atom_type_partial_charge
C1    C     C_R   0.628007 0.894803 0.427718 0.546164
C2    C     C_R   0.115641 0.724574 0.306703 0.005263
C3    C     C_R   0.100751 0.710371 0.205429 0.014545
C4    C     C_R   0.601082 0.222156 0.440631 0.545697
C5    C     C_R   0.079041 0.612876 0.228607 -0.133627
C6    C     C_R   0.084009 0.619023 0.278783 -0.125521
C7    C     C_R   0.095746 0.703599 0.155354 -0.124664
C8    C     C_R   0.103466 0.795868 0.131264 -0.000333
C9    C     C_R   0.195712 0.941608 0.359846 -0.143460
C10   C     C_R   0.165907 0.929693 0.310324 -0.003493
C11   C     C_R   0.134146 0.822709 0.283241 0.037988
C12   C     C_R   0.601483 0.370586 0.232058 -0.087990
C13   C     C_R   0.175782 0.024090 0.286447 -0.003080
C14   C     C_R   0.161201 0.013275 0.235884 -0.134199
C15   C     C_R   0.138309 0.910191 0.208647 0.002729
C16   C     C_R   0.265329 0.874693 0.426788 0.546272
C17   C     C_R   0.123951 0.814426 0.232474 0.062532
C18   C     C_R   0.125978 0.899716 0.157955 -0.132988
C19   C     C_R   0.191955 0.848667 0.382035 -0.024248
C20   C     C_R   0.757664 0.928333 0.359745 -0.128189
C21   C     C_R   0.766072 0.917134 0.309986 0.009805
C22   C     C_R   0.772515 0.907048 0.209383 0.009882
C23   C     C_R   0.593051 0.359144 0.282026 0.160230
C24   C     C_R   0.866973 0.996823 0.238202 -0.129805
C25   C     C_R   0.864484 0.000932 0.288368 -0.128247
C26   C     C_R   0.776488 0.901185 0.159495 -0.125619
C27   C     C_R   0.690534 0.803548 0.130383 -0.003678
C28   C     C_R   0.627666 0.898422 0.564727 0.547200
C29   C     C_R   0.561139 0.758563 0.352752 -0.142268
C30   C     C_R   0.570036 0.743406 0.302810 0.008640
C31   C     C_R   0.670922 0.825844 0.281198 0.064862
C32   C     C_R   0.476984 0.652098 0.273729 -0.132747
C33   C     C_R   0.483861 0.642772 0.223401 -0.130179
C34   C     C_R   0.673384 0.335051 0.306385 0.060746
C35   C     C_R   0.582053 0.726815 0.201533 0.014370
C36   C     C_R   0.675143 0.819660 0.230690 0.063966
C37   C     C_R   0.591233 0.718177 0.151244 -0.135337
C38   C     C_R   0.652021 0.855090 0.380649 -0.006192
C39   C     C_R   0.742309 0.301770 0.651418 -0.129716
C40   C     C_R   0.603386 0.227711 0.578314 0.546790
C41   C     C_R   0.756384 0.325677 0.701883 0.017429
C42   C     C_R   0.771471 0.353675 0.803806 0.013963
C43   C     C_R   0.862253 0.348936 0.778195 -0.136356
C44   C     C_R   0.854055 0.333658 0.727506 -0.124007
C45   C     C_R   0.689292 0.360149 0.206625 0.016219
C46   C     C_R   0.779543 0.371943 0.854462 -0.133431
C47   C     C_R   0.688924 0.379563 0.879159 -0.004501
C48   C     C_R   0.561236 0.313903 0.652108 -0.111749
C49   C     C_R   0.570648 0.331541 0.702256 0.010050
C50   C     C_R   0.667202 0.335063 0.727428 0.060466
C51   C     C_R   0.480684 0.337893 0.727599 -0.116315
C52   C     C_R   0.271477 0.879190 0.563284 0.547362
C53   C     C_R   0.484058 0.343730 0.777871 -0.134378
C54   C     C_R   0.579637 0.347444 0.803235 0.006092
C55   C     C_R   0.672823 0.345246 0.778174 0.063164
C56   C     C_1   0.698506 0.377133 0.155822 -0.055736
C57   C     C_R   0.586060 0.359317 0.853416 -0.122874
C58   C     C_R   0.641099 0.289362 0.626889 -0.008210
C59   C     C_1   0.220089 0.861305 0.609597 0.004734
C60   C     C_R   0.146381 0.742427 0.721865 -0.119421
C61   C     C_R   0.134764 0.735750 0.771629 -0.120305
C62   C     C_R   0.159237 0.930283 0.781757 -0.003783
C63   C     C_R   0.170539 0.936827 0.731202 -0.001700
C64   C     C_1   0.635453 0.273410 0.395778 -0.005461
C65   C     C_R   0.164708 0.842379 0.701405 0.013104
C66   C     C_R   0.142305 0.829281 0.801853 0.013839
C67   C     C_1   0.656647 0.305661 0.355790 -0.024039
C68   C     C_1   0.124238 0.815758 0.852820 -0.040426
C69   C     C_1   0.189505 0.850776 0.650710 -0.036952
C70   C     C_1   0.100390 0.797822 0.894330 -0.002675
C71   C     C_1   0.649940 0.859591 0.608377 -0.000597
C72   C     C_R   0.775937 0.905470 0.727478 0.155105
C73   C     C_R   0.783513 0.887695 0.776587 -0.074517
C74   C     C_R   0.624634 0.689064 0.761833 -0.120913
C75   C     C_R   0.614262 0.704593 0.713026 -0.015670
C76   C     C_R   0.762476 0.326760 0.280873 -0.136672
C77   C     C_R   0.688479 0.813184 0.695797 0.030941
C78   C     C_1   0.706006 0.399727 0.114283 -0.014223
C79   C     C_R   0.707653 0.780985 0.793661 -0.006649
C80   C     C_1   0.716152 0.767435 0.844298 -0.051573
C81   C     C_1   0.667830 0.834719 0.647243 -0.033529
C82   C     C_1   0.728010 0.760087 0.886818 -0.006065
C83   C     C_R   0.060900 0.770077 0.080402 0.548821
C84   C     C_R   0.717403 0.441979 0.067519 0.548421
C85   C     C_R   0.721534 0.782355 0.081441 0.557581
C86   C     C_R   0.056422 0.766309 0.941226 0.541349
C87   C     C_R   0.710243 0.434303 0.928917 0.538405
C88   C     C_R   0.770833 0.339899 0.231246 -0.116869
C89   C     C_R   0.137023 0.736491 0.357072 -0.022532
C90   C     C_R   0.749243 0.753973 0.937055 0.563963
C91   C     C_1   0.200249 0.132778 0.312823 0.171047
C92   C     C_1   0.165461 0.026684 0.812862 0.186015
C93   C     C_1   0.188635 0.039940 0.709858 0.194364
C94   C     C_3   0.943418 0.109092 0.741239 -0.289330
C95   C     C_1   0.524814 0.608952 0.681439 0.190735
C96   C     C_3   0.533375 0.452961 0.347457 -0.270167
C97   C     C_1   0.107498 0.635343 0.382667 0.209143
Cr1   Cr    Cr6+3 0.416430 0.829200 0.492370 1.054806
Cr2   Cr    Cr6+3 0.674630 0.087020 0.504170 1.038052
Cr3   Cr    Cr6+3 0.408920 0.083740 0.503490 1.044017
Cr4   Cr    Cr6+3 0.914010 0.832750 0.013970 1.027400
Cr5   Cr    Cr6+3 0.922310 0.578600 0.003000 1.018471
Cr6   Cr    Cr6+3 0.656280 0.574630 0.003870 1.027269
H1    H     H_    0.824020 0.307632 0.299165 0.120831
H2    H     H_    0.398607 0.588548 0.289843 0.114287
H3    H     H_    0.840136 0.333318 0.212044 0.111071
H4    H     H_    0.479993 0.700700 0.369085 0.132516
H5    H     H_    0.858881 0.386989 0.874273 0.129955
H6    H     H_    0.805304 0.284894 0.631867 0.133183
H7    H     H_    0.938956 0.356114 0.797339 0.106939
H8    H     H_    0.923714 0.327748 0.708341 0.112742
H9    H     H_    0.514952 0.363648 0.872156 0.146881
H10   H     H_    0.412888 0.347054 0.796925 0.130170
H11   H     H_    0.406305 0.335421 0.708511 0.162573
H12   H     H_    0.169449 0.085996 0.217703 0.101524
H13   H     H_    0.484346 0.307324 0.633283 0.162704
H14   H     H_    0.142826 0.669894 0.699327 0.125995
H15   H     H_    0.539610 0.388112 0.213005 0.104799
H16   H     H_    0.119970 0.657165 0.786641 0.121260
H17   H     H_    0.847753 0.956377 0.802163 0.123992
H18   H     H_    0.566741 0.606104 0.775225 0.124470
H19   H     H_    0.076320 0.621962 0.135324 0.137346
H20   H     H_    0.058267 0.531644 0.207887 0.102074
H21   H     H_    0.068329 0.541985 0.295299 0.125493
H22   H     H_    0.129987 0.970328 0.139479 0.118071
H23   H     H_    0.232150 0.026075 0.380252 0.158199
H24   H     H_    0.875801 0.010685 0.674253 0.264543
H25   H     H_    0.992944 0.186014 0.720876 0.150730
H26   H     H_    0.006647 0.083111 0.754929 0.170441
H27   H     H_    0.903373 0.134276 0.771947 0.154569
H28   H     H_    0.431191 0.357229 0.284463 0.255818
H29   H     H_    0.491292 0.507042 0.342707 0.133025
H30   H     H_    0.630805 0.511397 0.351590 0.148227
H31   H     H_    0.501958 0.409742 0.381136 0.176759
H32   H     H_    0.853092 0.968551 0.143821 0.134371
H33   H     H_    0.828890 0.001589 0.381386 0.140448
H34   H     H_    0.942981 0.063351 0.221947 0.105676
H35   H     H_    0.937639 0.071564 0.310197 0.129765
H36   H     H_    0.524620 0.643018 0.128826 0.124378
H37   H     H_    0.411798 0.570990 0.201577 0.107161
N1    N     N_1   0.219379 0.219604 0.333991 -0.316500
N2    N     N_1   0.170490 0.103699 0.837696 -0.319283
N3    N     N_1   0.202680 0.121917 0.692622 -0.325567
N4    N     N_2   0.851961 0.015113 0.709479 -0.513985
N5    N     N_1   0.453189 0.532510 0.656059 -0.312923
N6    N     N_2   0.499596 0.365296 0.306579 -0.503243
N7    N     N_1   0.083725 0.554634 0.403010 -0.295513
O1    O     O_R   0.296680 0.802170 0.437540 -0.495509
O2    O     O_R   0.637200 0.461990 0.052510 -0.506705
O3    O     O_R   0.664790 0.681920 0.057970 -0.494534
O4    O     O_R   0.525380 0.838530 0.443500 -0.501966
O5    O     O_R   0.815840 0.852920 0.961840 -0.498553
O6    O     O_R   0.012100 0.822630 0.963670 -0.506178
O7    O     O_R   0.037010 0.668460 0.953040 -0.508172
O8    O     O_R   0.813390 0.478970 0.949660 -0.503342
O9    O     O_R   0.632250 0.456930 0.945520 -0.524957
O10   O     O_R   0.660200 0.677230 0.958780 -0.491180
O11   O     O_3   0.830870 0.661990 0.006950 -0.270079
O12   O     O_R   0.662610 0.183990 0.557860 -0.500683
O13   O     O_R   0.702130 0.995190 0.446810 -0.515903
O14   O     O_R   0.661770 0.181390 0.458760 -0.490958
O15   O     O_R   0.499820 0.198480 0.455280 -0.505312
O16   O     O_R   0.311660 0.976250 0.449080 -0.505521
O17   O     O_R   0.297580 0.804960 0.544440 -0.501162
O18   O     O_R   0.526220 0.841130 0.542590 -0.490121
O19   O     O_R   0.703030 0.997990 0.553710 -0.509537
O20   O     O_R   0.500730 0.201280 0.562180 -0.512305
O21   O     O_R   0.312500 0.978850 0.548170 -0.490505
O22   O     O_3   0.499990 0.999990 0.500010 -0.252194
O23   O     O_R   0.820790 0.857990 0.068830 -0.519496
O24   O     O_R   0.016700 0.827330 0.062850 -0.499718
O25   O     O_R   0.041970 0.673520 0.060040 -0.519167
O26   O     O_R   0.817980 0.483660 0.048840 -0.495020

loop_
_geom_bond_atom_site_label_1
_geom_bond_atom_site_label_2
_ccdc_geom_bond_type
C76   H1    S    
C15   C18   A    
C66   C68   S    
C63   C65   A    
Cr2   O12   S    
C61   H16   S    
C8    C83   S    
C40   O12   A    
C35   C36   A    
C95   N5    T    
C6    H21   S    
C62   C92   S    
Cr5   O11   S    
C75   C95   S    
C7    C8    A    
C39   C41   A    
C53   C54   A    
Cr5   O26   S    
C21   C31   A    
C12   C23   A    
C26   C27   A    
C72   C77   A    
Cr3   O20   S    
C35   C37   A    
C86   O6    A    
C3    C7    A    
C18   H22   S    
C30   C31   A    
C57   H9    S    
C33   H37   S    
C14   H12   S    
C56   C78   T    
H28   N6    S    
C15   C17   A    
C42   C46   A    
C27   C85   S    
C85   O3    A    
C40   O20   A    
C21   C25   A    
C26   H32   S    
Cr6   O3    S    
Cr2   O14   S    
Cr1   O22   S    
C61   C66   A    
C9    C19   A    
C45   C56   S    
C49   C51   A    
C46   H5    S    
C29   C38   A    
C3    C17   A    
C43   H7    S    
C77   C81   S    
C92   N2    T    
C9    C10   A    
Cr5   O7    S    
C93   N3    T    
C28   O19   A    
C48   H13   S    
Cr2   O19   S    
C84   O2    A    
C73   H17   S    
C13   C14   A    
C13   C91   S    
C97   N7    T    
C2    C6    A    
C2    C11   A    
C53   H10   S    
C88   H3    S    
Cr1   O4    S    
C16   O16   A    
Cr5   O25   S    
C23   N6    S    
C51   H11   S    
C40   C58   S    
C74   C75   A    
C62   C66   A    
C94   H26   S    
C64   C67   T    
Cr4   O23   S    
C45   C88   A    
C24   C25   A    
C72   C73   A    
C90   O5    A    
Cr6   O10   S    
C96   H31   S    
C39   C58   A    
C8    C18   A    
C76   C88   A    
C83   O24   A    
C60   C61   A    
C51   C53   A    
C47   C87   S    
Cr1   O18   S    
C2    C89   A    
C43   C44   A    
C29   C30   A    
C19   C89   A    
C52   C59   S    
C42   C55   A    
C47   C57   A    
C20   C38   A    
C14   C15   A    
Cr4   O6    S    
C23   C34   A    
C83   O25   A    
C62   C63   A    
C73   C79   A    
C60   H14   S    
C94   H27   S    
C20   H33   S    
C75   C77   A    
Cr3   O21   S    
C28   O18   A    
C52   O17   A    
C12   H15   S    
C1    C38   S    
C80   C82   T    
C48   C49   A    
C59   C69   T    
Cr4   O11   S    
C32   H2    S    
C22   C26   A    
C41   C44   A    
C22   C24   A    
C28   C71   S    
C42   C43   A    
C7    H19   S    
C84   O26   A    
C70   C86   S    
C41   C50   A    
C96   N6    S    
C72   N4    S    
C4    C64   S    
C54   C55   A    
C11   C17   A    
Cr3   O22   S    
C31   C36   A    
C1    O13   A    
C85   O23   A    
C12   C45   A    
C3    C5    A    
C10   C13   A    
C34   C67   S    
C60   C65   A    
Cr1   O17   S    
Cr6   O11   S    
C48   C58   A    
C96   H30   S    
Cr2   O22   S    
C87   O8    A    
C94   H25   S    
C24   H34   S    
C22   C36   A    
C5    H20   S    
Cr4   O5    S    
C9    H23   S    
C82   C90   S    
C96   H29   S    
C74   C79   A    
C94   N4    S    
C32   C33   A    
C90   O10   A    
C25   H35   S    
C86   O7    A    
C52   O21   A    
C30   C32   A    
C16   O1    A    
C5    C6    A    
Cr1   O1    S    
C27   C37   A    
C16   C19   S    
C65   C69   S    
C50   C55   A    
C33   C35   A    
C1    O4    A    
Cr3   O16   S    
C4    O15   A    
H24   N4    S    
C4    O14   A    
C46   C47   A    
C10   C11   A    
Cr6   O2    S    
C79   C80   S    
C44   H8    S    
C78   C84   S    
Cr6   O9    S    
C39   H6    S    
C74   H18   S    
C20   C21   A    
C68   C70   T    
C49   C50   A    
C37   H36   S    
C89   C97   S    
C87   O9    A    
C29   H4    S    
Cr4   O24   S    
Cr3   O15   S    
C91   N1    T    
C63   C93   S    
Cr2   O13   S    
Cr5   O8    S    
C34   C76   A    
C71   C81   T    
C54   C57   A    
