data_mof_unit_12548.cif
_audit_creation_date              2012-12-10T17:43:20-0500
_audit_creation_method            fapswitch 2.2
_symmetry_space_group_name_H-M    P1
_symmetry_Int_Tables_number       1
_space_group_crystal_system       triclinic
_cell_length_a                    15.108567
_cell_length_b                    13.707349
_cell_length_c                    10.629814
_cell_angle_alpha                 89.720803
_cell_angle_beta                  89.942019
_cell_angle_gamma                 90.592947
_cell_volume                      2201.27221818

loop_
_atom_site_label
_atom_site_type_symbol
_atom_type_description
_atom_site_fract_x
_atom_site_fract_y
_atom_site_fract_z
_atom_type_partial_charge
C1    C     C_R   0.328548 0.499372 0.498340 0.853037
C2    C     C_R   0.671305 0.500562 0.501656 0.854605
C3    C     C_R   0.953124 0.500178 0.501491 -0.041984
C4    C     C_R   0.046248 0.499153 0.499543 -0.042555
C5    C     C_R   0.904821 0.420554 0.451203 0.093185
C6    C     C_R   0.094553 0.580740 0.544298 0.092953
C7    C     C_R   0.957535 0.662441 0.594103 -0.306162
C8    C     C_R   0.041742 0.339663 0.399269 -0.303512
C9    C     C_R   0.050249 0.662864 0.590649 0.419170
C10   C     C_R   0.949052 0.340570 0.399005 0.417666
C11   C     C_R   0.441545 0.791927 0.573944 0.035185
C12   C     C_R   0.556792 0.208090 0.423461 0.040619
C13   C     C_R   0.558501 0.793789 0.426105 0.055836
C14   C     C_R   0.443177 0.206229 0.576488 0.047209
C15   C     C_R   0.561395 0.897301 0.424733 -0.038597
C16   C     C_R   0.441690 0.102727 0.580043 -0.036965
C17   C     C_R   0.438646 0.895341 0.575268 -0.035008
C18   C     C_R   0.558311 0.104662 0.419923 -0.034305
C19   C     C_R   0.500014 0.948276 0.499989 -0.006570
C20   C     C_R   0.500000 0.051741 0.499976 -0.008168
C21   C     C_R   0.623475 0.950290 0.349781 0.174649
C22   C     C_R   0.383248 0.049756 0.660683 0.179375
C23   C     C_R   0.376573 0.946327 0.650230 0.161604
C24   C     C_R   0.616827 0.053663 0.339355 0.174771
C25   C     C_R   0.500060 0.500262 0.259095 0.786250
C26   C     C_R   0.499982 0.499728 0.740901 0.785203
C27   C     C_3   0.501155 0.592879 0.039780 -0.135005
C28   C     C_3   0.498939 0.407044 0.960202 -0.136331
C29   C     C_3   0.573308 0.545754 0.957470 -0.158910
C30   C     C_3   0.426789 0.454170 0.042516 -0.157903
C31   C     C_3   0.427856 0.546184 0.957734 -0.174391
C32   C     C_3   0.572237 0.453737 0.042261 -0.175122
C33   C     C_3   0.500009 0.499155 0.877709 0.021861
C34   C     C_3   0.500081 0.500781 0.122282 0.020717
C35   C     C_R   0.812643 0.423025 0.451570 -0.286943
C36   C     C_R   0.186778 0.579491 0.540489 -0.286546
C37   C     C_R   0.767928 0.501871 0.503353 -0.144924
C38   C     C_R   0.231652 0.497865 0.496412 -0.146783
C39   C     C_R   0.814915 0.579851 0.558245 0.372989
C40   C     C_R   0.184386 0.415234 0.454014 0.371150
C41   C     C_R   0.908319 0.581121 0.552818 -0.013994
C42   C     C_R   0.091010 0.416963 0.451660 -0.011058
Cu1   Cu    Cu3+1 0.500000 0.597420 0.500000 0.960387
Cu2   Cu    Cu3+1 0.500000 0.402580 0.500000 0.959144
H1    H     H_    0.368850 0.583929 0.919871 0.134186
H2    H     H_    0.631231 0.415972 0.080136 0.134616
H3    H     H_    0.502107 0.669009 0.074997 0.141931
H4    H     H_    0.497968 0.330910 0.924985 0.140966
H5    H     H_    0.633209 0.583116 0.919408 0.142672
H6    H     H_    0.366889 0.416795 0.080549 0.150062
H7    H     H_    0.774839 0.363500 0.410633 0.212362
H8    H     H_    0.224448 0.641739 0.574382 0.211477
H9    H     H_    0.924690 0.727317 0.626766 0.153209
H10   H     H_    0.074470 0.278615 0.355907 0.154284
H11   H     H_    0.398159 0.748396 0.632937 0.140368
H12   H     H_    0.601555 0.251682 0.366673 0.142188
H13   H     H_    0.601918 0.751640 0.367221 0.143749
H14   H     H_    0.398389 0.248393 0.633219 0.144795
N1    N     N_R   0.500000 0.743810 0.500000 -0.192222
N2    N     N_R   0.500000 0.256190 0.500000 -0.191883
O1    O     O_R   0.370260 0.582280 0.500030 -0.607782
O2    O     O_R   0.629740 0.417720 0.499970 -0.607405
O3    O     O_R   0.629740 0.582280 0.499970 -0.531850
O4    O     O_R   0.370260 0.417720 0.500030 -0.533586
O5    O     O_R   0.499980 0.582260 0.316850 -0.598064
O6    O     O_R   0.500020 0.417740 0.683150 -0.598378
O7    O     O_R   0.500020 0.582260 0.683150 -0.580611
O8    O     O_R   0.499980 0.417740 0.316850 -0.581482
O9    O     O_3   0.767984 0.652242 0.617887 -0.726228
H15   H     H_    0.800049 0.670516 0.695613 0.312334
O10   O     O_3   0.230762 0.335451 0.411993 -0.721047
H16   H     H_    0.201997 0.276022 0.447103 0.314101
O11   O     O_3   0.098639 0.742784 0.631690 -0.759127
H17   H     H_    0.057649 0.793742 0.661599 0.323848
O12   O     O_3   0.900597 0.264272 0.348000 -0.757137
H18   H     H_    0.941574 0.214095 0.315926 0.323454
C43   C     C_3   0.698798 0.896578 0.286804 -0.876595
H19   H     H_    0.755537 0.944870 0.262399 0.249518
H20   H     H_    0.727376 0.842286 0.352690 0.238187
H21   H     H_    0.674369 0.859048 0.201083 0.225335
C44   C     C_3   0.331734 0.103638 0.760984 -0.889089
H22   H     H_    0.307861 0.055418 0.837990 0.248646
H23   H     H_    0.375446 0.157388 0.808934 0.218527
H24   H     H_    0.274882 0.141876 0.717633 0.232889
C45   C     C_3   0.301209 0.890422 0.713139 -0.851074
H25   H     H_    0.244451 0.937233 0.737483 0.250271
H26   H     H_    0.272703 0.835990 0.647206 0.249062
H27   H     H_    0.325574 0.852763 0.798867 0.225930
C46   C     C_3   0.668535 0.109554 0.239276 -0.872884
H28   H     H_    0.692464 0.062548 0.162225 0.246037
H29   H     H_    0.624945 0.162758 0.191273 0.218147
H30   H     H_    0.725361 0.148683 0.282830 0.257463

loop_
_geom_bond_atom_site_label_1
_geom_bond_atom_site_label_2
_ccdc_geom_bond_type
C40   O10   S    
C27   C29   S    
O11   H17   S    
Cu2   O6    S    
C19   C20   A    
Cu1   Cu2   S    
Cu1   O5    S    
C6    C9    A    
C44   H22   S    
Cu1   O3    S    
C39   C41   A    
C29   H5    S    
C45   H25   S    
Cu2   O4    S    
C15   C19   A    
C17   C23   A    
C18   C24   A    
C26   O7    A    
C35   C37   A    
C8    C42   A    
C29   C32   S    
C30   C31   S    
C43   H21   S    
C13   H13   S    
C29   C33   S    
C11   C17   A    
C31   C33   S    
C46   H29   S    
C36   H8    S    
Cu1   N1    S    
C25   C34   S    
C40   C42   A    
C30   H6    S    
C24   C46   S    
C28   H4    S    
C25   O8    A    
C9    O11   S    
C11   N1    A    
C44   H23   S    
C43   H20   S    
C27   C34   S    
C14   H14   S    
C30   C34   S    
C45   H26   S    
C27   C31   S    
C26   O6    A    
C22   C44   S    
C28   C32   S    
C25   O5    A    
C4    C6    A    
C8    H10   S    
Cu2   O2    S    
C43   H19   S    
C32   C34   S    
O12   H18   S    
C10   O12   S    
C26   C33   S    
C16   C20   A    
C39   O9    S    
C46   H30   S    
C12   H12   S    
C1    C38   S    
Cu1   O7    S    
C28   C33   S    
C13   C15   A    
C35   H7    S    
C14   C16   A    
Cu2   O8    S    
C7    H9    S    
C21   C43   S    
C3    C4    A    
C1    O4    A    
C44   H24   S    
C11   H11   S    
C2    O3    A    
Cu1   O1    S    
C45   H27   S    
C27   H3    S    
C7    C9    A    
C3    C41   A    
C16   C22   A    
C32   H2    S    
C3    C5    A    
C1    O1    A    
C13   N1    A    
C14   N2    A    
C28   C30   S    
C23   C45   S    
C5    C10   A    
C37   C39   A    
C38   C40   A    
C2    C37   S    
C4    C42   A    
Cu2   N2    S    
C5    C35   A    
C36   C38   A    
C17   C19   A    
C6    C36   A    
C18   C20   A    
C7    C41   A    
O9    H15   S    
C12   N2    A    
C15   C21   A    
O10   H16   S    
C8    C10   A    
C31   H1    S    
C21   C24   A    
C12   C18   A    
C22   C23   A    
C46   H28   S    
C2    O2    A    
