data_mof_unit_20772.cif
_audit_creation_date              2012-12-11T15:24:11-0500
_audit_creation_method            fapswitch 2.2
_symmetry_space_group_name_H-M    P1
_symmetry_Int_Tables_number       1
_space_group_crystal_system       triclinic
_cell_length_a                    8.235439
_cell_length_b                    14.327735
_cell_length_c                    19.04883
_cell_angle_alpha                 92.294304
_cell_angle_beta                  94.346032
_cell_angle_gamma                 91.062938
_cell_volume                      2238.88509069

loop_
_atom_site_label
_atom_site_type_symbol
_atom_type_description
_atom_site_fract_x
_atom_site_fract_y
_atom_site_fract_z
_atom_type_partial_charge
Ba1   Ba    Ba6+2 0.150350 0.545800 0.464500 1.644431
Ba2   Ba    Ba6+2 0.659830 0.454190 0.535450 1.653852
C1    C     C_3   0.334247 0.789628 0.190178 -0.359395
C2    C     C_3   0.361567 0.756748 0.264887 0.351210
C3    C     C_3   0.537794 0.734117 0.628956 0.272284
C4    C     C_3   0.475756 0.830902 0.617206 -0.342711
C5    C     C_3   0.905185 0.199711 0.712374 0.365627
C6    C     C_3   0.877597 0.106759 0.746242 0.231278
C7    C     C_3   0.436309 0.262611 0.739556 0.275763
C8    C     C_3   0.466398 0.244760 0.817955 -0.227265
C9    C     C_R   0.007558 0.939208 0.538105 0.001417
C10   C     C_R   0.820882 0.804220 0.498512 0.025746
C11   C     C_R   0.674459 0.774111 0.462370 -0.284210
C12   C     C_3   0.888808 0.803136 0.300621 0.335448
C13   C     C_R   0.566582 0.837269 0.432004 0.009827
C14   C     C_R   0.610963 0.931915 0.431043 -0.114672
C15   C     C_R   0.760697 0.965126 0.464385 -0.002408
C16   C     C_R   0.865036 0.902017 0.500676 -0.060165
C17   C     C_R   0.946302 0.098524 0.501050 -0.088357
C18   C     C_R   0.049441 0.035736 0.538771 -0.000726
C19   C     C_R   0.989178 0.196454 0.503385 0.025545
C20   C     C_R   0.131449 0.227550 0.542816 -0.357418
C21   C     C_R   0.239059 0.165080 0.574915 0.009611
C22   C     C_R   0.195248 0.070147 0.576008 0.400526
C23   C     C_3   0.901866 0.901565 0.274161 -0.338252
C24   C     C_R   0.803842 0.061119 0.463360 -0.009595
C25   C     C_R   0.604932 0.543857 0.298583 -0.283631
C26   C     C_R   0.460471 0.494477 0.278259 0.077123
C27   C     C_R   0.406288 0.485382 0.206504 -0.130550
C28   C     C_R   0.497404 0.525135 0.154947 -0.015388
C29   C     C_R   0.646521 0.571408 0.176468 -0.131102
C30   C     C_R   0.701207 0.578848 0.247885 0.016964
C31   C     C_R   0.451676 0.593361 0.035955 -0.135601
C32   C     C_R   0.394166 0.588089 0.964479 -0.020826
C33   C     C_R   0.332799 0.501231 0.933222 0.047870
C34   C     C_3   0.789091 0.343964 0.328641 0.351204
C35   C     C_R   0.321948 0.424427 0.976663 -0.110698
C36   C     C_R   0.373298 0.432083 0.048452 -0.070942
C37   C     C_R   0.440227 0.516416 0.078764 0.073099
C38   C     C_R   0.139417 0.439578 0.831693 -0.112089
C39   C     C_R   0.096338 0.427357 0.759097 0.025362
C40   C     C_R   0.340752 0.510391 0.733654 0.025895
C41   C     C_R   0.388059 0.520886 0.805779 -0.061230
C42   C     C_R   0.286312 0.487004 0.855949 0.019748
C43   C     C_R   0.199228 0.460570 0.710773 -0.303180
C44   C     C_3   0.761365 0.323041 0.249099 -0.201102
C45   C     C_3   0.005168 0.656599 0.672860 0.262153
C46   C     C_3   0.011494 0.680072 0.751511 -0.337858
C47   C     C_3   0.260761 0.255331 0.364033 0.267955
C48   C     C_3   0.193631 0.169300 0.319458 0.353827
H1    H     H_    0.291084 0.690454 0.268440 0.092163
H2    H     H_    0.715298 0.385832 0.223007 -0.063594
H3    H     H_    0.877963 0.306961 0.226484 0.141291
H4    H     H_    0.125782 0.633742 0.658416 0.024878
H5    H     H_    0.913827 0.599428 0.660389 0.077812
H6    H     H_    0.103496 0.736685 0.765578 0.174254
H7    H     H_    0.044148 0.617862 0.781665 0.100837
H8    H     H_    0.890445 0.703840 0.766121 0.108179
H9    H     H_    0.157015 0.295531 0.381654 -0.020223
H10   H     H_    0.203332 0.804538 0.177949 0.150515
H11   H     H_    0.117441 0.125819 0.351902 0.009542
H12   H     H_    0.298601 0.126189 0.304540 0.042025
H13   H     H_    0.493530 0.743919 0.275614 -0.061941
H14   H     H_    0.370824 0.734240 0.152476 0.070373
H15   H     H_    0.667826 0.739442 0.648067 0.032751
H16   H     H_    0.524542 0.694868 0.577236 0.033807
H17   H     H_    0.484598 0.870109 0.668499 0.109797
H18   H     H_    0.549311 0.867521 0.580047 0.063271
H19   H     H_    0.346848 0.826613 0.595682 0.168411
H20   H     H_    0.408487 0.854095 0.184196 0.113787
H21   H     H_    0.859728 0.952616 0.313895 0.091725
H22   H     H_    0.834239 0.198942 0.660318 0.079543
H23   H     H_    0.037064 0.208888 0.705022 -0.090018
H24   H     H_    0.961488 0.103933 0.794635 0.091034
H25   H     H_    0.751030 0.104115 0.763641 0.047581
H26   H     H_    0.303757 0.271774 0.726845 -0.061655
H27   H     H_    0.502662 0.328411 0.729796 0.095526
H28   H     H_    0.443827 0.310148 0.848751 0.069201
H29   H     H_    0.595431 0.226191 0.830489 0.098165
H30   H     H_    0.965201 0.800488 0.351115 0.091265
H31   H     H_    0.639396 0.700890 0.461370 0.070469
H32   H     H_    0.527254 0.979586 0.405486 0.132584
H33   H     H_    0.165286 0.300965 0.544099 0.073620
H34   H     H_    0.086044 0.893361 0.567891 0.124098
H35   H     H_    0.723918 0.106225 0.433353 0.148530
H36   H     H_    0.500777 0.558129 0.822643 0.072730
H37   H     H_    0.500458 0.659291 0.059091 0.050996
H38   H     H_    0.759444 0.788605 0.309939 -0.060807
H39   H     H_    0.294353 0.446580 0.191009 0.091971
H40   H     H_    0.275992 0.357366 0.954680 0.121913
H41   H     H_    0.364552 0.371136 0.079914 0.061199
H42   H     H_    0.056780 0.414978 0.868853 0.088738
H43   H     H_    0.722598 0.598696 0.137767 0.077293
H44   H     H_    0.163270 0.453452 0.654935 0.065008
H45   H     H_    0.648477 0.548866 0.353654 0.070392
H46   H     H_    0.030324 0.918972 0.265034 0.140597
H47   H     H_    0.824908 0.906997 0.224077 0.123285
H48   H     H_    0.673193 0.364087 0.349811 -0.025992
H49   H     H_    0.877990 0.403250 0.337277 0.040547
O1    O     O_2   0.108370 0.727470 0.525290 -0.455664
O2    O     O_3   0.358891 0.307772 0.322815 -0.661993
O3    O     O_3   0.944054 0.739145 0.250291 -0.600929
O4    O     O_2   0.701930 0.272470 0.474700 -0.458469
O5    O     O_3   0.944970 0.388780 0.468720 -0.499556
O6    O     O_3   0.463940 0.328280 0.598320 -0.498514
O7    O     O_3   0.848935 0.264740 0.361856 -0.599335
O8    O     O_3   0.372010 0.546630 0.581240 -0.472737
O9    O     O_3   0.877070 0.374860 0.631520 -0.489323
O10   O     O_2   0.764046 0.441949 0.751843 -0.490550
O11   O     O_3   0.851072 0.270683 0.757115 -0.627870
O12   O     O_3   0.865330 0.611210 0.531230 -0.493147
O13   O     O_3   0.438280 0.453360 0.418700 -0.500903
O14   O     O_2   0.627420 0.543410 0.667830 -0.467617
O15   O     O_3   0.450224 0.694691 0.681272 -0.626285
O16   O     O_2   0.580266 0.162428 0.569667 -0.439905
O17   O     O_3   0.495005 0.188469 0.698692 -0.628269
O18   O     O_3   0.346360 0.671710 0.401620 -0.488030
O19   O     O_2   0.231275 0.836365 0.441931 -0.478706
O20   O     O_3   0.963588 0.737318 0.637562 -0.651648
O21   O     O_3   0.307921 0.825467 0.311918 -0.602983
O22   O     O_2   0.182890 0.456530 0.332150 -0.459663
O23   O     O_3   0.933230 0.625130 0.368420 -0.490145
O24   O     O_2   0.038666 0.565350 0.246476 -0.486292
P1    P     P_3+3 0.937730 0.712710 0.546710 0.960265
P2    P     P_3+3 0.357970 0.428340 0.344000 0.973416
P3    P     P_3+3 0.904911 0.625888 0.276905 0.946977
P4    P     P_3+3 0.872570 0.287280 0.453240 0.986392
P5    P     P_3+3 0.897682 0.379125 0.724340 0.946401
P6    P     P_3+3 0.363335 0.793389 0.397901 0.960365
P7    P     P_3+3 0.445926 0.573663 0.668346 0.962016
P8    P     P_3+3 0.444189 0.208913 0.609725 0.999781
C49   C     C_2   0.641136 0.244188 0.231781 0.555124
H50   H     H_    0.519563 0.258890 0.209940 -0.023266
O25   O     O_2   0.678273 0.163651 0.242707 -0.556833
C50   C     C_2   0.363777 0.226987 0.427124 0.352940
H51   H     H_    0.403004 0.280384 0.466690 0.071254
O26   O     O_2   0.403789 0.146147 0.434828 -0.626478
O27   O     O_3   0.093820 0.198732 0.261148 -0.627503
C51   C     C_3   0.131476 0.150120 0.198480 0.203620
H52   H     H_    0.256085 0.170204 0.184389 0.034000
H53   H     H_    0.043678 0.170264 0.154871 0.068238
H54   H     H_    0.119898 0.072819 0.203236 0.028040
O28   O     O_3   0.914523 0.032398 0.699433 -0.693124
C52   C     C_3   0.776568 0.973349 0.683540 0.125006
H55   H     H_    0.812441 0.912565 0.651043 0.077276
H56   H     H_    0.679465 0.010605 0.652638 0.106263
H57   H     H_    0.730083 0.945665 0.732271 0.037632
C53   C     C_2   0.357211 0.167718 0.839423 0.477117
H58   H     H_    0.377777 0.096032 0.822635 -0.004055
O29   O     O_2   0.246176 0.184939 0.876598 -0.598528
O30   O     O_3   0.301079 0.010310 0.610160 -0.669929
C54   C     C_3   0.272970 0.011618 0.682495 0.176490
H59   H     H_    0.192866 0.951318 0.692878 0.100820
H60   H     H_    0.221015 0.077723 0.702791 0.042925
H61   H     H_    0.390919 0.004080 0.713589 0.044756
C55   C     C_2   0.393610 0.676661 0.926800 0.467336
H62   H     H_    0.477473 0.733245 0.945385 -0.005869
O31   O     O_2   0.294853 0.689666 0.877361 -0.602203

loop_
_geom_bond_atom_site_label_1
_geom_bond_atom_site_label_2
_ccdc_geom_bond_type
C4    H19   S    
C9    C16   A    
C44   H2    S    
C3    O15   S    
C25   H45   S    
C17   C18   A    
C27   H39   S    
C8    H28   S    
C46   H7    S    
C5    H23   S    
O16   P8    D    
O20   P1    S    
C8    H29   S    
O5    P4    S    
C2    H13   S    
Ba2   O13   S    
C31   C37   A    
C35   H40   S    
C15   C24   A    
C26   C27   A    
C17   C19   A    
C35   C36   A    
Ba1   P2    S    
C32   C33   A    
O8    P7    S    
Ba1   O13   S    
C44   C49   S    
C28   C29   A    
C51   H54   S    
C12   O3    S    
O28   C52   S    
C11   H31   S    
Ba2   O8    S    
O6    P8    S    
C50   O26   D    
Ba1   Ba2   S    
C30   P3    S    
C17   C24   A    
Ba1   O23   S    
C18   C22   A    
C49   H50   S    
C10   P1    S    
O2    P2    S    
C21   C22   A    
C34   C44   S    
C23   H21   S    
C7    H26   S    
C12   H30   S    
C19   P4    S    
O18   P6    S    
C7    C8    S    
Ba2   P4    S    
C4    H18   S    
C47   C50   S    
C19   C20   A    
O15   P7    S    
C39   P5    S    
C8    C53   S    
C52   H57   S    
C43   H44   S    
Ba1   O1    S    
C6    H24   S    
Ba2   O9    S    
C31   C32   A    
C36   C37   A    
C9    C18   A    
Ba2   O12   S    
O14   P7    D    
C2    H1    S    
C34   O7    S    
O21   P6    S    
C50   H51   S    
C1    H20   S    
C53   H58   S    
C52   H56   S    
C5    H22   S    
C14   C15   A    
O24   P3    D    
Ba1   O18   S    
C29   H43   S    
O7    P4    S    
C6    H25   S    
O9    P5    S    
O1    P1    D    
C40   C43   A    
O23   P3    S    
C41   C42   A    
O22   P2    D    
C27   C28   A    
C22   O30   S    
O10   P5    D    
C45   C46   S    
C13   P6    S    
C54   H61   S    
Ba2   O5    S    
O30   C54   S    
C14   H32   S    
C15   C16   A    
C21   P8    S    
C40   P7    S    
C7    H27   S    
C38   H42   S    
C33   C42   S    
Ba1   O5    S    
O13   P2    S    
Ba1   O8    S    
C45   H4    S    
C3    H15   S    
C38   C39   A    
C54   H60   S    
C11   C13   A    
C48   H12   S    
C6    O28   S    
C40   C41   A    
C1    C2    S    
O4    P4    D    
C26   P2    S    
C45   H5    S    
C23   H47   S    
C46   H6    S    
C55   H62   S    
C33   C35   A    
O12   P1    S    
C7    O17   S    
C29   C30   A    
C53   O29   D    
C3    H16   S    
O3    P3    S    
C51   H52   S    
C48   O27   S    
C46   H8    S    
C32   C55   S    
C9    H34   S    
Ba2   O6    S    
C47   H9    S    
C5    O11   S    
C52   H55   S    
C20   H33   S    
C55   O31   D    
C31   H37   S    
Ba1   P1    S    
C12   H38   S    
O19   P6    D    
C4    H17   S    
C1    H10   S    
C47   O2    S    
C51   H53   S    
C3    C4    S    
O17   P8    S    
Ba2   O4    S    
C24   H35   S    
C36   H41   S    
C44   H3    S    
C45   O20   S    
Ba2   O14   S    
C28   C37   S    
C34   H49   S    
C12   C23   S    
C1    H14   S    
Ba1   O22   S    
C41   H36   S    
C5    C6    S    
O27   C51   S    
C25   C30   A    
C38   C42   A    
C10   C11   A    
C23   H46   S    
C49   O25   D    
C47   C48   S    
C10   C16   A    
C25   C26   A    
C48   H11   S    
C39   C43   A    
C20   C21   A    
C2    O21   S    
C34   H48   S    
C54   H59   S    
Ba1   O12   S    
C13   C14   A    
O11   P5    S    
