data_mof_unit_66040.cif
_audit_creation_date              2013-03-05T16:32:33-0500
_audit_creation_method            fapswitch 2.2
_symmetry_space_group_name_H-M    P1
_symmetry_Int_Tables_number       1
_space_group_crystal_system       triclinic
_cell_length_a                    32.118789
_cell_length_b                    32.12046
_cell_length_c                    55.608678
_cell_angle_alpha                 90.004611
_cell_angle_beta                  89.999539
_cell_angle_gamma                 89.788233
_cell_volume                      57369.428212

loop_
_atom_site_label
_atom_site_type_symbol
_atom_site_description
_atom_site_fract_x
_atom_site_fract_y
_atom_site_fract_z
_atom_type_partial_charge
O1    O     O_R   0.060960 0.465600 0.500010 -0.594475
O2    O     O_R   0.534400 0.060960 0.500010 -0.608726
O3    O     O_R   0.939040 0.534400 0.500010 -0.594472
O4    O     O_R   0.465600 0.939040 0.500010 -0.608731
O5    O     O_R   0.060960 0.534400 0.499990 -0.608550
O6    O     O_R   0.534400 0.939040 0.499990 -0.594603
O7    O     O_R   0.939040 0.465600 0.499990 -0.608536
O8    O     O_R   0.465600 0.060960 0.499990 -0.594603
O9    O     O_R   0.560960 0.965600 0.000010 -0.594361
O10   O     O_R   0.034400 0.560960 0.000010 -0.599500
O11   O     O_R   0.439040 0.034400 0.000010 -0.594632
O12   O     O_R   0.965600 0.439040 0.000010 -0.608511
O13   O     O_R   0.560960 0.034400 0.999990 -0.608354
O14   O     O_R   0.034400 0.439040 0.999990 -0.594714
O15   O     O_R   0.439040 0.965600 0.999990 -0.608550
O16   O     O_R   0.965600 0.560960 0.999990 -0.599572
C1    C     C_R   0.080616 0.499912 0.500005 0.901382
C2    C     C_R   0.499912 0.080617 0.499996 0.901637
C3    C     C_R   0.919384 0.500088 0.500005 0.901347
C4    C     C_R   0.500088 0.919383 0.499996 0.901632
C5    C     C_R   0.580616 0.999912 0.000006 0.900987
C6    C     C_R   0.999929 0.580609 0.000001 0.897733
C7    C     C_R   0.419384 0.000088 0.000004 0.901594
C8    C     C_R   0.000088 0.419383 0.999996 0.901487
O17   O     O_R   0.999990 0.465600 0.464400 -0.585222
O18   O     O_R   0.534400 0.999990 0.464400 -0.584704
O19   O     O_R   0.000010 0.534400 0.464400 -0.585189
O20   O     O_R   0.465600 0.000010 0.464400 -0.584705
O21   O     O_R   0.999990 0.534400 0.535600 -0.584796
O22   O     O_R   0.534400 0.000010 0.535600 -0.585266
O23   O     O_R   0.000010 0.465600 0.535600 -0.584771
O24   O     O_R   0.465600 0.999990 0.535600 -0.585260
O25   O     O_R   0.499990 0.965600 0.964400 -0.584801
O26   O     O_R   0.034400 0.499990 0.964400 -0.582387
O27   O     O_R   0.500010 0.034400 0.964400 -0.585511
O28   O     O_R   0.965600 0.500010 0.964400 -0.586901
O29   O     O_R   0.499990 0.034400 0.035600 -0.584471
O30   O     O_R   0.034400 0.500010 0.035600 -0.585404
O31   O     O_R   0.500010 0.965600 0.035600 -0.584981
O32   O     O_R   0.965600 0.499990 0.035600 -0.584577
C9    C     C_R   0.000001 0.499998 0.452886 1.039315
C10   C     C_R   0.500000 0.000001 0.452885 1.043927
C11   C     C_R   0.000000 0.500001 0.547114 1.043930
C12   C     C_R   0.500000 0.000000 0.547114 1.039885
C13   C     C_R   0.499998 0.999998 0.952886 1.039270
C14   C     C_R   0.000001 0.500000 0.952885 1.040996
C15   C     C_R   0.500003 0.000002 0.047114 1.043812
C16   C     C_R   1.000000 0.499996 0.047114 1.039061
Zn1   Zn    Zn3+2 1.000000 0.454050 0.500000 1.134928
Zn2   Zn    Zn3+2 0.545950 0.000000 0.500000 1.134702
Zn3   Zn    Zn3+2 1.000000 0.545950 0.500000 1.134925
Zn4   Zn    Zn3+2 0.454050 0.000000 0.500000 1.134716
Zn5   Zn    Zn3+2 0.500000 0.954050 0.000000 1.135338
Zn6   Zn    Zn3+2 0.045950 0.500000 0.000000 1.141616
Zn7   Zn    Zn3+2 0.500000 0.045950 0.000000 1.135016
Zn8   Zn    Zn3+2 0.954050 0.500000 0.000000 1.131580
C17   C     C_R   0.029827 0.523465 0.262506 -0.094740
C18   C     C_R   0.476415 0.029946 0.262507 -0.094779
C19   C     C_R   0.970220 0.476413 0.262507 -0.094759
C20   C     C_R   0.523642 0.970128 0.262504 -0.094765
C21   C     C_R   0.029903 0.476332 0.737489 -0.094787
C22   C     C_R   0.476441 0.970201 0.737491 -0.094764
C23   C     C_R   0.970173 0.523671 0.737495 -0.094730
C24   C     C_R   0.523503 0.029799 0.737496 -0.094735
C25   C     C_R   0.529796 0.023496 0.762507 -0.094778
C26   C     C_R   0.976460 0.529934 0.762507 -0.094872
C27   C     C_R   0.470143 0.976502 0.762503 -0.094731
C28   C     C_R   0.023623 0.470067 0.762501 -0.094697
C29   C     C_R   0.529922 0.976402 0.237492 -0.094797
C30   C     C_R   0.976523 0.470113 0.237495 -0.094720
C31   C     C_R   0.470143 0.023679 0.237494 -0.094760
C32   C     C_R   0.023525 0.529759 0.237495 -0.094766
C33   C     C_R   0.000023 0.499942 0.275241 0.059750
C34   C     C_R   0.500026 0.000035 0.275239 0.059760
C35   C     C_R   0.000035 0.500001 0.724757 0.059751
C36   C     C_R   0.499974 0.000000 0.724759 0.059740
C37   C     C_R   0.499968 0.999998 0.775240 0.059738
C38   C     C_R   0.000044 0.500000 0.775238 0.059738
C39   C     C_R   0.500034 0.000041 0.224759 0.059762
C40   C     C_R   0.000023 0.499935 0.224760 0.059754
C41   C     C_R   0.065143 0.538655 0.275068 0.349316
C42   C     C_R   0.461119 0.065324 0.275071 0.349340
C43   C     C_R   0.934905 0.461227 0.275068 0.349310
C44   C     C_R   0.538934 0.934746 0.275063 0.349327
C45   C     C_R   0.065254 0.460971 0.724924 0.349349
C46   C     C_R   0.461248 0.934890 0.724927 0.349305
C47   C     C_R   0.934817 0.539032 0.724936 0.349302
C48   C     C_R   0.538699 0.065111 0.724937 0.349325
C49   C     C_R   0.565125 0.038649 0.775071 0.349264
C50   C     C_R   0.961207 0.565331 0.775071 0.349273
C51   C     C_R   0.434811 0.961348 0.775063 0.349342
C52   C     C_R   0.038882 0.434670 0.775060 0.349329
C53   C     C_R   0.565293 0.961080 0.224931 0.349331
C54   C     C_R   0.961364 0.434785 0.224933 0.349335
C55   C     C_R   0.434776 0.039005 0.224931 0.349334
C56   C     C_R   0.038683 0.565085 0.224934 0.349290
C57   C     C_R   0.065955 0.537923 0.300260 0.294801
C58   C     C_R   0.461841 0.066125 0.300264 0.294222
C59   C     C_R   0.934089 0.461972 0.300261 0.294816
C60   C     C_R   0.538201 0.933937 0.300256 0.294226
C61   C     C_R   0.066056 0.461699 0.699731 0.294307
C62   C     C_R   0.461989 0.934077 0.699734 0.294683
C63   C     C_R   0.934005 0.538305 0.699743 0.294343
C64   C     C_R   0.537966 0.065924 0.699744 0.294683
C65   C     C_R   0.565936 0.037909 0.800263 0.294922
C66   C     C_R   0.961939 0.566135 0.800264 0.294816
C67   C     C_R   0.433997 0.962084 0.800255 0.294626
C68   C     C_R   0.038154 0.433863 0.800253 0.294268
C69   C     C_R   0.566101 0.961808 0.199738 0.294376
C70   C     C_R   0.962101 0.433970 0.199741 0.294680
C71   C     C_R   0.433972 0.038278 0.199739 0.294241
C72   C     C_R   0.037940 0.565897 0.199741 0.294946
C73   C     C_R   0.032478 0.520087 0.313245 -0.203254
C74   C     C_R   0.479778 0.032569 0.313246 -0.203575
C75   C     C_R   0.967562 0.479819 0.313246 -0.203245
C76   C     C_R   0.520257 0.967488 0.313242 -0.203574
C77   C     C_R   0.032533 0.479703 0.686750 -0.203542
C78   C     C_R   0.479839 0.967547 0.686752 -0.203283
C79   C     C_R   0.967524 0.520302 0.686756 -0.203549
C80   C     C_R   0.520122 0.032453 0.686757 -0.203291
C81   C     C_R   0.532443 0.020099 0.813246 -0.203211
C82   C     C_R   0.979843 0.532561 0.813245 -0.203117
C83   C     C_R   0.467489 0.979892 0.813242 -0.203313
C84   C     C_R   0.020249 0.467434 0.813239 -0.203696
C85   C     C_R   0.532562 0.979775 0.186754 -0.203505
C86   C     C_R   0.979911 0.467459 0.186756 -0.203294
C87   C     C_R   0.467512 0.020308 0.186755 -0.203578
C88   C     C_R   0.020124 0.532408 0.186756 -0.203197
C89   C     C_R   0.000021 0.499949 0.300600 -0.114566
C90   C     C_R   0.500021 0.000031 0.300598 -0.114282
C91   C     C_R   0.000031 0.500002 0.699399 -0.114324
C92   C     C_R   0.499978 0.000000 0.699400 -0.114527
C93   C     C_R   0.499966 0.999996 0.800598 -0.114563
C94   C     C_R   0.000046 0.499998 0.800596 -0.114451
C95   C     C_R   0.500036 0.000042 0.199400 -0.114305
C96   C     C_R   0.000020 0.499934 0.199402 -0.114559
C97   C     C_R   0.030370 0.521295 0.338533 0.700600
C98   C     C_R   0.478572 0.030458 0.338533 0.700621
C99   C     C_R   0.969663 0.478631 0.338534 0.700598
C100  C     C_R   0.521451 0.969588 0.338530 0.700613
C101  C     C_R   0.030421 0.478510 0.661462 0.700623
C102  C     C_R   0.478646 0.969653 0.661463 0.700592
C103  C     C_R   0.969626 0.521497 0.661469 0.700620
C104  C     C_R   0.521325 0.030346 0.661469 0.700585
C105  C     C_R   0.530337 0.021297 0.838535 0.700539
C106  C     C_R   0.978642 0.530455 0.838532 0.700312
C107  C     C_R   0.469592 0.978688 0.838530 0.700652
C108  C     C_R   0.021449 0.469535 0.838528 0.700892
C109  C     C_R   0.530455 0.978573 0.161467 0.700594
C110  C     C_R   0.978705 0.469564 0.161468 0.700637
C111  C     C_R   0.469619 0.021502 0.161467 0.700639
C112  C     C_R   0.021318 0.530305 0.161468 0.700555
N1    N     N_R   0.000015 0.499968 0.350414 -0.316009
N2    N     N_R   0.500009 0.000021 0.350411 -0.316223
N3    N     N_R   0.000022 0.500004 0.649586 -0.316194
N4    N     N_R   0.499988 1.000000 0.649586 -0.316028
N5    N     N_R   0.499965 0.999991 0.850412 -0.316018
N6    N     N_R   0.000045 0.499993 0.850410 -0.316123
N7    N     N_R   0.500036 0.000035 0.149587 -0.316209
N8    N     N_R   0.000007 0.499936 0.149588 -0.316034
O33   O     O_2   0.057771 0.544035 0.351332 -0.448379
O34   O     O_2   0.455729 0.057941 0.351332 -0.445892
O35   O     O_2   0.942260 0.455900 0.351334 -0.448400
O36   O     O_2   0.544288 0.942101 0.351326 -0.445899
O37   O     O_2   0.057864 0.455622 0.648661 -0.446149
O38   O     O_2   0.455904 0.942258 0.648662 -0.448084
O39   O     O_2   0.942179 0.544386 0.648674 -0.446177
O40   O     O_2   0.544072 0.057741 0.648672 -0.448106
O41   O     O_2   0.557758 0.044008 0.851335 -0.448724
O42   O     O_2   0.955834 0.557965 0.851332 -0.448879
O43   O     O_2   0.442169 0.955975 0.851327 -0.447844
O44   O     O_2   0.044255 0.442021 0.851324 -0.445441
O45   O     O_2   0.557922 0.955709 0.148669 -0.446361
O46   O     O_2   0.955991 0.442143 0.148669 -0.447946
O47   O     O_2   0.442153 0.044364 0.148669 -0.445828
O48   O     O_2   0.044028 0.557726 0.148668 -0.448639
O49   O     O_R   0.500000 0.560980 0.479880 -0.602215
O50   O     O_R   0.439020 0.500000 0.479880 -0.603238
O51   O     O_R   0.500000 0.439020 0.479880 -0.602219
O52   O     O_R   0.560980 0.500000 0.479880 -0.603238
O53   O     O_R   0.500000 0.439020 0.520120 -0.603202
O54   O     O_R   0.439020 0.500000 0.520120 -0.602035
O55   O     O_R   0.500000 0.560980 0.520120 -0.603208
O56   O     O_R   0.560980 0.500000 0.520120 -0.602029
O57   O     O_R   1.000000 0.060980 0.979880 -0.602198
O58   O     O_R   0.939020 0.000000 0.979880 -0.603533
O59   O     O_R   1.000000 0.939020 0.979880 -0.602693
O60   O     O_R   0.060980 0.000000 0.979880 -0.603018
O61   O     O_R   1.000000 0.939020 0.020120 -0.602324
O62   O     O_R   0.939020 0.000000 0.020120 -0.602235
O63   O     O_R   0.000000 0.060980 0.020120 -0.603191
O64   O     O_R   0.060980 0.000000 0.020120 -0.601880
C113  C     C_R   0.499930 0.580492 0.500002 0.893580
C114  C     C_R   0.419508 0.500069 0.499999 0.893547
C115  C     C_R   0.500070 0.419508 0.500000 0.893582
C116  C     C_R   0.580492 0.499931 0.499999 0.893539
C117  C     C_R   0.999930 0.080492 0.000002 0.893633
C118  C     C_R   0.919508 0.000068 0.999999 0.892447
C119  C     C_R   0.000001 0.919516 0.999999 0.893409
C120  C     C_R   0.080492 0.999930 0.999999 0.894388
Zn9   Zn    Zn3+2 0.500000 0.500000 0.473170 1.080087
Zn10  Zn    Zn3+2 0.500000 0.500000 0.526830 1.080352
Zn11  Zn    Zn3+2 0.000000 0.000000 0.973170 1.079640
Zn12  Zn    Zn3+2 1.000000 0.000000 0.026830 1.080794
C121  C     C_R   0.972466 0.526449 0.388678 0.212555
C122  C     C_R   0.473674 0.972532 0.388675 0.214189
C123  C     C_R   0.027557 0.473514 0.388684 0.212555
C124  C     C_R   0.526332 0.027498 0.388682 0.214183
C125  C     C_R   0.972486 0.473720 0.611320 0.213971
C126  C     C_R   0.473539 0.027559 0.611319 0.212670
C127  C     C_R   0.027539 0.526288 0.611317 0.213972
C128  C     C_R   0.526449 0.972443 0.611318 0.212683
C129  C     C_R   0.472441 0.026471 0.888683 0.212584
C130  C     C_R   0.973665 0.472546 0.888672 0.213787
C131  C     C_R   0.527498 0.973501 0.888676 0.212622
C132  C     C_R   0.026402 0.527436 0.888681 0.212943
C133  C     C_R   0.472521 0.973714 0.111325 0.214134
C134  C     C_R   0.973501 0.527470 0.111328 0.212508
C135  C     C_R   0.527534 0.026323 0.111315 0.213824
C136  C     C_R   0.026488 0.472428 0.111313 0.212635
C137  C     C_R   0.973261 0.527283 0.414048 0.284409
C138  C     C_R   0.472844 0.973325 0.414044 0.289636
C139  C     C_R   0.026756 0.472696 0.414053 0.284444
C140  C     C_R   0.527159 0.026694 0.414051 0.289640
C141  C     C_R   0.973278 0.472890 0.585951 0.289453
C142  C     C_R   0.472717 0.026762 0.585950 0.284890
C143  C     C_R   0.026735 0.527118 0.585949 0.289452
C144  C     C_R   0.527278 0.973241 0.585949 0.284885
C145  C     C_R   0.473249 0.027300 0.914053 0.284989
C146  C     C_R   0.972823 0.473349 0.914041 0.289779
C147  C     C_R   0.526711 0.972680 0.914046 0.284084
C148  C     C_R   0.027212 0.526644 0.914050 0.284026
C149  C     C_R   0.473310 0.972877 0.085956 0.289595
C150  C     C_R   0.972677 0.526689 0.085959 0.283899
C151  C     C_R   0.526728 0.027143 0.085946 0.289378
C152  C     C_R   0.027313 0.473244 0.085944 0.285100
C153  C     C_R   0.000006 0.499993 0.426509 -0.212896
C154  C     C_R   0.500001 0.000007 0.426507 -0.210145
C155  C     C_R   0.000004 0.500004 0.573491 -0.210479
C156  C     C_R   0.499999 0.000001 0.573491 -0.212902
C157  C     C_R   0.499987 0.999994 0.926509 -0.212876
C158  C     C_R   0.000009 0.500001 0.926506 -0.211340
C159  C     C_R   0.500014 0.000007 0.073491 -0.210449
C160  C     C_R   0.999998 0.499978 0.073492 -0.212700
C161  C     C_R   0.000012 0.499977 0.376196 -0.009274
C162  C     C_R   0.500004 0.000017 0.376194 -0.010326
C163  C     C_R   0.000016 0.500004 0.623803 -0.010287
C164  C     C_R   0.499992 0.000000 0.623803 -0.009345
C165  C     C_R   0.499966 0.999986 0.876195 -0.009290
C166  C     C_R   0.000039 0.499989 0.876192 -0.009764
C167  C     C_R   0.500030 0.000024 0.123804 -0.010289
C168  C     C_R   0.999996 0.499942 0.123805 -0.009271
C169  C     C_R   0.271623 0.510671 0.521389 0.378619
C170  C     C_R   0.491472 0.271672 0.521517 0.378946
C171  C     C_R   0.728377 0.489214 0.521370 0.378617
C172  C     C_R   0.508511 0.728335 0.521524 0.378942
C173  C     C_R   0.271672 0.489777 0.478744 0.378897
C174  C     C_R   0.490978 0.728369 0.478379 0.378525
C175  C     C_R   0.728328 0.510341 0.478766 0.378896
C176  C     C_R   0.509026 0.271624 0.478374 0.378529
C177  C     C_R   0.771620 0.012218 0.021126 0.378720
C178  C     C_R   0.984585 0.771745 0.020346 0.379958
C179  C     C_R   0.228372 0.991067 0.021635 0.378795
C180  C     C_R   0.008399 0.228335 0.021540 0.379010
C181  C     C_R   0.771674 0.988134 0.979046 0.378663
C182  C     C_R   0.991082 0.228369 0.978366 0.378516
C183  C     C_R   0.228331 0.008406 0.978464 0.379188
C184  C     C_R   0.014307 0.771618 0.979477 0.379621
C185  C     C_R   0.293494 0.500897 0.499951 -0.202836
C186  C     C_R   0.500928 0.293495 0.500042 -0.202913
C187  C     C_R   0.706506 0.499105 0.499951 -0.202825
C188  C     C_R   0.499066 0.706505 0.500048 -0.202914
C189  C     C_R   0.793494 0.000843 0.999952 -0.202638
C190  C     C_R   0.999482 0.793545 0.999918 -0.201418
C191  C     C_R   0.206505 0.999057 0.999954 -0.202817
C192  C     C_R   0.999061 0.206505 0.000048 -0.202916
C193  C     C_R   0.228076 0.487934 0.479175 0.253794
C194  C     C_R   0.507063 0.228027 0.478218 0.254628
C195  C     C_R   0.771924 0.512182 0.479199 0.253803
C196  C     C_R   0.492943 0.771966 0.478222 0.254633
C197  C     C_R   0.228025 0.508721 0.521599 0.254614
C198  C     C_R   0.510389 0.771929 0.521143 0.253685
C199  C     C_R   0.771975 0.491163 0.521584 0.254624
C200  C     C_R   0.489596 0.228078 0.521137 0.253686
C201  C     C_R   0.728079 0.986335 0.979523 0.254004
C202  C     C_R   0.014340 0.727982 0.979618 0.255748
C203  C     C_R   0.271927 0.010290 0.978842 0.253743
C204  C     C_R   0.993049 0.271965 0.978212 0.254653
C205  C     C_R   0.728021 0.010291 0.021386 0.254615
C206  C     C_R   0.010280 0.271929 0.021162 0.253673
C207  C     C_R   0.271970 0.993037 0.021789 0.254686
C208  C     C_R   0.984655 0.728108 0.020238 0.255595
C209  C     C_R   0.206524 0.497520 0.500523 -0.282889
C210  C     C_R   0.497511 0.206525 0.499563 -0.282827
C211  C     C_R   0.793476 0.502479 0.500529 -0.282894
C212  C     C_R   0.502486 0.793474 0.499567 -0.282825
C213  C     C_R   0.706523 0.997523 0.000610 -0.282930
C214  C     C_R   0.999540 0.706497 0.999940 -0.287536
C215  C     C_R   0.293475 0.002486 0.000429 -0.282773
C216  C     C_R   0.002486 0.293474 0.999573 -0.282809
C217  C     C_1   0.338100 0.500683 0.499971 0.007990
C218  C     C_1   0.500701 0.338101 0.500023 0.007952
C219  C     C_1   0.661899 0.499318 0.499971 0.007992
C220  C     C_1   0.499295 0.661899 0.500030 0.007959
C221  C     C_1   0.838100 0.000649 0.999970 0.007758
C222  C     C_1   0.999696 0.838135 0.999964 0.006281
C223  C     C_1   0.161899 0.999289 0.999973 0.008368
C224  C     C_1   0.999292 0.161899 0.000030 0.007978
C225  C     C_1   0.161981 0.498755 0.500321 0.187237
C226  C     C_1   0.498751 0.161982 0.499732 0.187327
C227  C     C_1   0.838019 0.501244 0.500325 0.187241
C228  C     C_1   0.501248 0.838018 0.499735 0.187330
C229  C     C_1   0.661981 0.998758 0.000375 0.187275
C230  C     C_1   0.999652 0.661958 0.999969 0.190770
C231  C     C_1   0.338018 0.001248 0.000263 0.187510
C232  C     C_1   0.001248 0.338018 0.999739 0.187377
C233  C     C_1   0.124744 0.499560 0.500152 -0.038854
C234  C     C_1   0.499559 0.124746 0.499874 -0.038875
C235  C     C_1   0.875255 0.500440 0.500154 -0.038858
C236  C     C_1   0.500441 0.875254 0.499875 -0.038877
C237  C     C_1   0.624744 0.999561 0.000178 -0.038831
C238  C     C_1   0.999769 0.624723 0.999987 -0.036133
C239  C     C_1   0.375255 0.000441 0.000124 -0.038671
C240  C     C_1   0.000441 0.375254 0.999877 -0.038792
C241  C     C_1   0.375357 0.500390 0.499991 -0.132103
C242  C     C_1   0.500398 0.375357 0.500005 -0.132099
C243  C     C_1   0.624643 0.499611 0.499991 -0.132109
C244  C     C_1   0.499600 0.624643 0.500011 -0.132098
C245  C     C_1   0.875357 0.000373 0.999991 -0.132602
C246  C     C_1   0.999860 0.875381 0.999990 -0.132540
C247  C     C_1   0.124643 0.999597 0.999992 -0.131517
C248  C     C_1   0.999599 0.124643 0.000011 -0.132077
O65   O     O_3   0.101026 0.550942 0.263376 -0.626958
H1    H     H_    0.102822 0.536028 0.247815 0.365527
O66   O     O_3   0.448732 0.101266 0.263384 -0.626822
H2    H     H_    0.463648 0.103000 0.247825 0.365549
O67   O     O_3   0.899023 0.448932 0.263377 -0.626939
H3    H     H_    0.897226 0.463842 0.247815 0.365529
O68   O     O_3   0.551328 0.898809 0.263370 -0.626850
H4    H     H_    0.536416 0.897078 0.247810 0.365527
O69   O     O_3   0.101173 0.448512 0.736611 -0.626790
H5    H     H_    0.102936 0.463420 0.752172 0.365591
O70   O     O_3   0.448950 0.899010 0.736615 -0.626907
H6    H     H_    0.463863 0.897210 0.752177 0.365527
O71   O     O_3   0.898902 0.551491 0.736629 -0.626985
H7    H     H_    0.897144 0.536581 0.752188 0.365457
O72   O     O_3   0.550992 0.100990 0.736631 -0.626985
H8    H     H_    0.536076 0.102788 0.752191 0.365510
O73   O     O_3   0.601021 0.050905 0.763381 -0.627035
H9    H     H_    0.602806 0.035990 0.747819 0.365484
O74   O     O_3   0.948854 0.601284 0.763383 -0.626896
H10   H     H_    0.963767 0.602999 0.747822 0.365523
O75   O     O_3   0.398917 0.949094 0.763370 -0.626904
H11   H     H_    0.397136 0.964009 0.747809 0.365529
O76   O     O_3   0.051234 0.398718 0.763367 -0.626884
H12   H     H_    0.036316 0.397002 0.747808 0.365509
O77   O     O_3   0.601223 0.948660 0.236622 -0.626851
H13   H     H_    0.602965 0.963569 0.252182 0.365529
O78   O     O_3   0.949106 0.398894 0.236624 -0.626940
H14   H     H_    0.964021 0.397113 0.252186 0.365525
O79   O     O_3   0.398844 0.051426 0.236621 -0.626843
H15   H     H_    0.397096 0.036511 0.252179 0.365527
O80   O     O_3   0.050944 0.600977 0.236626 -0.626988
H16   H     H_    0.036029 0.602763 0.252187 0.365505
N9    N     N_R   0.102790 0.552316 0.312220 0.283545
O81   O     O_R   0.125986 0.526062 0.324039 -0.241666
O82   O     O_R   0.116717 0.589602 0.308024 -0.225065
N10   N     N_R   0.447336 0.103019 0.312228 0.283812
O83   O     O_R   0.473518 0.126086 0.324059 -0.240468
O84   O     O_R   0.410011 0.117116 0.308026 -0.223607
N11   N     N_R   0.897253 0.447583 0.312220 0.283545
O85   O     O_R   0.874050 0.473843 0.324032 -0.241688
O86   O     O_R   0.883333 0.410292 0.308029 -0.225044
N12   N     N_R   0.552702 0.897039 0.312214 0.283812
O87   O     O_R   0.526516 0.873965 0.324036 -0.240487
O88   O     O_R   0.590030 0.882945 0.308015 -0.223628
N13   N     N_R   0.102925 0.447127 0.687767 0.283778
O89   O     O_R   0.126046 0.473267 0.675942 -0.240661
O90   O     O_R   0.116950 0.409776 0.691963 -0.223801
N14   N     N_R   0.447593 0.897246 0.687771 0.283596
O91   O     O_R   0.473849 0.874045 0.675955 -0.241381
O92   O     O_R   0.410301 0.883329 0.691963 -0.224762
N15   N     N_R   0.897133 0.552878 0.687785 0.283757
O93   O     O_R   0.874007 0.526738 0.675961 -0.240799
O94   O     O_R   0.883109 0.590229 0.691988 -0.223952
N16   N     N_R   0.552364 0.102755 0.687787 0.283589
O95   O     O_R   0.526112 0.125954 0.675969 -0.241379
O96   O     O_R   0.589654 0.116675 0.691984 -0.224907
N17   N     N_R   0.602784 0.052264 0.812225 0.283493
O97   O     O_R   0.625956 0.025985 0.824040 -0.242135
O98   O     O_R   0.616744 0.089539 0.808034 -0.225323
N18   N     N_R   0.947479 0.603046 0.812227 0.283533
O99   O     O_R   0.973691 0.626087 0.824054 -0.242073
O100  O     O_R   0.910168 0.617185 0.808029 -0.224991
N19   N     N_R   0.397147 0.947728 0.812214 0.283627
O101  O     O_R   0.373975 0.974006 0.824032 -0.241201
O102  O     O_R   0.383186 0.910455 0.808015 -0.224513
N20   N     N_R   0.052619 0.396951 0.812211 0.283814
O103  O     O_R   0.026410 0.373904 0.824033 -0.240529
O104  O     O_R   0.089932 0.382819 0.808010 -0.223453
N21   N     N_R   0.602988 0.947275 0.187777 0.283744
O105  O     O_R   0.626081 0.973438 0.175951 -0.240893
O106  O     O_R   0.617055 0.909940 0.191977 -0.223874
N22   N     N_R   0.947742 0.397123 0.187780 0.283605
O107  O     O_R   0.974019 0.373950 0.175961 -0.241286
O108  O     O_R   0.910465 0.383165 0.191976 -0.224708
N23   N     N_R   0.397089 0.052814 0.187777 0.283815
O109  O     O_R   0.373991 0.026652 0.175951 -0.240448
O110  O     O_R   0.383028 0.090153 0.191978 -0.223573
N24   N     N_R   0.052299 0.602742 0.187782 0.283518
O111  O     O_R   0.026019 0.625920 0.175971 -0.242146
O112  O     O_R   0.089579 0.616695 0.191974 -0.225122
N25   N     N_R   0.943085 0.551454 0.375535 0.222584
O113  O     O_R   0.955464 0.575197 0.358002 -0.327785
O114  O     O_R   0.903484 0.548708 0.380182 -0.254665
N26   N     N_R   0.448810 0.943215 0.375530 0.222269
O115  O     O_R   0.425000 0.955654 0.357999 -0.328419
O116  O     O_R   0.451757 0.903608 0.380172 -0.253815
N27   N     N_R   0.056941 0.448501 0.375546 0.222579
O117  O     O_R   0.044567 0.424745 0.358015 -0.327787
O118  O     O_R   0.096542 0.451252 0.380195 -0.254618
N28   N     N_R   0.551199 0.056820 0.375546 0.222265
O119  O     O_R   0.575013 0.044388 0.358014 -0.328423
O120  O     O_R   0.548248 0.096425 0.380195 -0.253788
N29   N     N_R   0.943127 0.448903 0.624461 0.222302
O121  O     O_R   0.955528 0.425074 0.641991 -0.328376
O122  O     O_R   0.903523 0.451914 0.619818 -0.253481
N30   N     N_R   0.448541 0.056952 0.624460 0.222531
O123  O     O_R   0.424782 0.044587 0.641990 -0.327898
O124  O     O_R   0.451312 0.096549 0.619815 -0.254264
N31   N     N_R   0.056904 0.551105 0.624457 0.222306
O125  O     O_R   0.044512 0.574934 0.641992 -0.328341
O126  O     O_R   0.096506 0.548094 0.619806 -0.253441
N32   N     N_R   0.551443 0.943049 0.624458 0.222526
O127  O     O_R   0.575196 0.955413 0.641992 -0.327954
O128  O     O_R   0.548675 0.903452 0.619808 -0.254277
N33   N     N_R   0.443070 0.051498 0.875547 0.222516
O129  O     O_R   0.455456 0.075240 0.858015 -0.327990
O130  O     O_R   0.403469 0.048771 0.880197 -0.254087
N34   N     N_R   0.948767 0.443258 0.875527 0.222107
O131  O     O_R   0.924977 0.455723 0.857994 -0.329093
O132  O     O_R   0.951664 0.403648 0.880172 -0.253755
N35   N     N_R   0.556858 0.948469 0.875532 0.222626
O133  O     O_R   0.544458 0.924728 0.858001 -0.327634
O134  O     O_R   0.596463 0.951189 0.880175 -0.255308
N36   N     N_R   0.051320 0.556714 0.875544 0.222812
O135  O     O_R   0.075124 0.544237 0.858018 -0.326919
O136  O     O_R   0.048427 0.596326 0.880186 -0.255681
N37   N     N_R   0.443182 0.948879 0.124470 0.222271
O137  O     O_R   0.455603 0.925064 0.142002 -0.328427
O138  O     O_R   0.403575 0.951859 0.119828 -0.253676
N38   N     N_R   0.948462 0.556818 0.124477 0.222675
O139  O     O_R   0.924727 0.544408 0.142007 -0.327496
O140  O     O_R   0.951171 0.596422 0.119838 -0.255586
N39   N     N_R   0.556881 0.051167 0.124451 0.222367
O141  O     O_R   0.544470 0.074994 0.141982 -0.328139
O142  O     O_R   0.596485 0.048183 0.119801 -0.253238
N40   N     N_R   0.051522 0.443059 0.124446 0.222551
O143  O     O_R   0.075266 0.455444 0.141979 -0.327795
O144  O     O_R   0.048802 0.403461 0.119789 -0.254129
O145  O     O_3   0.948022 0.553787 0.427234 -0.679563
H17   H     H_    0.938037 0.576737 0.416842 0.395068
O146  O     O_3   0.446471 0.948145 0.427227 -0.684400
H18   H     H_    0.423561 0.938227 0.416836 0.392616
O147  O     O_3   0.051992 0.446202 0.427244 -0.679562
H19   H     H_    0.061980 0.423245 0.416856 0.395056
O148  O     O_3   0.553529 0.051870 0.427241 -0.684404
H20   H     H_    0.576440 0.061793 0.416854 0.392617
O149  O     O_3   0.948055 0.446560 0.572763 -0.683687
H21   H     H_    0.938096 0.423669 0.583153 0.392884
O150  O     O_3   0.446232 0.052012 0.572761 -0.679498
H22   H     H_    0.423281 0.062011 0.583151 0.394894
O151  O     O_3   0.051951 0.553448 0.572760 -0.683740
H23   H     H_    0.061915 0.576340 0.583150 0.392867
O152  O     O_3   0.553767 0.947992 0.572759 -0.679497
H24   H     H_    0.576715 0.937993 0.583150 0.394886
O153  O     O_3   0.448030 0.053814 0.927245 -0.679421
H25   H     H_    0.438052 0.076771 0.916855 0.394839
O154  O     O_3   0.946412 0.448207 0.927223 -0.684447
H26   H     H_    0.923494 0.438314 0.916829 0.392286
O155  O     O_3   0.551936 0.946166 0.927231 -0.679683
H27   H     H_    0.561899 0.923202 0.916839 0.395207
O156  O     O_3   0.053609 0.551792 0.927241 -0.679597
H28   H     H_    0.076539 0.561680 0.916856 0.395564
O157  O     O_3   0.448106 0.946523 0.072773 -0.684353
H29   H     H_    0.438167 0.923626 0.083165 0.392662
O158  O     O_3   0.946153 0.551909 0.072777 -0.679796
H30   H     H_    0.923185 0.561861 0.083170 0.395269
O159  O     O_3   0.551927 0.053485 0.072754 -0.683021
H31   H     H_    0.561876 0.076387 0.083141 0.393133
O160  O     O_3   0.053833 0.448037 0.072749 -0.679359
H32   H     H_    0.076794 0.438060 0.083137 0.394944
N41   N     N_R   0.205667 0.518428 0.543363 0.263369
O161  O     O_R   0.216217 0.550381 0.556366 -0.237336
O162  O     O_R   0.175732 0.494450 0.550790 -0.317846
N42   N     N_R   0.479803 0.205775 0.542879 0.260642
O163  O     O_R   0.496852 0.216339 0.563202 -0.233227
O164  O     O_R   0.452562 0.175885 0.542649 -0.316995
N43   N     N_R   0.794333 0.481337 0.543329 0.263360
O165  O     O_R   0.783783 0.449313 0.556271 -0.237445
O166  O     O_R   0.824268 0.505273 0.550801 -0.317815
N44   N     N_R   0.520172 0.794239 0.542887 0.260638
O167  O     O_R   0.503113 0.783682 0.563207 -0.233218
O168  O     O_R   0.547413 0.824129 0.542660 -0.316998
N45   N     N_R   0.205772 0.476459 0.457708 0.260679
O169  O     O_R   0.216337 0.491908 0.436963 -0.232891
O170  O     O_R   0.175881 0.449265 0.458645 -0.317491
N46   N     N_R   0.484950 0.794314 0.456228 0.263403
O171  O     O_R   0.454043 0.783762 0.442406 -0.236457
O172  O     O_R   0.509490 0.824240 0.449433 -0.318740
N47   N     N_R   0.794228 0.523773 0.457755 0.260679
O173  O     O_R   0.783663 0.508438 0.436981 -0.232870
O174  O     O_R   0.824119 0.550962 0.458744 -0.317541
N48   N     N_R   0.515068 0.205671 0.456226 0.263407
O175  O     O_R   0.545980 0.216220 0.442409 -0.236446
O176  O     O_R   0.490534 0.175741 0.449429 -0.318725
N49   N     N_R   0.705660 0.021627 0.042886 0.263323
O177  O     O_R   0.716213 0.054524 0.055077 -0.238189
O178  O     O_R   0.675715 0.998238 0.050904 -0.317057
N50   N     N_R   0.969343 0.705867 0.040902 0.261502
O179  O     O_R   0.980214 0.717121 0.062481 -0.229088
O180  O     O_R   0.942870 0.675618 0.038324 -0.323340
N51   N     N_R   0.294323 0.985144 0.043794 0.263418
O181  O     O_R   0.283776 0.954300 0.057660 -0.235846
O182  O     O_R   0.324249 0.009716 0.050553 -0.318820
N52   N     N_R   0.019954 0.294239 0.042922 0.260654
O183  O     O_R   0.002793 0.283683 0.063214 -0.233101
O184  O     O_R   0.047197 0.324128 0.042741 -0.316828
N53   N     N_R   0.705778 0.973260 0.958365 0.260609
O185  O     O_R   0.716350 0.987132 0.937252 -0.232885
O186  O     O_R   0.675882 0.946167 0.959985 -0.318308
N54   N     N_R   0.985167 0.294313 0.956205 0.263394
O187  O     O_R   0.954329 0.283762 0.942332 -0.236476
O188  O     O_R   0.009741 0.324238 0.949451 -0.318655
N55   N     N_R   0.294234 0.019977 0.957084 0.260667
O189  O     O_R   0.283675 0.002828 0.936789 -0.232761
O190  O     O_R   0.324124 0.047219 0.957272 -0.316960
N56   N     N_R   0.029677 0.705615 0.958963 0.261447
O191  O     O_R   0.018714 0.716848 0.937382 -0.229201
O192  O     O_R   0.056275 0.675282 0.961547 -0.323835
O193  O     O_3   0.291399 0.520999 0.542710 -0.650141
H33   H     H_    0.321647 0.524409 0.540219 0.359096
O194  O     O_3   0.482591 0.291492 0.543062 -0.650365
H34   H     H_    0.487697 0.321728 0.541859 0.360043
O195  O     O_3   0.708600 0.478769 0.542671 -0.650172
H35   H     H_    0.678353 0.475373 0.540173 0.359077
O196  O     O_3   0.517381 0.708522 0.543071 -0.650369
H36   H     H_    0.512270 0.678286 0.541869 0.360042
O197  O     O_3   0.291492 0.479226 0.457449 -0.650547
H37   H     H_    0.321733 0.484405 0.458519 0.359998
O198  O     O_3   0.482328 0.708587 0.456811 -0.650087
H38   H     H_    0.478709 0.678345 0.459212 0.359262
O199  O     O_3   0.708508 0.521009 0.457491 -0.650563
H39   H     H_    0.678267 0.515825 0.458551 0.359995
O200  O     O_3   0.517685 0.291398 0.456807 -0.650085
H40   H     H_    0.521296 0.321643 0.459207 0.359263
O201  O     O_3   0.791393 0.024137 0.042167 -0.650256
H41   H     H_    0.821646 0.027325 0.039597 0.358929
O202  O     O_3   0.968795 0.791530 0.040555 -0.651686
H42   H     H_    0.969768 0.822100 0.038760 0.359558
O203  O     O_3   0.208592 0.982513 0.043216 -0.649832
H43   H     H_    0.178349 0.978872 0.040819 0.359473
O204  O     O_3   0.017160 0.208522 0.043102 -0.650242
H44   H     H_    0.012050 0.178287 0.041891 0.360081
O205  O     O_3   0.791497 0.975984 0.958036 -0.651323
H45   H     H_    0.821743 0.981200 0.958980 0.359748
O206  O     O_3   0.982540 0.208586 0.956783 -0.650149
H46   H     H_    0.978905 0.178345 0.959179 0.359250
O207  O     O_3   0.208513 0.017177 0.956904 -0.650149
H47   H     H_    0.178278 0.012057 0.958113 0.360141
O208  O     O_3   0.030028 0.791270 0.959246 -0.652382
H48   H     H_    0.028207 0.821849 0.960817 0.359368

loop_
_geom_bond_atom_site_label_1
_geom_bond_atom_site_label_2
_geom_bond_distance
_ccdc_geom_bond_type
O206  H46   0.987831 S    
O77   H13   0.990653 S    
O25   C13   1.277051 A    
N29   O121  1.301025 A    
N8    C168  1.433736 S    
C80   C104  1.408394 A    
C48   O72   1.382096 S    
C187  C219  1.432692 S    
O67   H3    0.990659 S    
C129  C145  1.411237 A    
O51   C115  1.282470 A    
O201  H41   0.987827 S    
C25   C49   1.420081 A    
C180  O204  1.385894 S    
C183  C191  1.418206 A    
O49   C113  1.282465 A    
C208  N50   1.440630 S    
C147  C157  1.407512 A    
C146  O154  1.383573 S    
C29   C53   1.420083 A    
C18   C42   1.420085 A    
C193  N45   1.440805 S    
C58   C74   1.417852 A    
C31   C55   1.420089 A    
C139  O147  1.383592 S    
C123  C161  1.407821 A    
C57   N9    1.435196 S    
O199  H39   0.987827 S    
C175  O199  1.385912 S    
N23   O109  1.301364 A    
C149  C159  1.407498 A    
N2    C162  1.433725 S    
N23   O110  1.301097 A    
C107  O43   1.348800 S    
N43   O166  1.301411 A    
O3    C3    1.272160 A    
O54   C114  1.282455 A    
C45   O69   1.382098 S    
C19   C33   1.412165 A    
O52   C116  1.282353 A    
O20   Zn4   2.014124 S    
C85   C95   1.415824 A    
C86   C96   1.415834 A    
N25   O114  1.301238 A    
O25   Zn5   2.014160 S    
C74   C90   1.415824 A    
C68   C84   1.417848 A    
N10   O83   1.301363 A    
C169  C197  1.402008 A    
N32   O127  1.301024 A    
C67   N19   1.435197 S    
C178  C190  1.418545 A    
N44   O168  1.301404 A    
C25   C37   1.412162 A    
C8    C240  1.417446 S    
O204  H44   0.987829 S    
C44   C60   1.401364 A    
C51   C67   1.401373 A    
C196  N46   1.440773 S    
O56   Zn10  1.993827 S    
C117  C248  1.418161 S    
N18   O100  1.301097 A    
O52   Zn9   1.993833 S    
O17   C9    1.277046 A    
N49   O178  1.301410 A    
O149  H21   0.989221 S    
O10   C6    1.272388 A    
C138  O146  1.383572 S    
C137  C153  1.407497 A    
C130  N34   1.436762 S    
C105  N5    1.364297 A    
O76   H12   0.990654 S    
C204  C216  1.407725 A    
C97   N1    1.364294 A    
C98   O34   1.348799 S    
C38   C94   1.410153 A    
C151  C159  1.407517 A    
C21   C45   1.420084 A    
C120  C247  1.418081 S    
C47   C63   1.401364 A    
C75   C99   1.408404 A    
O26   Zn6   2.014130 S    
O7    C3    1.273020 A    
N41   O162  1.301412 A    
C59   N11   1.435195 S    
N17   O97   1.301360 A    
C141  C155  1.407496 A    
C73   C97   1.408391 A    
O193  H33   0.987832 S    
N15   O93   1.301363 A    
O27   C13   1.277060 A    
C132  C166  1.407797 A    
O198  H38   0.987832 S    
C134  N38   1.436762 S    
C190  C222  1.432286 S    
O31   C15   1.277052 A    
O32   C16   1.277008 A    
C145  O153  1.383589 S    
N36   O136  1.301238 A    
C55   O79   1.382096 S    
C122  C162  1.407805 A    
C179  C207  1.401994 A    
O195  H35   0.987829 S    
C19   C43   1.420081 A    
N5    C165  1.433736 S    
C54   O78   1.382096 S    
C142  O150  1.383591 S    
N3    C163  1.433714 S    
C121  C161  1.407825 A    
C173  O197  1.385913 S    
C137  O145  1.383589 S    
N26   O115  1.301024 A    
O18   Zn2   2.014130 S    
N7    C167  1.433720 S    
C192  C224  1.432764 S    
C64   N16   1.435198 S    
N9    O81   1.301361 A    
C200  N42   1.440773 S    
C97   O33   1.348801 S    
O62   Zn12  1.993836 S    
O6    C4    1.272139 A    
C216  C232  1.431199 S    
C195  C211  1.407734 A    
O11   C7    1.272157 A    
C28   C52   1.420089 A    
C170  C186  1.418224 A    
C82   C106  1.408372 A    
C124  C162  1.407804 A    
N35   O134  1.301239 A    
O66   H2    0.990655 S    
O4    C4    1.273003 A    
C60   N12   1.435204 S    
N54   O187  1.301331 A    
C232  C240  1.196262 T    
N50   O180  1.301374 A    
C184  C190  1.418538 A    
O78   H14   0.990655 S    
N39   O142  1.301236 A    
O5    Zn3   1.991451 S    
O57   C117  1.282465 A    
C140  C154  1.407521 A    
C150  C160  1.407511 A    
N14   O91   1.301363 A    
C170  C200  1.401935 A    
C15   C159  1.466812 S    
C123  C139  1.411225 A    
O73   H9    0.990656 S    
C125  N29   1.436764 S    
C175  C195  1.401898 A    
N27   O117  1.301026 A    
C27   C37   1.412158 A    
C126  C164  1.407830 A    
C128  C164  1.407827 A    
O9    C5    1.272165 A    
C188  C220  1.432767 S    
C31   C39   1.412163 A    
N21   O105  1.301361 A    
C10   C154  1.466840 S    
O7    Zn1   1.991454 S    
N31   O126  1.301239 A    
C140  O148  1.383573 S    
O205  H45   0.987820 S    
C51   O75   1.382096 S    
C22   C46   1.420082 A    
C180  C192  1.418221 A    
O23   C11   1.277038 A    
C124  N28   1.436760 S    
C42   O66   1.382095 S    
C56   O80   1.382097 S    
C223  C247  1.196635 T    
C144  C156  1.407492 A    
C80   C92   1.415832 A    
C126  N30   1.436763 S    
C184  O208  1.386193 S    
C181  O205  1.385916 S    
O60   C120  1.282357 A    
C194  C210  1.407725 A    
C205  N49   1.440783 S    
O14   C8    1.272139 A    
N12   O87   1.301365 A    
C82   C94   1.415825 A    
C5    C237  1.417370 S    
O2    Zn2   1.991547 S    
C197  C209  1.407737 A    
C52   C68   1.401371 A    
O24   Zn4   2.014130 S    
N31   O125  1.301031 A    
C199  C211  1.407732 A    
O154  H26   0.989220 S    
C71   N23   1.435204 S    
C79   C91   1.415829 A    
C129  C165  1.407819 A    
O26   C14   1.277004 A    
O29   C15   1.277044 A    
O8    Zn4   1.994242 S    
O30   C16   1.277020 A    
C181  C201  1.401888 A    
C133  N37   1.436760 S    
O61   C119  1.282322 A    
O64   C120  1.282449 A    
C183  C203  1.401907 A    
C171  O195  1.385902 S    
C128  N32   1.436763 S    
C126  C142  1.411227 A    
C12   C156  1.466768 S    
C48   C64   1.401375 A    
O19   Zn3   2.014101 S    
N53   O185  1.301344 A    
N12   O88   1.301098 A    
C201  N53   1.440790 S    
N45   O170  1.301400 A    
C222  C246  1.196407 T    
N40   O143  1.301024 A    
C135  C151  1.411215 A    
C206  C216  1.407726 A    
N22   O107  1.301365 A    
C139  C153  1.407503 A    
C182  C192  1.418254 A    
O49   Zn9   1.993901 S    
C180  C206  1.401938 A    
N37   O138  1.301237 A    
C183  O207  1.385898 S    
C227  C235  1.196215 T    
C111  N7    1.364296 A    
C104  N4    1.364296 A    
O16   Zn8   1.994242 S    
O157  H29   0.989221 S    
C146  C158  1.407537 A    
C102  O38   1.348799 S    
C103  N3    1.364295 A    
O194  H34   0.987830 S    
C200  C210  1.407724 A    
C103  O39   1.348799 S    
C66   C82   1.417849 A    
N42   O164  1.301401 A    
O155  H27   0.989223 S    
C76   C90   1.415828 A    
O6    Zn2   1.994245 S    
C219  C243  1.196636 T    
N24   O111  1.301364 A    
C56   C72   1.401362 A    
C70   C86   1.417862 A    
C181  C189  1.418230 A    
C179  C191  1.418244 A    
C174  C196  1.402023 A    
N28   O119  1.301031 A    
C11   C155  1.466779 S    
C169  O193  1.385904 S    
C29   C39   1.412162 A    
C173  C185  1.418232 A    
C171  C199  1.402011 A    
N47   O173  1.301348 A    
C46   C62   1.401374 A    
C175  C187  1.418229 A    
N30   O123  1.301028 A    
C18   C34   1.412168 A    
C131  C165  1.407823 A    
O21   Zn3   2.014160 S    
C6    C238  1.416959 S    
C1    C233  1.417368 S    
C174  O198  1.385890 S    
C2    C234  1.417445 S    
C3    C235  1.417368 S    
N38   O139  1.301024 A    
N51   O181  1.301329 A    
O24   C12   1.277000 A    
C106  N6    1.364294 A    
C127  N31   1.436760 S    
C124  C140  1.411212 A    
O12   C8    1.273003 A    
C101  O37   1.348799 S    
C84   C94   1.415827 A    
C102  N4    1.364296 A    
C118  C245  1.418081 S    
C99   O35   1.348795 S    
N48   O175  1.301329 A    
C32   C40   1.412162 A    
O13   C5    1.273019 A    
C185  C217  1.432692 S    
C36   C92   1.410164 A    
C198  C212  1.407729 A    
C23   C35   1.412161 A    
C20   C29   1.419886 A    
C122  C138  1.411220 A    
C196  C212  1.407725 A    
O58   Zn11  1.993830 S    
N52   O184  1.301402 A    
N55   O190  1.301403 A    
C176  C186  1.418256 A    
C77   C91   1.415823 A    
C17   C41   1.420079 A    
N13   O90   1.301096 A    
C78   C92   1.415830 A    
O29   Zn7   2.014160 S    
C182  C204  1.402024 A    
O208  H48   0.987615 S    
N37   O137  1.301027 A    
O50   Zn9   1.993830 S    
C49   C65   1.401371 A    
O158  H30   0.989222 S    
C206  N52   1.440773 S    
C43   C59   1.401378 A    
C133  C167  1.407813 A    
O13   Zn7   1.991451 S    
C98   N2    1.364295 A    
C57   C73   1.417861 A    
C100  O36   1.348801 S    
N33   O129  1.301027 A    
C143  O151  1.383578 S    
C144  O152  1.383590 S    
C53   C69   1.401366 A    
N46   O171  1.301332 A    
C4    C236  1.417447 S    
C119  C246  1.417664 S    
N25   O113  1.301029 A    
C113  C244  1.418161 S    
C42   C58   1.401366 A    
C208  C214  1.407781 A    
O196  H36   0.987832 S    
C60   C76   1.417845 A    
C67   C83   1.417862 A    
C16   C160  1.466818 S    
C115  C242  1.418160 S    
C135  N39   1.436764 S    
C214  C230  1.430580 S    
N10   O84   1.301096 A    
O75   H11   0.990656 S    
C45   C61   1.401368 A    
C26   C50   1.420080 A    
C9    C153  1.466790 S    
C194  N48   1.440773 S    
C173  C193  1.401899 A    
C182  O206  1.385890 S    
C84   C108  1.408384 A    
O18   C10   1.277023 A    
N56   O191  1.301334 A    
C110  N8    1.364293 A    
C83   C93   1.415828 A    
O65   H1    0.990654 S    
O15   Zn5   1.991454 S    
C134  C168  1.407823 A    
C30   C54   1.420082 A    
C87   C95   1.415823 A    
C88   C96   1.415831 A    
C59   C75   1.417864 A    
N49   O177  1.301349 A    
C32   C56   1.420078 A    
C18   C31   1.419889 A    
O5    C1    1.273020 A    
C99   N1    1.364297 A    
N11   O85   1.301359 A    
O59   Zn11  1.993963 S    
C202  N56   1.440618 S    
N34   O131  1.301023 A    
C131  N35   1.436765 S    
C46   O70   1.382094 S    
C69   N21   1.435203 S    
O51   Zn9   1.993963 S    
C169  C185  1.418272 A    
C205  C213  1.407720 A    
O32   Zn8   2.014130 S    
C177  C205  1.402019 A    
C23   C47   1.420087 A    
O80   H16   0.990656 S    
C228  C236  1.196260 T    
C174  C188  1.418258 A    
C209  C225  1.431115 S    
O22   Zn2   2.014124 S    
C23   C26   1.419878 A    
N39   O141  1.301030 A    
O14   Zn6   1.994245 S    
C135  C167  1.407813 A    
N41   O161  1.301355 A    
O21   C11   1.277046 A    
C49   O73   1.382096 S    
N29   O122  1.301239 A    
O22   C12   1.277000 A    
C43   O67   1.382094 S    
C125  C141  1.411213 A    
O23   Zn1   2.014101 S    
C122  N26   1.436764 S    
C35   C91   1.410153 A    
C33   C89   1.410164 A    
N33   O130  1.301238 A    
O61   Zn12  1.993904 S    
C28   C38   1.412163 A    
C79   C103  1.408374 A    
C26   C38   1.412164 A    
C105  O41   1.348796 S    
C142  C156  1.407490 A    
C217  C241  1.196636 T    
C111  O47   1.348801 S    
C50   C66   1.401357 A    
N4    C164  1.433736 S    
C121  N25   1.436762 S    
O72   H8    0.990658 S    
O3    Zn3   1.994148 S    
C101  N3    1.364295 A    
C171  C187  1.418268 A    
C78   C102  1.408401 A    
O56   C116  1.282456 A    
C30   C40   1.412157 A    
C54   C70   1.401379 A    
O8    C2    1.272139 A    
O146  H18   0.989221 S    
O59   C119  1.282269 A    
N26   O116  1.301242 A    
C77   C101  1.408382 A    
O200  H40   0.987833 S    
O153  H25   0.989215 S    
C204  N54   1.440768 S    
C147  O155  1.383591 S    
C145  C157  1.407514 A    
O68   H4    0.990657 S    
O30   Zn6   2.014124 S    
C197  N41   1.440788 S    
C143  C155  1.407497 A    
C27   C51   1.420084 A    
C220  C244  1.196678 T    
C50   O74   1.382098 S    
C170  O194  1.385898 S    
N20   O104  1.301099 A    
C73   C89   1.415832 A    
C74   C98   1.408382 A    
C195  N47   1.440797 S    
N54   O188  1.301399 A    
O50   C114  1.282354 A    
C131  C147  1.411230 A    
O9    Zn5   1.994145 S    
O63   Zn12  1.993960 S    
C14   C158  1.466885 S    
C133  C149  1.411217 A    
C130  C146  1.411217 A    
O11   Zn7   1.994148 S    
O62   C118  1.282455 A    
N14   O92   1.301096 A    
N44   O167  1.301337 A    
O16   C6    1.272498 A    
C201  C213  1.407729 A    
O54   Zn10  1.993836 S    
O55   Zn10  1.993960 S    
O1    C1    1.272160 A    
N6    C166  1.433725 S    
N18   O99   1.301363 A    
N19   O101  1.301361 A    
C39   C95   1.410158 A    
C40   C96   1.410164 A    
C172  C198  1.401936 A    
C61   C77   1.417852 A    
C24   C25   1.419896 A    
O57   Zn11  1.993901 S    
C47   O71   1.382095 S    
N16   O95   1.301360 A    
N53   O186  1.301397 A    
N1    C161  1.433731 S    
C132  N36   1.436761 S    
N51   O182  1.301402 A    
O31   Zn5   2.014101 S    
C70   N22   1.435196 S    
C66   N18   1.435204 S    
O55   C113  1.282383 A    
C178  C208  1.401659 A    
C17   C32   1.419890 A    
O53   C115  1.282377 A    
O17   Zn1   2.014160 S    
C72   C88   1.417862 A    
C230  C238  1.195998 T    
C19   C30   1.419898 A    
C128  C144  1.411236 A    
C150  O158  1.383588 S    
C41   O65   1.382099 S    
C203  C215  1.407713 A    
C123  N27   1.436762 S    
N17   O98   1.301097 A    
O58   C118  1.282354 A    
C55   C71   1.401364 A    
C177  O201  1.385905 S    
C24   C48   1.420081 A    
C198  N44   1.440770 S    
C64   C80   1.417860 A    
O70   H6    0.990654 S    
C112  N8    1.364293 A    
N36   O135  1.301027 A    
N47   O174  1.301398 A    
O2    C2    1.273003 A    
C20   C44   1.420088 A    
N16   O96   1.301099 A    
O53   Zn10  1.993904 S    
C21   C28   1.419889 A    
O150  H22   0.989217 S    
C151  O159  1.383579 S    
C152  O160  1.383586 S    
C186  C218  1.432764 S    
C141  O149  1.383574 S    
O69   H5    0.990654 S    
C21   C35   1.412169 A    
C172  C188  1.418217 A    
N45   O169  1.301348 A    
O197  H37   0.987830 S    
N55   O189  1.301331 A    
N40   O144  1.301239 A    
C22   C27   1.419903 A    
C104  O40   1.348799 S    
C116  C243  1.418086 S    
O28   Zn8   2.014124 S    
N22   O108  1.301095 A    
N9    O82   1.301099 A    
C177  C189  1.418276 A    
C127  C163  1.407817 A    
N43   O165  1.301356 A    
C106  O42   1.348802 S    
C176  C194  1.402028 A    
C65   N17   1.435198 S    
C88   C112  1.408396 A    
C121  C137  1.411238 A    
C231  C239  1.196214 T    
C225  C233  1.196215 T    
C211  C227  1.431116 S    
N50   O179  1.301335 A    
N11   O86   1.301098 A    
C149  O157  1.383576 S    
C130  C166  1.407800 A    
O160  H32   0.989217 S    
C176  O200  1.385888 S    
C207  C215  1.407714 A    
O159  H31   0.989218 S    
C125  C163  1.407816 A    
N24   O112  1.301097 A    
C62   C78   1.417861 A    
C215  C231  1.431122 S    
C87   C111  1.408380 A    
O15   C7    1.273022 A    
C44   O68   1.382097 S    
C127  C143  1.411214 A    
N28   O120  1.301234 A    
C37   C93   1.410169 A    
C68   N20   1.435200 S    
N21   O106  1.301098 A    
N30   O124  1.301236 A    
O4    Zn4   1.991550 S    
O64   Zn12  1.993827 S    
C114  C241  1.418086 S    
C218  C242  1.196678 T    
O27   Zn7   2.014101 S    
O148  H20   0.989219 S    
C136  N40   1.436763 S    
C134  C150  1.411235 A    
C148  O156  1.383591 S    
N38   O140  1.301236 A    
C189  C221  1.432688 S    
O152  H24   0.989218 S    
C129  N33   1.436763 S    
C226  C234  1.196262 T    
C212  C228  1.431197 S    
O151  H23   0.989221 S    
C138  C154  1.407522 A    
C172  O196  1.385899 S    
N27   O118  1.301238 A    
C52   O76   1.382097 S    
N48   O176  1.301401 A    
N15   O94   1.301097 A    
O145  H17   0.989220 S    
C191  C223  1.432686 S    
O19   C9    1.277048 A    
O202  H42   0.987613 S    
C210  C226  1.431194 S    
C148  C158  1.407560 A    
O147  H19   0.989218 S    
C24   C36   1.412159 A    
C65   C81   1.417859 A    
C108  N6    1.364294 A    
O28   C14   1.277065 A    
C109  N7    1.364293 A    
C179  O203  1.385884 S    
N13   O89   1.301365 A    
O12   Zn8   1.991550 S    
C85   C109  1.408381 A    
C69   C85   1.417850 A    
C110  O46   1.348795 S    
C83   C107  1.408404 A    
O203  H43   0.987835 S    
C34   C90   1.410153 A    
C71   C87   1.417846 A    
C81   C105  1.408401 A    
C53   O77   1.382095 S    
C107  N5    1.364296 A    
C13   C157  1.466812 S    
C203  N55   1.440772 S    
N46   O172  1.301399 A    
C75   C89   1.415827 A    
C7    C239  1.417367 S    
C86   C110  1.408404 A    
C22   C36   1.412163 A    
C184  C202  1.401612 A    
N52   O183  1.301331 A    
C17   C33   1.412157 A    
C136  C152  1.411238 A    
C63   C79   1.417845 A    
O63   C117  1.282383 A    
C229  C237  1.196218 T    
C224  C248  1.196678 T    
C199  N43   1.440788 S    
N32   O128  1.301236 A    
O79   H15   0.990653 S    
O60   Zn11  1.993833 S    
N56   O192  1.301372 A    
C81   C93   1.415828 A    
C152  C160  1.407518 A    
C136  C168  1.407811 A    
C213  C229  1.431121 S    
N35   O133  1.301026 A    
C108  O44   1.348800 S    
C72   N24   1.435199 S    
N19   O102  1.301096 A    
O74   H10   0.990660 S    
O207  H47   0.987829 S    
C41   C57   1.401368 A    
C62   N14   1.435202 S    
C20   C34   1.412163 A    
N42   O163  1.301331 A    
C132  C148  1.411223 A    
N34   O132  1.301241 A    
C109  O45   1.348800 S    
O10   Zn6   1.991547 S    
C58   N10   1.435200 S    
C178  O202  1.386199 S    
C112  O48   1.348797 S    
C193  C209  1.407739 A    
O156  H28   0.989219 S    
N20   O103  1.301365 A    
C202  C214  1.407778 A    
C221  C245  1.196638 T    
C207  N51   1.440769 S    
O71   H7    0.990655 S    
O1    Zn1   1.994145 S    
C63   N15   1.435205 S    
C61   N13   1.435202 S    
C100  N2    1.364292 A    
C76   C100  1.408379 A    
O20   C10   1.277023 A    
