data_mof_unit_29508.cif
_audit_creation_date              2013-03-05T16:04:29-0500
_audit_creation_method            fapswitch 2.2
_symmetry_space_group_name_H-M    P1
_symmetry_Int_Tables_number       1
_space_group_crystal_system       triclinic
_cell_length_a                    10.891234
_cell_length_b                    9.591791
_cell_length_c                    15.042514
_cell_angle_alpha                 89.966133
_cell_angle_beta                  92.063374
_cell_angle_gamma                 89.990409
_cell_volume                      1570.41868929

loop_
_atom_site_label
_atom_site_type_symbol
_atom_site_description
_atom_site_fract_x
_atom_site_fract_y
_atom_site_fract_z
_atom_type_partial_charge
O1    O     O_R   0.319640 0.618740 0.499990 -0.533591
O2    O     O_R   0.680360 0.381260 0.500010 -0.533595
O3    O     O_R   0.680360 0.618740 0.500010 -0.536014
O4    O     O_R   0.319640 0.381260 0.499990 -0.536022
C1    C     C_R   0.262707 0.500014 0.506598 0.956365
C2    C     C_R   0.737292 0.499986 0.493401 0.956366
O5    O     O_R   0.499970 0.618800 0.370260 -0.558668
O6    O     O_R   0.500030 0.381200 0.629740 -0.558667
O7    O     O_R   0.500030 0.618800 0.629740 -0.536731
O8    O     O_R   0.499970 0.381200 0.370260 -0.536726
C3    C     C_R   0.499100 0.500031 0.329339 0.915224
C4    C     C_R   0.500900 0.499969 0.670661 0.915223
Cu1   Cu    Cu3+1 0.500000 0.640660 0.500000 1.155221
Cu2   Cu    Cu3+1 0.500000 0.359340 0.500000 1.155220
C5    C     C_R   0.610845 0.482376 0.815617 0.287476
C6    C     C_R   0.389155 0.517619 0.184383 0.287476
C7    C     C_R   0.499962 0.500115 0.766975 -0.199893
C8    C     C_R   0.500038 0.499885 0.233025 -0.199890
C9    C     C_R   0.387962 0.516528 0.809101 0.334158
C10   C     C_R   0.612038 0.483473 0.190899 0.334161
C11   C     C_R   0.384895 0.506217 0.902990 -0.042667
C12   C     C_R   0.615105 0.493780 0.097010 -0.042668
C13   C     C_R   0.498856 0.498768 0.952863 -0.027285
C14   C     C_R   0.501144 0.501228 0.047137 -0.027286
C15   C     C_R   0.611023 0.489005 0.908733 -0.041032
C16   C     C_R   0.388976 0.510990 0.091267 -0.041032
C17   C     C_R   0.273917 0.503079 0.949771 0.431732
C18   C     C_R   0.726083 0.496915 0.050228 0.431733
C19   C     C_R   0.277680 0.507769 0.041952 -0.114680
C20   C     C_R   0.722319 0.492223 0.958048 -0.114681
H1    H     H_    0.191141 0.503459 0.075051 0.243755
H2    H     H_    0.808859 0.496530 0.924948 0.243753
C21   C     C_R   0.062891 0.372731 0.510010 0.350520
C22   C     C_R   0.937108 0.627269 0.489985 0.350524
C23   C     C_R   0.937208 0.372639 0.490425 0.362983
C24   C     C_R   0.062791 0.627361 0.509570 0.362982
C25   C     C_R   0.871749 0.499944 0.487878 -0.318892
C26   C     C_R   0.128250 0.500056 0.512119 -0.318893
C27   C     C_R   0.440060 0.074107 0.433329 0.320035
C28   C     C_R   0.559940 0.925893 0.566671 0.320034
C29   C     C_R   0.559869 0.073998 0.566674 0.316076
C30   C     C_R   0.440131 0.926002 0.433326 0.316081
N1    N     N_R   0.500000 0.852070 0.500000 -0.313321
N2    N     N_R   0.500000 0.147930 0.500000 -0.313323
N3    N     N_R   0.723163 0.459015 0.770174 0.128160
O9    O     O_R   0.759440 0.547275 0.710939 -0.300903
O10   O     O_R   0.789852 0.349425 0.788463 -0.221716
N4    N     N_R   0.276835 0.540975 0.229826 0.128162
O11   O     O_R   0.240563 0.452715 0.289062 -0.300906
O12   O     O_R   0.210140 0.650559 0.211534 -0.221720
Cl1   Cl    Cl    0.257845 0.562569 0.740809 -0.449643
Cl2   Cl    Cl    0.742156 0.437438 0.259192 -0.449643
Cl3   Cl    Cl    0.125556 0.476654 0.901327 -0.376347
Cl4   Cl    Cl    0.874445 0.523337 0.098672 -0.376345
Cl5   Cl    Cl    0.131133 0.211556 0.542664 -0.324339
Cl6   Cl    Cl    0.868866 0.788443 0.457329 -0.324336
Cl7   Cl    Cl    0.869178 0.211200 0.458280 -0.307375
Cl8   Cl    Cl    0.130821 0.788802 0.541712 -0.307376
N5    N     N_R   0.375973 0.145168 0.362179 0.181835
O13   O     O_R   0.259229 0.169698 0.368041 -0.208416
O14   O     O_R   0.423687 0.148287 0.284124 -0.268389
N6    N     N_R   0.624026 0.854831 0.637821 0.181835
O15   O     O_R   0.740763 0.830269 0.631950 -0.208426
O16   O     O_R   0.576324 0.851732 0.715880 -0.268383
N7    N     N_R   0.623317 0.145019 0.638009 0.178617
O17   O     O_R   0.576139 0.145945 0.716267 -0.271835
O18   O     O_R   0.739350 0.173218 0.631590 -0.210414
N8    N     N_R   0.376686 0.854982 0.361989 0.178621
O19   O     O_R   0.423861 0.854067 0.283731 -0.271834
O20   O     O_R   0.260665 0.826759 0.368408 -0.210424

loop_
_geom_bond_atom_site_label_1
_geom_bond_atom_site_label_2
_geom_bond_distance
_ccdc_geom_bond_type
C4    C7    1.449206 S    
C21   Cl5   1.776535 S    
O5    Cu1   1.962959 S    
O5    C3    1.295068 A    
C13   C14   1.417647 A    
C17   Cl3   1.766851 S    
C3    C8    1.449207 S    
C22   Cl6   1.776536 S    
N6    O15   1.299157 A    
C17   C19   1.386513 A    
C22   C25   1.413487 A    
Cu2   N2    2.027801 S    
C22   C24   1.389778 A    
C21   C26   1.413489 A    
O3    Cu1   1.975522 S    
C23   Cl7   1.776534 S    
O6    C4    1.295066 A    
O3    C2    1.302371 A    
C27   N5    1.429141 S    
C29   N2    1.373267 A    
C6    N4    1.440219 S    
C28   C29   1.420589 A    
C18   C20   1.386512 A    
C11   C17   1.420666 A    
C2    C25   1.469740 S    
N5    O13   1.299157 A    
C10   Cl2   1.775674 S    
C6    C8    1.399615 A    
C12   C18   1.420668 A    
N3    O9    1.300502 A    
C30   N8    1.428519 S    
O2    C2    1.302210 A    
C16   C19   1.398516 A    
O1    C1    1.302210 A    
N4    O12   1.301231 A    
N4    O11   1.300503 A    
C7    C9    1.403566 A    
C10   C12   1.417323 A    
C1    C26   1.469742 S    
C27   C30   1.420588 A    
C24   Cl8   1.776535 S    
C11   C13   1.428743 A    
O4    Cu2   1.975523 S    
C18   Cl4   1.766850 S    
O2    Cu2   1.975592 S    
O7    C4    1.294951 A    
C12   C14   1.428745 A    
N5    O14   1.301329 A    
C5    C15   1.402107 A    
C30   N1    1.373269 A    
C5    N3    1.440218 S    
C27   N2    1.373764 A    
C24   C26   1.413674 A    
C20   H2    1.082473 S    
C9    Cl1   1.775672 S    
O1    Cu1   1.975593 S    
Cu1   N1    2.027801 S    
C13   C15   1.414311 A    
C28   N6    1.429141 S    
C23   C25   1.413671 A    
C8    C10   1.403568 A    
C19   H1    1.082473 S    
N7    O17   1.301330 A    
O8    C3    1.294950 A    
N3    O10   1.301227 A    
C15   C20   1.398514 A    
C5    C7    1.399614 A    
N8    O20   1.299312 A    
O7    Cu1   1.962712 S    
C29   N7    1.428523 S    
N6    O16   1.301322 A    
O6    Cu2   1.962959 S    
C21   C23   1.389777 A    
Cu1   Cu2   2.698363 S    
N7    O18   1.299382 A    
N8    O19   1.301314 A    
C28   N1    1.373765 A    
C14   C16   1.414311 A    
O8    Cu2   1.962712 S    
O4    C1    1.302371 A    
C9    C11   1.417324 A    
C6    C16   1.402109 A    
