data_mof_unit_6888.cif
_audit_creation_date              2012-12-10T18:14:17-0500
_audit_creation_method            fapswitch 2.2
_symmetry_space_group_name_H-M    P1
_symmetry_Int_Tables_number       1
_space_group_crystal_system       triclinic
_cell_length_a                    12.619636
_cell_length_b                    13.113657
_cell_length_c                    19.106989
_cell_angle_alpha                 90.36925
_cell_angle_beta                  102.122613
_cell_angle_gamma                 82.943439
_cell_volume                      3067.46875595

loop_
_atom_site_label
_atom_site_type_symbol
_atom_type_description
_atom_site_fract_x
_atom_site_fract_y
_atom_site_fract_z
_atom_type_partial_charge
C1    C     C_R   0.439193 0.691060 0.489900 0.946328
C2    C     C_R   0.494786 0.568547 0.145715 0.013675
C3    C     C_R   0.689374 0.073759 0.432845 0.471547
C4    C     C_R   0.500687 0.499192 0.634548 0.835154
C5    C     C_R   0.596372 0.201197 0.498418 -0.131755
C6    C     C_R   0.306514 0.835850 0.508803 -0.212617
C7    C     C_R   0.281338 0.939809 0.519285 -0.134335
C8    C     C_R   0.353253 0.007623 0.509001 -0.167451
C9    C     C_R   0.449144 0.972781 0.483529 0.039092
C10   C     C_R   0.464123 0.870337 0.461389 0.036381
C11   C     C_R   0.529686 0.036759 0.478826 0.020212
C12   C     C_R   0.499309 0.508872 0.710645 -0.062616
C13   C     C_R   0.613361 0.005168 0.440735 -0.008007
C14   C     C_R   0.617960 0.907201 0.411204 -0.346075
C15   C     C_R   0.542667 0.840594 0.419430 0.445068
C16   C     C_R   0.560691 0.308903 0.506962 0.864714
C17   C     C_R   0.528790 0.131848 0.511651 -0.249416
C18   C     C_R   0.679960 0.171175 0.462193 -0.211259
C19   C     C_R   0.400103 0.800295 0.482846 -0.089323
C20   C     C_R   0.078419 0.361478 0.392895 -0.310336
C21   C     C_R   0.801048 0.626229 0.587114 0.024026
C22   C     C_R   0.904563 0.657866 0.603168 -0.243815
C23   C     C_R   0.494320 0.577344 0.069062 0.300196
C24   C     C_R   0.983795 0.616012 0.566685 -0.195946
C25   C     C_R   0.959251 0.542050 0.513749 0.021328
C26   C     C_R   0.852143 0.512396 0.499647 0.235090
C27   C     C_R   0.037160 0.492783 0.476523 -0.015349
C28   C     C_R   0.498747 0.502960 0.365278 0.916055
C29   C     C_R   0.003403 0.419354 0.424566 0.161023
C30   C     C_R   0.896910 0.395414 0.409600 -0.287877
C31   C     C_R   0.823805 0.438576 0.448640 -0.217997
C32   C     C_R   0.148479 0.508769 0.490658 -0.078306
C33   C     C_R   0.188941 0.366299 0.418121 0.269865
C34   C     C_R   0.491373 0.566972 0.927657 0.284016
C35   C     C_R   0.427430 0.460145 0.743721 0.095737
C36   C     C_R   0.421984 0.484573 0.814299 -0.193477
C37   C     C_R   0.490353 0.551054 0.852608 0.068186
C38   C     C_R   0.564495 0.594693 0.821093 -0.171038
C39   C     C_R   0.567926 0.574916 0.750364 -0.218251
C40   C     C_3   0.361294 0.377628 0.708459 -0.415364
C41   C     C_3   0.241144 0.420941 0.681334 -0.307143
C42   C     C_3   0.176550 0.340793 0.639692 -0.861663
C43   C     C_3   0.261997 0.269979 0.405203 -0.414147
C44   C     C_3   0.311199 0.276672 0.338721 -0.254408
C45   C     C_R   0.401207 0.538830 0.164863 -0.300181
C46   C     C_3   0.341432 0.170478 0.310042 -0.923121
C47   C     C_3   0.687484 0.625313 0.187114 -0.407108
C48   C     C_3   0.784495 0.541717 0.188587 -0.328270
C49   C     C_3   0.884008 0.587589 0.175188 -0.846640
C50   C     C_R   0.399677 0.516437 0.236132 0.448453
C51   C     C_R   0.495253 0.520360 0.288885 -0.089322
C52   C     C_R   0.588102 0.551603 0.269824 -0.302619
C53   C     C_R   0.588308 0.579343 0.199687 0.120689
H1    H     H_    0.680191 0.880422 0.381942 0.152283
H2    H     H_    0.738981 0.659435 0.614792 0.129077
H3    H     H_    0.062982 0.642464 0.580930 0.132409
H4    H     H_    0.923246 0.714842 0.643663 0.150996
H5    H     H_    0.746827 0.409704 0.439751 0.206602
H6    H     H_    0.618628 0.645211 0.851001 0.146038
H7    H     H_    0.623450 0.613020 0.726400 0.157327
H8    H     H_    0.328965 0.531150 0.124008 0.154642
H9    H     H_    0.661002 0.558534 0.310359 0.186608
H10   H     H_    0.732604 0.225856 0.451564 0.163210
H11   H     H_    0.210167 0.317066 0.591973 0.260068
H12   H     H_    0.472330 0.156552 0.545483 0.142938
H13   H     H_    0.180058 0.272192 0.674278 0.256478
H14   H     H_    0.089815 0.373885 0.621483 0.255892
H15   H     H_    0.203936 0.445534 0.727504 0.213440
H16   H     H_    0.235149 0.489272 0.646101 0.230395
H17   H     H_    0.396323 0.340893 0.664509 0.212203
H18   H     H_    0.366269 0.314549 0.748120 0.188550
H19   H     H_    0.740216 0.013602 0.351288 0.323899
H20   H     H_    0.598637 0.741064 0.355329 0.328127
H21   H     H_    0.400780 0.122799 0.351777 0.277299
H22   H     H_    0.267455 0.131128 0.292702 0.269037
H23   H     H_    0.255298 0.782827 0.523819 0.150900
H24   H     H_    0.379348 0.178539 0.263244 0.257274
H25   H     H_    0.251489 0.321850 0.295613 0.248895
H26   H     H_    0.386785 0.313317 0.352191 0.258909
H27   H     H_    0.321978 0.243148 0.453568 0.210921
H28   H     H_    0.212278 0.204614 0.397562 0.181611
H29   H     H_    0.246660 0.493173 0.211409 0.323947
H30   H     H_    0.865022 0.626201 0.121653 0.264952
H31   H     H_    0.909478 0.644127 0.216994 0.264197
H32   H     H_    0.952872 0.525496 0.177010 0.249553
H33   H     H_    0.806812 0.501453 0.241653 0.220557
H34   H     H_    0.330131 0.087045 0.519791 0.118416
H35   H     H_    0.762006 0.483997 0.147039 0.240317
H36   H     H_    0.669108 0.671411 0.136633 0.213733
H37   H     H_    0.710727 0.681124 0.230051 0.190481
H38   H     H_    0.208748 0.967334 0.538956 0.148198
H39   H     H_    0.871884 0.337533 0.370860 0.163654
H40   H     H_    0.051836 0.302739 0.355159 0.150199
H41   H     H_    0.367900 0.447946 0.840586 0.142274
H42   H     H_    0.179192 0.568315 0.525388 0.125147
N1    N     N_R   0.587396 0.553912 0.975859 -0.175044
N2    N     N_R   0.588582 0.557941 0.045362 -0.184420
N3    N     N_R   0.398241 0.591541 0.020365 -0.177205
N4    N     N_R   0.396672 0.585968 0.950750 -0.177342
N5    N     N_R   0.222200 0.444680 0.463280 -0.105937
N6    N     N_R   0.776960 0.554780 0.536340 -0.128389
O1    O     O_R   0.366740 0.627160 0.482470 -0.621906
O2    O     O_3   0.539714 0.749354 0.382777 -0.766174
O3    O     O_3   0.305928 0.491583 0.254812 -0.779512
O4    O     O_R   0.544830 0.662520 0.505920 -0.584737
O5    O     O_R   0.410920 0.482320 0.590130 -0.621058
O6    O     O_R   0.589010 0.517690 0.613590 -0.622580
O7    O     O_R   0.455170 0.337480 0.494080 -0.634443
O8    O     O_R   0.633260 0.372840 0.517530 -0.631964
O9    O     O_R   0.410990 0.482310 0.386410 -0.558857
O10   O     O_R   0.589080 0.517680 0.409870 -0.635075
O11   O     O_3   0.770175 0.051303 0.394469 -0.777870
Zn1   Zn    Zn3+2 0.381090 0.476390 0.484340 0.955359
Zn2   Zn    Zn3+2 0.618910 0.523610 0.515660 0.943907

loop_
_geom_bond_atom_site_label_1
_geom_bond_atom_site_label_2
_ccdc_geom_bond_type
C20   H40   S    
H19   O11   S    
C50   O3    S    
C40   H18   S    
C27   C29   A    
C34   C37   S    
C41   C42   S    
C35   C36   A    
C22   H4    S    
C7    C8    A    
C6    C19   A    
C29   C30   A    
C40   H17   S    
C31   H5    S    
C36   C37   A    
C34   N1    A    
C10   C15   A    
C26   N6    A    
C30   C31   A    
C28   C51   S    
C18   H10   S    
C5    C17   A    
C3    C18   A    
C5    C16   S    
C8    C9    A    
C48   H35   S    
C4    C12   S    
C9    C10   A    
C10   C19   A    
C3    C13   A    
C47   C53   S    
C21   N6    A    
C26   C31   A    
C2    C45   A    
C13   C14   A    
N6    Zn2   S    
C47   H36   S    
C46   H22   S    
C44   C46   S    
C16   O8    A    
C34   N4    A    
C41   H15   S    
C20   C29   A    
C28   O10   A    
C4    O6    A    
C1    C19   S    
O5    Zn1   S    
C51   C52   A    
C33   C43   S    
C49   H32   S    
O4    Zn2   S    
C24   C25   A    
C30   H39   S    
C21   H2    S    
C5    C18   A    
C28   O9    A    
C43   H27   S    
C4    O5    A    
C32   N5    A    
O7    Zn1   S    
C43   C44   S    
O6    Zn2   S    
C37   C38   A    
C47   C48   S    
C3    O11   S    
C7    H38   S    
N1    N2    A    
C32   H42   S    
C50   C51   A    
C12   C35   A    
C9    C11   A    
O9    Zn1   S    
O8    Zn2   S    
C20   C33   A    
C40   C41   S    
C14   H1    S    
C42   H14   S    
C43   H28   S    
C47   H37   S    
C22   C24   A    
C24   H3    S    
C42   H11   S    
C46   H21   S    
C52   C53   A    
C49   H31   S    
C41   H16   S    
C11   C17   A    
C23   N2    A    
C27   C32   A    
C44   H26   S    
N5    Zn1   S    
C2    C53   A    
C46   H24   S    
C6    H23   S    
C6    C7    A    
C25   C27   A    
C17   H12   S    
C8    H34   S    
C33   N5    A    
C12   C39   A    
C44   H25   S    
C35   C40   S    
C25   C26   A    
O1    Zn1   S    
C52   H9    S    
C11   C13   A    
C49   H30   S    
C38   C39   A    
C45   C50   A    
C48   C49   S    
C39   H7    S    
C45   H8    S    
O10   Zn2   S    
C48   H33   S    
C16   O7    A    
C38   H6    S    
C36   H41   S    
H20   O2    S    
C23   N3    A    
N3    N4    A    
C2    C23   S    
C42   H13   S    
H29   O3    S    
C14   C15   A    
C15   O2    S    
C21   C22   A    
C1    O1    A    
C1    O4    A    
