data_mof_unit_54224.cif
_audit_creation_date              2012-12-10T18:29:39-0500
_audit_creation_method            fapswitch 2.2
_symmetry_space_group_name_H-M    P1
_symmetry_Int_Tables_number       1
_space_group_crystal_system       triclinic
_cell_length_a                    11.56192
_cell_length_b                    15.016931
_cell_length_c                    15.48659
_cell_angle_alpha                 81.369594
_cell_angle_beta                  90.363131
_cell_angle_gamma                 104.959993
_cell_volume                      2566.82498833

loop_
_atom_site_label
_atom_site_type_symbol
_atom_type_description
_atom_site_fract_x
_atom_site_fract_y
_atom_site_fract_z
_atom_type_partial_charge
C1    C     C_R   0.476962 0.440847 0.662270 0.855111
C2    C     C_R   0.520611 0.559308 0.337726 0.857188
C3    C     C_R   0.345083 0.373275 0.926396 0.137811
C4    C     C_R   0.561660 0.655433 0.062979 0.141761
C5    C     C_R   0.466358 0.526990 0.949807 0.080146
C6    C     C_R   0.427970 0.505897 0.038856 0.081831
C7    C     C_R   0.338177 0.422569 0.067023 -0.230180
C8    C     C_R   0.535658 0.617993 0.917139 -0.228825
C9    C     C_R   0.296453 0.358074 0.011026 -0.224217
C10   C     C_R   0.581617 0.681515 0.973063 -0.228328
C11   C     C_R   0.672435 0.839693 0.646118 0.055565
C12   C     C_R   0.318519 0.154645 0.363507 0.070400
C13   C     C_R   0.653245 0.754528 0.612113 0.106772
C14   C     C_R   0.342132 0.242344 0.392236 0.090338
C15   C     C_R   0.509564 0.794716 0.514192 -0.113752
C16   C     C_R   0.492215 0.206209 0.485756 -0.108385
C17   C     C_R   0.542876 0.887230 0.531288 -0.021870
C18   C     C_R   0.458946 0.112847 0.470468 -0.038398
C19   C     C_R   0.613345 0.905926 0.604820 0.054163
C20   C     C_R   0.384569 0.091832 0.399650 0.080798
C21   C     C_R   0.501343 0.959851 0.481587 0.017030
C22   C     C_R   0.502844 0.041276 0.519435 0.014542
C23   C     C_R   0.718097 0.501268 0.500515 0.883779
C24   C     C_R   0.281957 0.498895 0.499125 0.881342
C25   C     C_R   0.546280 0.046767 0.605104 0.160114
C26   C     C_R   0.458694 0.955061 0.395450 0.146272
C27   C     C_R   0.616914 0.988302 0.638636 -0.212576
C28   C     C_R   0.385973 0.012431 0.362693 -0.206186
C29   C     C_1   0.839514 0.503487 0.500771 -0.155234
C30   C     C_1   0.160580 0.496820 0.498564 -0.158033
C31   C     C_1   0.941240 0.501927 0.500131 0.020654
C32   C     C_1   0.058876 0.498440 0.499058 0.022289
C33   C     C_R   0.440477 0.405215 0.754800 -0.092732
C34   C     C_R   0.535929 0.597989 0.244189 -0.076944
C35   C     C_R   0.305769 0.306420 0.871365 -0.232918
C36   C     C_R   0.624095 0.714039 0.119538 -0.242000
C37   C     C_R   0.349286 0.322321 0.784510 0.164330
C38   C     C_R   0.616124 0.685122 0.210184 0.166990
C39   C     C_R   0.485438 0.467129 0.813119 -0.290798
C40   C     C_R   0.470114 0.542282 0.187141 -0.303619
C41   C     C_R   0.432408 0.456845 0.895952 0.097255
C42   C     C_R   0.483063 0.568129 0.096588 0.096343
H1    H     H_    0.227103 0.295309 0.034571 0.149197
H2    H     H_    0.637626 0.749708 0.946060 0.150816
H3    H     H_    0.414237 0.475513 0.214967 0.146307
H4    H     H_    0.561242 0.525264 0.791529 0.144352
H5    H     H_    0.236639 0.243440 0.895022 0.134860
H6    H     H_    0.685461 0.779992 0.092439 0.131469
H7    H     H_    0.295702 0.406477 0.131265 0.141010
H8    H     H_    0.553707 0.642203 0.848179 0.145926
H9    H     H_    0.663952 0.003731 0.697192 0.144107
H10   H     H_    0.342426 0.000191 0.302140 0.164144
H11   H     H_    0.563650 0.230082 0.528785 0.150362
H12   H     H_    0.440012 0.772240 0.469333 0.150037
N1    N     N_R   0.566020 0.731700 0.552730 -0.146220
N2    N     N_R   0.433980 0.268300 0.447270 -0.139765
O1    O     O_R   0.466720 0.383110 0.605620 -0.616735
O2    O     O_R   0.533280 0.616890 0.394380 -0.616493
O3    O     O_R   0.509090 0.531900 0.639510 -0.636908
O4    O     O_R   0.490910 0.468100 0.360490 -0.634354
O5    O     O_R   0.644370 0.425610 0.483050 -0.610425
O6    O     O_R   0.355630 0.574390 0.516950 -0.608391
O7    O     O_R   0.686740 0.574390 0.516930 -0.589627
O8    O     O_R   0.313260 0.425610 0.483070 -0.594043
Zn1   Zn    Zn3+2 0.471710 0.400660 0.477370 0.940681
Zn2   Zn    Zn3+2 0.528290 0.599340 0.522630 0.942522
C43   C     C_3   0.508070 0.104625 0.666981 -0.435487
C44   C     C_3   0.455463 0.046487 0.754420 -0.862696
H13   H     H_    0.382659 0.985059 0.743252 0.270281
H14   H     H_    0.525265 0.022547 0.793839 0.251414
H15   H     H_    0.417563 0.089746 0.792803 0.243594
H16   H     H_    0.585666 0.162251 0.679088 0.204795
H17   H     H_    0.435288 0.133917 0.639213 0.212391
C45   C     C_3   0.499173 0.898959 0.332897 -0.431108
C46   C     C_3   0.553763 0.959184 0.246855 -0.859073
H18   H     H_    0.484941 0.984284 0.207242 0.252564
H19   H     H_    0.626227 0.019930 0.259992 0.270014
H20   H     H_    0.592513 0.917074 0.207694 0.242321
H21   H     H_    0.571209 0.868847 0.361061 0.212297
H22   H     H_    0.422212 0.841851 0.318792 0.206183
C47   C     C_3   0.702046 0.744956 0.265949 -0.416045
C48   C     C_3   0.802947 0.700641 0.296918 -0.790738
H23   H     H_    0.863534 0.745649 0.338075 0.256502
H24   H     H_    0.767022 0.630841 0.336170 0.249250
H25   H     H_    0.855623 0.693387 0.239844 0.247424
H26   H     H_    0.743887 0.814874 0.228126 0.193576
H27   H     H_    0.654790 0.758560 0.322258 0.230619
C49   C     C_3   0.289383 0.252650 0.726316 -0.426360
C50   C     C_3   0.187210 0.282792 0.677920 -0.770736
H28   H     H_    0.114075 0.280563 0.725013 0.240285
H29   H     H_    0.218954 0.354733 0.642290 0.257147
H30   H     H_    0.151164 0.234919 0.630371 0.259406
H31   H     H_    0.354361 0.241707 0.679974 0.229266
H32   H     H_    0.251880 0.182918 0.765912 0.193956
C51   C     C_2   0.266941 0.305964 0.363429 0.464318
H33   H     H_    0.302368 0.369446 0.318766 0.055254
O9    O     O_2   0.163051 0.287245 0.390202 -0.593830
C52   C     C_2   0.731403 0.692382 0.634448 0.518401
H34   H     H_    0.701502 0.628938 0.680786 0.038326
O10   O     O_2   0.831697 0.712276 0.600559 -0.582471
C53   C     C_3   0.748945 0.863524 0.725783 -0.428825
C54   C     C_3   0.812935 0.794612 0.774335 -0.868733
H35   H     H_    0.749675 0.725701 0.795941 0.235287
H36   H     H_    0.851866 0.821505 0.834058 0.242499
H37   H     H_    0.888724 0.788669 0.734080 0.297411
H38   H     H_    0.818701 0.929805 0.705218 0.221716
H39   H     H_    0.688897 0.875525 0.776133 0.202174
C55   C     C_3   0.226386 0.130269 0.294025 -0.415140
C56   C     C_3   0.282828 0.166286 0.202442 -0.897850
H40   H     H_    0.214302 0.147903 0.153023 0.250459
H41   H     H_    0.357386 0.134731 0.191605 0.264995
H42   H     H_    0.318128 0.243288 0.193497 0.256012
H43   H     H_    0.185173 0.054046 0.301244 0.203941
H44   H     H_    0.149109 0.159724 0.301353 0.244355

loop_
_geom_bond_atom_site_label_1
_geom_bond_atom_site_label_2
_ccdc_geom_bond_type
C53   H39   S    
C14   N2    A    
C21   C26   A    
C4    C36   A    
C53   C54   S    
C28   H10   S    
C37   C49   S    
C51   H33   S    
C25   C43   S    
C35   H5    S    
C47   C48   S    
C1    C33   S    
C39   C41   A    
C11   C19   A    
C33   C39   A    
C34   C40   A    
C23   C29   S    
C35   C37   A    
C56   H41   S    
O3    Zn2   S    
C5    C6    A    
C2    O4    A    
C23   O7    A    
N2    Zn1   S    
C55   C56   S    
C54   H37   S    
C15   C17   A    
C43   H16   S    
C55   H44   S    
C13   C52   S    
C16   H11   S    
C17   C19   A    
O2    Zn2   S    
C44   H13   S    
C22   C25   A    
C43   H17   S    
C50   H29   S    
C19   C27   A    
C47   H26   S    
C2    C34   S    
C40   C42   A    
O7    Zn2   S    
C24   O8    A    
C45   H22   S    
C21   C22   A    
C27   H9    S    
C24   C30   S    
C40   H3    S    
C49   H32   S    
C9    H1    S    
C45   C46   S    
O6    Zn2   S    
C10   H2    S    
C43   C44   S    
C15   H12   S    
C7    H7    S    
C56   H42   S    
C12   C55   S    
C34   C38   A    
C20   C28   A    
C17   C21   A    
C15   N1    A    
C55   H43   S    
C46   H18   S    
C16   N2    A    
C3    C9    A    
C1    O1    A    
C31   C32   S    
C3    C35   A    
C12   C20   A    
C51   O9    D    
C11   C53   S    
C16   C18   A    
C50   H30   S    
C54   H36   S    
C46   H19   S    
C47   H27   S    
C39   H4    S    
C8    C10   A    
C12   C14   A    
O4    Zn1   S    
C52   H34   S    
C48   H24   S    
C45   H21   S    
C38   C47   S    
C4    C10   A    
C8    H8    S    
C14   C51   S    
N1    Zn2   S    
C53   H38   S    
C7    C9    A    
C5    C41   A    
C49   H31   S    
C3    C41   A    
C24   O6    A    
C18   C22   A    
C26   C28   A    
O1    Zn1   S    
C5    C8    A    
C2    O2    A    
C6    C7    A    
C25   C27   A    
C48   H25   S    
C52   O10   D    
O8    Zn1   S    
C1    O3    A    
C29   C31   T    
C56   H40   S    
C30   C32   T    
C11   C13   A    
C4    C42   A    
C44   H15   S    
C36   C38   A    
C26   C45   S    
C36   H6    S    
C18   C20   A    
C54   H35   S    
C46   H20   S    
C33   C37   A    
O5    Zn1   S    
C23   O5    A    
C49   C50   S    
C44   H14   S    
C48   H23   S    
C6    C42   A    
C50   H28   S    
C13   N1    A    
