data_mof_unit_38621.cif
_audit_creation_date              2012-10-26T17:13:01-0400
_audit_creation_method            fapswitch 2.2
_symmetry_space_group_name_H-M    P1
_symmetry_Int_Tables_number       1
_space_group_crystal_system       triclinic
_cell_length_a                    16.684064
_cell_length_b                    16.798723
_cell_length_c                    16.751821
_cell_angle_alpha                 68.255456
_cell_angle_beta                  68.225426
_cell_angle_gamma                 68.12371
_cell_volume                      3896.39027165

loop_
_atom_site_label
_atom_site_type_symbol
_atom_type_description
_atom_site_fract_x
_atom_site_fract_y
_atom_site_fract_z
_atom_type_partial_charge
C1    C     C_R   0.320307 0.969162 0.450058 -0.036561
C2    C     C_R   0.326978 0.454753 0.939640 -0.073513
C3    C     C_R   0.548718 0.415767 0.973371 -0.026227
C4    C     C_R   0.991991 0.460952 0.592444 -0.041217
C5    C     C_R   0.948039 0.552768 0.428265 -0.028438
C6    C     C_2   0.396415 0.147562 0.752548 0.294901
C7    C     C_2   0.485681 0.136026 0.179540 0.284094
C8    C     C_2   0.859446 0.820446 0.519934 0.323184
C9    C     C_2   0.856481 0.248863 0.601846 0.339485
C10   C     C_2   0.742035 0.399755 0.136739 0.324081
C11   C     C_2   0.255818 0.594436 0.839765 0.265989
C12   C     C_2   0.258116 0.871264 0.601429 0.327469
C13   C     C_R   0.982324 0.692561 0.573206 -0.096151
C14   C     C_2   0.746288 0.165812 0.407676 0.334763
C15   C     C_2   0.608623 0.244966 0.859857 0.315884
C16   C     C_2   0.513591 0.816771 0.864788 0.282441
C17   C     C_2   0.836121 0.591656 0.257412 0.275975
C18   C     C_2   0.140690 0.406629 0.734922 0.330636
C19   C     C_R   0.946842 0.323061 0.455074 -0.099584
C20   C     C_R   0.442831 0.018330 0.446865 0.023077
C21   C     C_R   0.534244 0.051765 0.537201 0.022385
C22   C     C_R   0.954509 0.461307 0.464563 0.021355
C23   C     C_R   0.983717 0.552938 0.557539 0.020847
C24   C     C_R   0.463411 0.460015 0.957857 0.025489
C25   C     C_R   0.554760 0.551006 0.990580 0.021681
C26   C     C_R   0.016458 0.830562 0.568929 0.561186
C27   C     C_R   0.672461 0.064652 0.544255 -0.080420
C28   C     C_R   0.975014 0.171026 0.434389 0.521946
C29   C     C_R   0.828072 0.564310 0.028687 0.599577
C30   C     C_R   0.172047 0.435634 0.970505 0.526267
C31   C     C_R   0.565573 0.025344 0.828833 0.618993
C32   C     C_R   0.431685 0.981703 0.170067 0.568764
C33   C     C_R   0.435909 0.171789 0.969872 0.635699
C34   C     C_R   0.568802 0.830290 0.017167 0.592892
C35   C     C_R   0.974932 0.434369 0.171386 0.593715
C36   C     C_R   0.027911 0.564600 0.828138 0.492020
C37   C     C_R   0.171949 0.972225 0.435528 0.604148
C38   C     C_R   0.941295 0.454122 0.326981 -0.015576
C39   C     C_R   0.828427 0.027083 0.564943 0.501851
C40   C     C_R   0.397841 0.999741 0.401774 -0.027316
C41   C     C_R   0.584173 0.057029 0.585937 -0.011714
C42   C     C_R   0.949095 0.412494 0.414868 -0.021724
C43   C     C_R   0.000293 0.598706 0.603112 -0.003158
C44   C     C_R   0.414965 0.412173 0.948546 -0.005411
C45   C     C_R   0.600791 0.596978 0.006304 -0.026686
C46   C     C_R   0.270684 0.960929 0.401301 0.053155
C47   C     C_R   0.729606 0.042996 0.599721 -0.008548
C48   C     C_R   0.961731 0.399037 0.269983 0.026086
C49   C     C_R   0.033061 0.550729 0.679335 -0.073421
C50   C     C_R   0.040084 0.599475 0.729373 -0.060995
C51   C     C_R   0.403082 0.271062 0.948882 0.051742
C52   C     C_R   0.609687 0.735435 0.015624 0.042594
C53   C     C_R   0.600439 0.038887 0.730936 0.052079
C54   C     C_R   0.391528 0.982881 0.265172 0.004316
C55   C     C_R   0.728878 0.598667 0.042683 0.018267
C56   C     C_R   0.272253 0.401958 0.949302 -0.010433
C57   C     C_R   0.012796 0.736336 0.610588 0.010729
C58   C     C_R   0.961619 0.268797 0.399749 -0.001563
C59   C     C_R   0.449485 0.075383 0.706901 0.058923
C60   C     C_R   0.456435 0.323246 0.943947 -0.012431
C61   C     C_R   0.496050 0.061357 0.261338 0.072824
C62   C     C_R   0.934222 0.738592 0.507274 0.051101
C63   C     C_R   0.930810 0.292324 0.549353 0.065015
C64   C     C_R   0.703269 0.454447 0.059336 0.044882
C65   C     C_R   0.300734 0.549286 0.913463 0.016395
C66   C     C_R   0.294893 0.949380 0.545011 0.045254
C67   C     C_R   0.697716 0.095108 0.449398 0.073161
C68   C     C_R   0.551086 0.291670 0.930980 0.041307
C69   C     C_R   0.503251 0.736466 0.941554 0.067174
C70   C     C_R   0.910034 0.548851 0.302261 0.065809
C71   C     C_R   0.570940 0.690883 0.987660 -0.029249
C72   C     C_R   0.058897 0.455992 0.701503 0.065643
C73   C     C_R   0.313585 0.953339 0.314198 0.193613
C74   C     C_R   0.693764 0.022279 0.692984 0.217829
C75   C     C_R   0.978594 0.305955 0.306904 0.211616
C76   C     C_R   0.042962 0.688538 0.687746 0.224209
C77   C     C_R   0.312784 0.312683 0.946524 0.208451
C78   C     C_R   0.687368 0.687963 0.045111 0.198042
C79   C     C_R   0.653686 0.078905 0.400392 0.073102
C80   C     C_R   0.326695 0.987630 0.585786 -0.006379
C81   C     C_R   0.023093 0.412868 0.669203 0.048555
C82   C     C_R   0.544297 0.057714 0.675935 -0.009003
C83   C     C_R   0.925491 0.598058 0.346297 -0.009482
C84   C     C_R   0.444235 0.690805 0.947698 -0.018267
C85   C     C_R   0.591993 0.328883 0.963676 -0.013321
C86   C     C_R   0.553495 0.059409 0.306864 -0.008745
C87   C     C_R   0.405915 0.046890 0.668658 -0.009344
C88   C     C_R   0.342483 0.596381 0.934096 0.003325
C89   C     C_R   0.670575 0.412381 0.023197 -0.005973
C90   C     C_R   0.962756 0.329517 0.591088 0.049197
C91   C     C_R   0.937770 0.692912 0.449261 0.049245
C92   C     C_R   0.689740 0.083201 0.308192 0.285338
C93   C     C_R   0.428874 0.014732 0.308082 -0.018110
C94   C     C_R   0.281077 0.000846 0.671851 0.220961
C95   C     C_R   0.018669 0.323463 0.710439 0.255729
C96   C     C_R   0.918224 0.690718 0.311697 0.205226
C97   C     C_R   0.357486 0.735860 0.935643 0.263111
C98   C     C_R   0.674883 0.282661 0.984910 0.220582
C99   C     C_R   0.639863 0.072052 0.261848 0.199348
C100  C     C_R   0.321991 0.028241 0.714576 0.224923
C101  C     C_R   0.304690 0.687838 0.933244 0.284245
C102  C     C_R   0.715720 0.325745 0.011827 0.214562
C103  C     C_R   0.985045 0.282904 0.673005 0.255695
C104  C     C_R   0.678285 0.549343 0.037298 -0.026354
C105  C     C_R   0.925648 0.737820 0.362951 0.287041
C106  C     C_R   0.523354 0.043592 0.399972 -0.027283
C107  C     C_R   0.448661 0.037161 0.581549 -0.025541
C108  C     C_R   0.970644 0.416932 0.549205 -0.040167
C109  C     C_R   0.957356 0.599552 0.477740 -0.036129
C110  C     C_R   0.425384 0.550891 0.954912 -0.023696
C111  C     C_R   0.591221 0.459498 0.996184 -0.022232
C112  C     C_R   0.571599 0.056083 0.446045 -0.026187
C113  C     C_R   0.405925 0.014393 0.538129 -0.020526
C114  C     C_R   0.473813 0.597416 0.966057 -0.031349
Cu1   Cu    Cu3+1 0.995180 0.995180 0.424630 1.160609
Cu2   Cu    Cu3+1 0.004820 0.004820 0.575370 1.155301
Cu3   Cu    Cu3+1 0.995180 0.424630 0.995180 1.139543
Cu4   Cu    Cu3+1 0.004820 0.575370 0.004820 1.059277
Cu5   Cu    Cu3+1 0.424630 0.995180 0.995180 1.120424
Cu6   Cu    Cu3+1 0.575370 0.004820 0.004820 1.138469
H1    H     H_    0.327079 0.871119 0.252301 0.335310
H2    H     H_    0.963036 0.184534 0.777516 0.341447
H3    H     H_    0.836830 0.251459 0.975966 0.348529
H4    H     H_    0.181262 0.685814 0.961125 0.342064
H5    H     H_    0.159567 0.038816 0.744147 0.347865
H6    H     H_    0.778924 0.126019 0.202710 0.343348
H7    H     H_    0.752885 0.164299 0.023586 0.354958
H8    H     H_    0.261895 0.847795 0.927330 0.378697
H9    H     H_    0.872269 0.794724 0.223587 0.341139
H10   H     H_    0.069051 0.215356 0.792326 0.342281
H11   H     H_    0.323847 0.164383 0.774322 0.186888
H12   H     H_    0.733953 0.926410 0.788875 0.344454
H13   H     H_    0.539659 0.166458 0.137570 0.176089
H14   H     H_    0.848686 0.847847 0.573498 0.086939
H15   H     H_    0.828485 0.225286 0.568664 0.089464
H16   H     H_    0.760458 0.327696 0.154540 0.196980
H17   H     H_    0.224213 0.559232 0.822896 0.081067
H18   H     H_    0.239126 0.855348 0.673595 0.207725
H19   H     H_    0.782796 0.175409 0.443483 0.086776
H20   H     H_    0.680913 0.222743 0.847073 0.201298
H21   H     H_    0.459993 0.857369 0.833242 0.173509
H22   H     H_    0.806086 0.662774 0.242104 0.154443
H23   H     H_    0.072669 0.264530 0.210788 0.332306
H24   H     H_    0.165227 0.437484 0.764294 0.093442
H25   H     H_    0.122817 0.685247 0.748244 0.356591
H26   H     H_    0.295718 0.243512 0.888736 0.357518
H27   H     H_    0.749478 0.686498 0.122610 0.353572
H28   H     H_    0.241473 0.994405 0.832871 0.349756
H29   H     H_    0.742808 0.037033 0.165953 0.342410
H30   H     H_    0.955391 0.837150 0.261871 0.341714
O1    O     O_R   0.124540 0.978640 0.385460 -0.438031
O2    O     O_R   0.124540 0.385460 0.978640 -0.436493
O3    O     O_R   0.021360 0.875460 0.614540 -0.420667
O4    O     O_R   0.978640 0.124540 0.385460 -0.437510
O5    O     O_R   0.013780 0.867370 0.487190 -0.520057
O6    O     O_R   0.986220 0.132630 0.512810 -0.537513
O7    O     O_R   0.867370 0.487190 0.013780 -0.491590
O8    O     O_R   0.132630 0.512810 0.986220 -0.554455
O9    O     O_R   0.487190 0.013780 0.867370 -0.505882
O10   O     O_R   0.512810 0.986220 0.132630 -0.506407
O11   O     O_R   0.512810 0.132630 0.986220 -0.499497
O12   O     O_R   0.875460 0.021360 0.614540 -0.442547
O13   O     O_R   0.487190 0.867370 0.013780 -0.521563
O14   O     O_R   0.986220 0.512810 0.132630 -0.507669
O15   O     O_R   0.013780 0.487190 0.867370 -0.517005
O16   O     O_R   0.132630 0.986220 0.512810 -0.507197
O17   O     O_R   0.867370 0.013780 0.487190 -0.530626
O18   O     O_3   0.277371 0.917211 0.278495 -0.640110
O19   O     O_3   0.751710 0.980584 0.746623 -0.632173
O20   O     O_3   0.016749 0.249335 0.252447 -0.623553
O21   O     O_3   0.074660 0.730398 0.721947 -0.612681
O22   O     O_3   0.262414 0.266339 0.942040 -0.635452
O23   O     O_R   0.978640 0.385460 0.124540 -0.454800
O24   O     O_3   0.722781 0.730740 0.074543 -0.651775
O25   O     O_3   0.285648 0.029681 0.803019 -0.723351
O26   O     O_3   0.677249 0.063709 0.175722 -0.726456
O27   O     O_3   0.930132 0.825130 0.327402 -0.638996
O28   O     O_3   0.979378 0.196222 0.711835 -0.657774
O29   O     O_3   0.802897 0.288493 0.018492 -0.731022
O30   O     O_3   0.215648 0.730733 0.934971 -0.661026
O31   O     O_3   0.193810 0.994735 0.708903 -0.711504
O32   O     O_3   0.775479 0.092660 0.266075 -0.638899
O33   O     O_3   0.710584 0.193719 0.985991 -0.718542
O34   O     O_R   0.021360 0.614540 0.875460 -0.480778
O35   O     O_3   0.322865 0.824573 0.935783 -0.707036
O36   O     O_3   0.910011 0.732731 0.225910 -0.725908
O37   O     O_3   0.041429 0.279289 0.790076 -0.659388
O38   O     O_2   0.433320 0.193333 0.761157 -0.503989
O39   O     O_2   0.413704 0.168571 0.161418 -0.534859
O40   O     O_2   0.805200 0.854508 0.475772 -0.451305
O41   O     O_2   0.821250 0.244428 0.681001 -0.466734
O42   O     O_2   0.748115 0.434526 0.185839 -0.444580
O43   O     O_2   0.260147 0.668827 0.791924 -0.473234
O44   O     O_2   0.254124 0.819841 0.568040 -0.482671
O45   O     O_R   0.385460 0.124540 0.978640 -0.471448
O46   O     O_2   0.738941 0.220275 0.336512 -0.461711
O47   O     O_2   0.576201 0.235776 0.810411 -0.472428
O48   O     O_2   0.585385 0.835021 0.831642 -0.560646
O49   O     O_2   0.801712 0.546761 0.244095 -0.489384
O50   O     O_2   0.186582 0.333868 0.722921 -0.479380
O51   O     O_R   0.614540 0.875460 0.021360 -0.445128
O52   O     O_R   0.614540 0.021360 0.875460 -0.471248
O53   O     O_R   0.385460 0.978640 0.124540 -0.478227
O54   O     O_R   0.875460 0.614540 0.021360 -0.472060

loop_
_geom_bond_atom_site_label_1
_geom_bond_atom_site_label_2
_ccdc_geom_bond_type
C96   C105  A    
C38   C70   A    
C102  O29   S    
H26   O22   S    
C89   C102  A    
C3    C85   A    
Cu3   Cu4   S    
H7    O33   S    
C91   C105  A    
C53   C74   A    
C59   C82   A    
C40   C93   A    
C2    C65   A    
H25   O21   S    
C88   C101  A    
C26   O5    A    
H27   O24   S    
C95   O37   S    
C106  C112  A    
C97   O35   S    
C4    C108  A    
Cu4   O14   S    
C79   C112  A    
C83   C96   A    
C84   C97   A    
C57   C76   A    
Cu2   O12   S    
C10   H16   S    
C38   C42   A    
C20   C113  A    
C81   C95   A    
C61   C93   A    
C1    C46   A    
C13   C57   A    
C41   C82   A    
C34   O51   A    
C27   C47   A    
Cu1   Cu2   S    
C6    O38   D    
Cu6   O52   S    
C30   O8    A    
C98   O33   S    
C69   C71   A    
C7    C61   S    
C54   C93   A    
C85   C98   A    
C1    C40   A    
C107  C113  A    
C99   O26   S    
C16   O48   D    
C8    O40   D    
C31   O52   A    
C49   C72   A    
C7    O39   D    
C14   C67   S    
C15   H20   S    
C12   C66   S    
C36   O34   A    
C94   O31   S    
C110  C114  A    
C38   C48   A    
C72   C81   A    
C37   C46   S    
C19   C42   A    
C88   C110  A    
C17   C70   S    
C29   O54   A    
H9    O36   S    
C28   O4    A    
Cu6   O51   S    
C48   C75   A    
Cu2   O16   S    
C3    C24   A    
C86   C106  A    
C14   H19   S    
C64   C89   A    
C37   O1    A    
C73   O18   S    
C52   C78   A    
C35   C48   S    
C32   C54   S    
C95   C103  A    
C58   C75   A    
C20   C106  A    
C19   C58   A    
C18   C72   S    
C23   C109  A    
C10   C64   S    
H28   O25   S    
H4    O30   S    
C5    C22   A    
Cu3   O7    S    
H8    O35   S    
C35   O23   A    
C15   O47   D    
C96   O36   S    
C24   C110  A    
C47   C74   A    
H3    O29   S    
C34   O13   A    
C61   C86   A    
C2    C44   A    
C55   C78   A    
H10   O37   S    
C43   C49   A    
C29   O7    A    
C29   C55   S    
C64   C104  A    
C98   C102  A    
C30   C56   S    
C55   C104  A    
C10   O42   D    
C56   C77   A    
C53   C82   A    
C76   O21   S    
C33   O11   A    
C51   C77   A    
C86   C99   A    
C45   C104  A    
C50   C76   A    
C54   C73   A    
C27   C41   A    
C30   O2    A    
C27   C67   A    
C20   C40   A    
C94   C100  A    
C28   O6    A    
C62   C91   A    
C100  O25   S    
C1    C66   A    
C79   C92   A    
C67   C79   A    
H5    O31   S    
C31   C53   S    
C39   O12   A    
C70   C83   A    
C60   C68   A    
Cu2   O3    S    
C21   C107  A    
C75   O20   S    
C19   C63   A    
Cu6   O11   S    
C2    C56   A    
H30   O27   S    
C21   C41   A    
C9    H15   S    
C31   O9    A    
C49   C50   A    
C28   C58   S    
Cu1   O4    S    
C18   O50   D    
C24   C44   A    
C12   H18   S    
Cu4   O8    S    
H12   O19   S    
C80   C94   A    
Cu5   O53   S    
C25   C45   A    
C13   C43   A    
C21   C112  A    
C36   C50   S    
C45   C71   A    
C65   C88   A    
C39   C47   S    
C87   C100  A    
Cu3   O23   S    
H2    O28   S    
H1    O18   S    
C14   O46   D    
C84   C114  A    
Cu1   O5    S    
C9    C63   S    
C23   C43   A    
C12   O44   D    
C6    C59   S    
Cu4   O54   S    
C16   C69   S    
C11   O43   D    
H23   O20   S    
C105  O27   S    
C6    H11   S    
C8    H14   S    
Cu5   Cu6   S    
C5    C83   A    
C7    H13   S    
C37   O16   A    
Cu4   O34   S    
C33   C51   S    
C66   C80   A    
C89   C111  A    
C34   C52   S    
C35   O14   A    
C74   O19   S    
Cu5   O13   S    
C103  O28   S    
H29   O26   S    
C32   O53   A    
C18   H24   S    
C16   H21   S    
C11   H17   S    
C90   C108  A    
Cu3   O15   S    
C101  O30   S    
C52   C71   A    
C25   C114  A    
C91   C109  A    
C22   C42   A    
C5    C109  A    
C44   C60   A    
C77   O22   S    
C22   C108  A    
C15   C68   S    
C4    C81   A    
C63   C90   A    
C36   O15   A    
C17   O49   D    
Cu3   O2    S    
Cu5   O45   S    
C39   O17   A    
C26   C57   S    
C59   C87   A    
C90   C103  A    
Cu2   O6    S    
H6    O32   S    
C69   C84   A    
C25   C111  A    
C3    C111  A    
C87   C107  A    
C80   C113  A    
C33   O45   A    
Cu5   O9    S    
C78   O24   S    
Cu1   O1    S    
Cu6   O10   S    
C13   C62   A    
C17   H22   S    
C26   O3    A    
C92   O32   S    
C51   C60   A    
C4    C23   A    
C9    O41   D    
Cu1   O17   S    
C46   C73   A    
C97   C101  A    
C11   C65   S    
C92   C99   A    
C8    C62   S    
C68   C85   A    
C32   O10   A    
