data_mof_unit_41572.cif
_audit_creation_date              2012-12-10T17:19:56-0500
_audit_creation_method            fapswitch 2.2
_symmetry_space_group_name_H-M    P1
_symmetry_Int_Tables_number       1
_space_group_crystal_system       triclinic
_cell_length_a                    9.630417
_cell_length_b                    10.933583
_cell_length_c                    15.441234
_cell_angle_alpha                 86.128819
_cell_angle_beta                  74.216306
_cell_angle_gamma                 88.748008
_cell_volume                      1561.00083853

loop_
_atom_site_label
_atom_site_type_symbol
_atom_type_description
_atom_site_fract_x
_atom_site_fract_y
_atom_site_fract_z
_atom_type_partial_charge
C1    C     C_R   0.003569 0.262591 0.497420 0.789994
C2    C     C_R   0.671118 0.477945 0.908323 -0.041462
C3    C     C_R   0.765765 0.517783 0.957116 -0.044404
C4    C     C_R   0.520934 0.462267 0.953492 -0.113839
C5    C     C_R   0.474284 0.470508 0.048479 0.006091
C6    C     C_R   0.578465 0.484532 0.095956 -0.090993
C7    C     C_R   0.719610 0.513959 0.051012 -0.217423
C8    C     C_R   0.414130 0.445747 0.907593 0.541276
C9    C     C_R   0.273367 0.410633 0.955053 0.413755
C10   C     C_R   0.226676 0.422522 0.048458 -0.084628
C11   C     C_R   0.324782 0.463136 0.093804 -0.111405
C12   C     C_R   0.918101 0.496287 0.672213 0.861318
C13   C     C_R   0.081385 0.402081 0.096580 -0.073686
C14   C     C_R   0.032553 0.426470 0.187569 -0.319186
C15   C     C_R   0.268911 0.501603 0.181730 0.567266
C16   C     C_R   0.272851 0.107466 0.486331 -0.160303
C17   C     C_R   0.378711 0.043831 0.516774 -0.279170
C18   C     C_R   0.348462 0.929476 0.561905 -0.192878
C19   C     C_R   0.215471 0.874149 0.570695 0.551065
C20   C     C_R   0.113533 0.932030 0.529405 -0.090678
C21   C     C_R   0.132909 0.057757 0.502084 0.041921
C22   C     C_R   0.009500 0.128311 0.496656 -0.147926
C23   C     C_R   0.996100 0.737022 0.506718 0.886382
C24   C     C_R   0.880708 0.068753 0.502174 -0.318948
C25   C     C_R   0.875043 0.941845 0.501309 0.494735
C26   C     C_R   0.991948 0.870990 0.516339 -0.213307
C27   C     C_R   0.693784 0.650540 0.364498 0.634673
C28   C     C_R   0.644679 0.713488 0.297412 -0.325176
C29   C     C_R   0.500110 0.721235 0.304850 -0.242422
C30   C     C_R   0.404141 0.657028 0.375098 -0.049718
C31   C     C_R   0.449943 0.576113 0.437425 0.126930
C32   C     C_R   0.600453 0.574586 0.435219 0.071116
C33   C     C_R   0.549346 0.428425 0.560104 -0.005647
C34   C     C_R   0.081628 0.496225 0.327954 0.868580
C35   C     C_R   0.401973 0.427888 0.559690 -0.020802
C36   C     C_R   0.871176 0.494877 0.771163 -0.283187
C37   C     C_R   0.126303 0.477384 0.230533 -0.129129
C38   C     C_R   0.907895 0.554544 0.911533 0.533300
C39   C     C_R   0.959342 0.542239 0.818993 -0.301977
C40   C     C_R   0.733056 0.450683 0.817469 0.529629
Cu1   Cu    Cu3+1 0.140660 0.499990 0.500010 0.978167
Cu2   Cu    Cu3+1 0.859340 0.500010 0.499990 1.027294
H1    H     H_    0.793501 0.531053 0.090616 0.179836
H2    H     H_    0.005154 0.367427 0.064061 0.184373
H3    H     H_    0.783234 0.121242 0.505014 0.171339
H4    H     H_    0.304750 0.193957 0.449250 0.178156
H5    H     H_    0.481669 0.086601 0.509551 0.163837
H6    H     H_    0.426668 0.884820 0.592372 0.193710
H7    H     H_    0.584021 0.369351 0.609370 0.177566
H8    H     H_    0.718664 0.767811 0.243938 0.175722
H9    H     H_    0.461486 0.779275 0.256568 0.206556
H10   H     H_    0.295297 0.673279 0.375467 0.225559
H11   H     H_    0.327170 0.368437 0.608639 0.139256
H12   H     H_    0.921487 0.406658 0.223920 0.167402
H13   H     H_    0.068838 0.569146 0.784614 0.239292
H14   H     H_    0.553137 0.472981 0.168554 0.196474
N1    N     N_R   0.648320 0.501210 0.499140 -0.196074
N2    N     N_R   0.352470 0.501290 0.499110 -0.188213
O1    O     O_R   0.118810 0.319640 0.500010 -0.609870
O2    O     O_R   0.881240 0.319660 0.500000 -0.602383
O3    O     O_R   0.055570 0.499980 0.629840 -0.563041
O4    O     O_R   0.818000 0.500010 0.629830 -0.531673
O5    O     O_R   0.118760 0.680340 0.500000 -0.590273
O6    O     O_R   0.881190 0.680360 0.499990 -0.464884
O7    O     O_R   0.182000 0.499990 0.370170 -0.578361
O8    O     O_R   0.944430 0.500020 0.370160 -0.536102
O9    O     O_3   0.178444 0.773957 0.631410 -0.552361
C41   C     C_3   0.101893 0.814954 0.716285 -0.357470
H15   H     H_    0.986876 0.788398 0.730737 0.169714
H16   H     H_    0.106826 0.915722 0.723422 0.136708
H17   H     H_    0.148481 0.769508 0.768363 0.208854
O10   O     O_3   0.749943 0.887016 0.495041 -0.554929
C42   C     C_3   0.716590 0.931438 0.414765 -0.256803
H18   H     H_    0.804334 0.909648 0.354253 0.195721
H19   H     H_    0.695060 0.031263 0.411585 0.113352
H20   H     H_    0.615370 0.887762 0.412372 0.194054
F1    F     F_    0.828270 0.682513 0.360708 -0.657669
F2    F     F_    0.346780 0.576354 0.216467 -0.713609
O11   O     O_3   0.174665 0.384975 0.908335 -0.531776
C43   C     C_3   0.206808 0.269046 0.872832 -0.324132
H21   H     H_    0.206117 0.196348 0.927066 0.131194
H22   H     H_    0.311930 0.269416 0.820219 0.204753
H23   H     H_    0.122035 0.246005 0.840315 0.178485
O12   O     O_3   0.999832 0.599395 0.956788 -0.544489
C44   C     C_3   0.967346 0.724145 0.971114 -0.338553
H24   H     H_    0.863191 0.734996 0.023089 0.166114
H25   H     H_    0.052989 0.763522 0.996341 0.199108
H26   H     H_    0.964588 0.778110 0.907924 0.135284
O13   O     O_3   0.666137 0.371838 0.775140 -0.516936
C45   C     C_3   0.703579 0.250435 0.796684 -0.361461
H27   H     H_    0.664020 0.226310 0.870426 0.152082
H28   H     H_    0.651102 0.187504 0.761879 0.187991
H29   H     H_    0.822228 0.235260 0.772674 0.147896
F3    F     F_    0.437990 0.476935 0.818206 -0.614526

loop_
_geom_bond_atom_site_label_1
_geom_bond_atom_site_label_2
_ccdc_geom_bond_type
C8    C9    A    
C16   C21   A    
C35   H11   S    
C34   C37   S    
Cu1   Cu2   S    
C19   C20   A    
Cu1   O3    S    
C4    C8    A    
C34   O8    A    
C44   H24   S    
C35   N2    A    
C5    C6    A    
C24   H3    S    
C31   N2    A    
C28   C29   A    
Cu1   N2    S    
C5    C11   A    
C3    C7    A    
C1    O1    A    
C9    O11   S    
C30   C31   A    
C15   F2    S    
C33   H7    S    
C34   O7    A    
C18   C19   A    
C42   H18   S    
C23   C26   S    
C15   C37   A    
C41   H15   S    
C28   H8    S    
C39   H13   S    
C3    C38   A    
C16   C17   A    
C19   O9    S    
C7    H1    S    
C40   O13   S    
C12   C36   S    
C9    C10   A    
Cu2   O4    S    
C23   O5    A    
C1    C22   S    
C21   C22   A    
C42   H19   S    
C11   C15   A    
C32   N1    A    
C43   H23   S    
Cu2   N1    S    
C44   H25   S    
O9    C41   S    
C36   C40   A    
C8    F3    S    
C24   C25   A    
Cu1   O1    S    
C43   H22   S    
C1    O2    A    
C16   H4    S    
C43   H21   S    
Cu1   O7    S    
C25   C26   A    
C2    C4    A    
C29   C30   A    
C12   O4    A    
C45   H28   S    
C31   C32   A    
C17   C18   A    
C25   O10   S    
O12   C44   S    
C23   O6    A    
C14   H12   S    
C42   H20   S    
C22   C24   A    
Cu1   O5    S    
Cu2   O2    S    
Cu2   O6    S    
C45   H29   S    
C29   H9    S    
C44   H26   S    
C30   H10   S    
C33   N1    A    
C38   O12   S    
C27   C32   A    
C36   C39   A    
C17   H5    S    
C6    H14   S    
O10   C42   S    
C27   F1    S    
C10   C13   A    
C18   H6    S    
C6    C7    A    
C2    C3    A    
C14   C37   A    
C12   O3    A    
C45   H27   S    
C38   C39   A    
C20   C26   A    
C41   H17   S    
C33   C35   A    
C10   C11   A    
O11   C43   S    
C2    C40   A    
C4    C5    A    
C20   C21   A    
C41   H16   S    
C27   C28   A    
Cu2   O8    S    
O13   C45   S    
C13   C14   A    
C13   H2    S    
