data_mof_unit_62776.cif
_audit_creation_date              2012-10-26T18:42:41-0400
_audit_creation_method            fapswitch 2.2
_symmetry_space_group_name_H-M    P1
_symmetry_Int_Tables_number       1
_space_group_crystal_system       triclinic
_cell_length_a                    19.417664
_cell_length_b                    18.136106
_cell_length_c                    23.604441
_cell_angle_alpha                 90.005632
_cell_angle_beta                  90.195436
_cell_angle_gamma                 90.042577
_cell_volume                      8312.5084276

loop_
_atom_site_label
_atom_site_type_symbol
_atom_type_description
_atom_site_fract_x
_atom_site_fract_y
_atom_site_fract_z
_atom_type_partial_charge
C1    C     C_R   0.367982 0.500009 0.500008 0.550314
C2    C     C_R   0.533995 0.443300 0.703627 0.173577
C3    C     C_R   0.468789 0.444684 0.237376 -0.078934
C4    C     C_R   0.531401 0.444764 0.762608 -0.079792
C5    C     C_R   0.497237 0.504157 0.208248 0.171541
C6    C     C_R   0.503067 0.504242 0.791756 0.171581
C7    C     C_R   0.742770 0.519694 0.550388 -0.028182
C8    C     C_R   0.257873 0.481785 0.550965 -0.042270
C9    C     C_R   0.255955 0.518815 0.451381 -0.034195
C10   C     C_R   0.743426 0.482056 0.450938 -0.043676
C11   C     C_R   0.815013 0.514456 0.552549 0.200800
C12   C     C_R   0.632016 0.500075 0.500086 0.549559
C13   C     C_R   0.185510 0.486301 0.553108 0.206062
C14   C     C_R   0.183631 0.513175 0.450494 0.202832
C15   C     C_R   0.815852 0.486879 0.450059 0.207764
C16   C     C_R   0.851560 0.500323 0.501689 -0.046953
C17   C     C_R   0.148462 0.499471 0.502108 -0.044718
C18   C     C_R   0.707354 0.500397 0.500508 -0.083721
C19   C     C_R   0.292649 0.500086 0.500748 -0.083116
C20   C     C_R   0.499322 0.499949 0.390723 0.578393
C21   C     C_R   0.500716 0.499957 0.609278 0.578466
C22   C     C_R   0.964087 0.567450 0.502362 0.038339
C23   C     C_R   0.525022 0.564457 0.238372 0.233853
C24   C     C_R   0.035941 0.432222 0.502660 0.035494
C25   C     C_R   0.036393 0.567216 0.503159 0.038602
C26   C     C_R   0.963620 0.432458 0.503115 0.035438
C27   C     C_R   0.072296 0.499610 0.502729 0.062012
C28   C     C_R   0.927724 0.500065 0.502394 0.062370
C29   C     C_R   0.455867 0.720907 0.465350 0.081046
C30   C     C_R   0.449347 0.278943 0.527659 0.126328
C31   C     C_R   0.544134 0.720976 0.534655 0.080628
C32   C     C_R   0.550644 0.279002 0.472341 0.126253
C33   C     C_R   0.454915 0.798294 0.464792 -0.112950
C34   C     C_R   0.475332 0.564532 0.761653 0.233494
C35   C     C_R   0.448308 0.201561 0.528097 -0.100687
C36   C     C_R   0.545082 0.798365 0.535228 -0.113068
C37   C     C_R   0.551675 0.201621 0.471917 -0.100779
C38   C     C_R   0.499997 0.838437 0.500014 0.018768
C39   C     C_R   0.499992 0.161487 0.500012 0.023651
C40   C     C_R   0.561941 0.961292 0.504669 -0.086405
C41   C     C_R   0.438026 0.038642 0.495552 -0.085632
C42   C     C_R   0.438046 0.961190 0.495375 -0.086306
C43   C     C_R   0.561958 0.038744 0.504491 -0.085626
C44   C     C_R   0.499991 0.078676 0.500020 0.032799
C45   C     C_R   0.529896 0.560065 0.297989 -0.083630
C46   C     C_R   0.499995 0.921255 0.500021 0.034036
C47   C     C_R   0.563368 0.502993 0.881790 0.439239
C48   C     C_R   0.436945 0.502939 0.118210 0.439342
C49   C     C_R   0.440445 0.495827 0.880178 0.462768
C50   C     C_R   0.559857 0.495763 0.119823 0.462737
C51   C     C_R   0.438234 0.496663 0.939527 0.042179
C52   C     C_R   0.562072 0.496627 0.060473 0.042395
C53   C     C_R   0.500594 0.498252 0.970129 -0.021438
C54   C     C_R   0.499714 0.498236 0.029872 -0.021477
C55   C     C_R   0.563838 0.499839 0.941142 0.035984
C56   C     C_R   0.470373 0.560119 0.702040 -0.083116
C57   C     C_R   0.436472 0.499813 0.058858 0.035470
C58   C     C_R   0.375414 0.496345 0.968861 -0.087588
C59   C     C_R   0.624891 0.496319 0.031139 -0.087844
C60   C     C_R   0.374535 0.498778 0.027928 -0.093413
C61   C     C_R   0.625774 0.498784 0.972072 -0.094311
C62   C     C_1   0.570480 0.614748 0.328094 0.282541
C63   C     C_1   0.429821 0.614796 0.671977 0.283113
C64   C     C_1   0.704244 0.545424 0.599090 0.346182
C65   C     C_1   0.297396 0.459084 0.600242 0.300643
C66   C     C_1   0.293337 0.544349 0.402011 0.338578
C67   C     C_R   0.498628 0.500532 0.327753 -0.044095
C68   C     C_1   0.705115 0.459018 0.401104 0.300091
C69   C     C_1   0.926918 0.636772 0.500486 0.277915
C70   C     C_1   0.073120 0.362916 0.500970 0.285417
C71   C     C_1   0.074046 0.636282 0.505396 0.286370
C72   C     C_1   0.925957 0.363414 0.505283 0.285358
C73   C     C_R   0.501505 0.500564 0.672251 -0.042908
C74   C     C_R   0.466109 0.443252 0.296355 0.173556
Cu1   Cu    Cu3+1 0.500000 0.573360 0.500000 1.006501
Cu2   Cu    Cu3+1 0.500000 0.426640 0.500000 1.112974
H1    H     H_    0.326766 0.495340 0.946287 0.191239
H2    H     H_    0.592057 0.173510 0.448965 0.114008
H3    H     H_    0.610737 0.932714 0.507746 0.130067
H4    H     H_    0.389338 0.067223 0.491459 0.132993
H5    H     H_    0.389251 0.932531 0.492297 0.130241
H6    H     H_    0.610645 0.067406 0.508583 0.133016
H7    H     H_    0.325227 0.499532 0.049231 0.189489
H8    H     H_    0.675083 0.499545 0.950769 0.187669
H9    H     H_    0.447250 0.399527 0.213072 0.184168
H10   H     H_    0.552897 0.399613 0.786900 0.183777
H11   H     H_    0.658795 0.636413 0.227527 0.358222
H12   H     H_    0.673537 0.495300 0.053712 0.190878
H13   H     H_    0.341678 0.636463 0.772582 0.358986
H14   H     H_    0.507833 0.295752 0.323984 0.339709
H15   H     H_    0.491934 0.295826 0.676090 0.339915
H16   H     H_    0.834366 0.509744 0.707285 0.394334
H17   H     H_    0.099706 0.380591 0.663898 0.393432
H18   H     H_    0.084995 0.614905 0.344539 0.396677
H19   H     H_    0.912505 0.383422 0.344435 0.396024
H20   H     H_    0.421277 0.690576 0.437885 0.144685
H21   H     H_    0.409758 0.309063 0.549955 0.138725
H22   H     H_    0.578724 0.690699 0.562114 0.144163
H23   H     H_    0.590233 0.309164 0.450034 0.138730
H24   H     H_    0.419835 0.826402 0.436361 0.122987
H25   H     H_    0.407922 0.173402 0.551052 0.114076
H26   H     H_    0.580162 0.826530 0.563664 0.122970
N1    N     N_R   0.502221 0.501629 0.852600 -0.379132
N2    N     N_1   0.674216 0.440560 0.361539 -0.246246
N3    N     N_1   0.897185 0.692016 0.498969 -0.205620
N4    N     N_1   0.102862 0.307678 0.499592 -0.194781
N5    N     N_1   0.104165 0.691320 0.507205 -0.199592
N6    N     N_1   0.895826 0.308391 0.507040 -0.194740
N7    N     N_R   0.498088 0.501555 0.147402 -0.379566
N8    N     N_R   0.500000 0.683620 0.500000 -0.227796
N9    N     N_R   0.500000 0.316380 0.500000 -0.199369
N10   N     N_1   0.602996 0.658232 0.352169 -0.219950
N11   N     N_1   0.397328 0.658273 0.647935 -0.218696
N12   N     N_1   0.673284 0.566180 0.637757 -0.208563
N13   N     N_1   0.329184 0.440876 0.639380 -0.248619
N14   N     N_1   0.323428 0.564924 0.362813 -0.202126
O1    O     O_R   0.400190 0.561980 0.499990 -0.507937
O2    O     O_2   0.376896 0.507888 0.146572 -0.434732
O3    O     O_2   0.381456 0.489418 0.850197 -0.436162
O4    O     O_2   0.618836 0.489341 0.149804 -0.436525
O5    O     O_2   0.515094 0.653525 0.146226 -0.197559
O6    O     O_2   0.537444 0.713186 0.236844 -0.235158
O7    O     O_3   0.637269 0.641109 0.189607 -0.427620
O8    O     O_2   0.485472 0.653607 0.853801 -0.197849
O9    O     O_2   0.463137 0.713261 0.763200 -0.235235
O10   O     O_3   0.363241 0.641207 0.810488 -0.426594
O11   O     O_2   0.374162 0.397024 0.373953 -0.219648
O12   O     O_R   0.599810 0.438020 0.500010 -0.488322
O13   O     O_2   0.376526 0.329939 0.284385 -0.224720
O14   O     O_3   0.476348 0.308212 0.355484 -0.496923
O15   O     O_2   0.625751 0.396929 0.625955 -0.216574
O16   O     O_2   0.623376 0.329940 0.715551 -0.226696
O17   O     O_3   0.523409 0.308220 0.644557 -0.496935
O18   O     O_2   0.926220 0.486374 0.620274 -0.232130
O19   O     O_2   0.871286 0.607472 0.627854 -0.243598
O20   O     O_3   0.810045 0.494255 0.672295 -0.458504
O21   O     O_2   0.185724 0.502022 0.667527 -0.221079
O22   O     O_2   0.074748 0.514847 0.620460 -0.229247
O23   O     O_R   0.599810 0.561980 0.500010 -0.509023
O24   O     O_3   0.127258 0.383683 0.628740 -0.496404
O25   O     O_2   0.181079 0.500729 0.335661 -0.195970
O26   O     O_2   0.072982 0.478495 0.384563 -0.243957
O27   O     O_3   0.116801 0.613469 0.377415 -0.499163
O28   O     O_2   0.818009 0.499181 0.335173 -0.218631
O29   O     O_2   0.926650 0.519643 0.384293 -0.245701
O30   O     O_3   0.880788 0.385435 0.377173 -0.494422
O31   O     O_R   0.400190 0.438020 0.499990 -0.488741
O32   O     O_R   0.499980 0.561970 0.417880 -0.511512
O33   O     O_R   0.500020 0.438030 0.582120 -0.435660
O34   O     O_R   0.500020 0.561970 0.582120 -0.511802
O35   O     O_R   0.499980 0.438030 0.417880 -0.435653
O36   O     O_2   0.623423 0.507949 0.853428 -0.440946
S1    S     S_3+6 0.552144 0.645736 0.201898 0.103018
S2    S     S_3+6 0.448363 0.645819 0.798149 0.103044
S3    S     S_3+6 0.420228 0.368914 0.327753 0.073079
S4    S     S_3+6 0.579690 0.368906 0.672210 0.073220
S5    S     S_3+6 0.858630 0.526551 0.618869 0.056951
S6    S     S_3+6 0.142084 0.474172 0.619336 0.053489
S7    S     S_3+6 0.137617 0.524071 0.385082 0.059088
S8    S     S_3+6 0.861340 0.475188 0.384725 0.052537

loop_
_geom_bond_atom_site_label_1
_geom_bond_atom_site_label_2
_ccdc_geom_bond_type
C16   C28   S    
C34   C56   A    
C8    C13   A    
C23   C45   A    
C32   N9    A    
O8    S2    D    
C3    H9    S    
O17   S4    S    
C26   C72   S    
C41   C42   A    
C20   C67   S    
C35   C39   A    
Cu1   O1    S    
C24   C27   A    
O26   S7    D    
C9    C14   A    
C41   H4    S    
C24   C70   S    
C48   C57   A    
C53   C54   A    
C40   C46   A    
H19   O30   S    
C30   H21   S    
O5    S1    D    
O21   S6    D    
C50   O4    S    
H18   O27   S    
O15   S4    D    
C24   C26   A    
C71   N5    T    
C10   C15   A    
C60   H7    S    
O30   S8    S    
Cu1   O34   S    
C58   C60   A    
C15   C16   A    
C29   C33   A    
C45   C62   S    
C36   H26   S    
C42   C46   A    
C31   H22   S    
C3    C74   A    
C9    C66   S    
C58   H1    S    
O24   S6    S    
C59   H12   S    
C9    C19   A    
C40   C43   A    
C72   N6    T    
Cu2   O31   S    
C49   C51   A    
C22   C25   A    
C5    C23   A    
C45   C67   A    
C50   C52   A    
C20   O32   A    
O14   S3    S    
C25   C71   S    
C21   O33   A    
O28   S8    D    
C22   C69   S    
C53   C55   A    
C48   N7    A    
C8    C65   S    
C22   C28   A    
C65   N13   T    
C14   C17   A    
H16   O20   S    
C42   H5    S    
C52   C54   A    
C7    C11   A    
H13   O10   S    
C34   S2    S    
C21   C73   S    
C56   C63   S    
C8    C19   A    
C47   N1    A    
C17   C27   S    
C29   N8    A    
C64   N12   T    
C4    C6    A    
C70   N4    T    
O11   S3    D    
O13   S3    D    
O29   S8    D    
C69   N3    T    
C57   C60   A    
C48   O2    S    
Cu2   O35   S    
C3    C5    A    
C32   C37   A    
C1    C19   S    
C50   N7    A    
C6    C34   A    
C51   C53   A    
H14   O14   S    
C2    C4    A    
Cu1   Cu2   S    
C52   C59   A    
C11   C16   A    
O22   S6    D    
H15   O17   S    
C7    C18   A    
C12   O23   A    
C62   N10   T    
C51   C58   A    
C1    O1    A    
C6    N1    S    
O19   S5    D    
C2    C73   A    
C66   N14   T    
O20   S5    S    
O10   S2    S    
C59   C61   A    
C23   S1    S    
C43   C44   A    
Cu2   O12   S    
O6    S1    D    
C1    O31   A    
C13   S6    S    
O9    S2    D    
C11   S5    S    
C40   H3    S    
C47   C55   A    
O7    S1    S    
Cu1   N8    S    
C2    S4    S    
C56   C73   A    
C68   N2    T    
C35   H25   S    
C61   H8    S    
C49   N1    A    
C29   H20   S    
C32   H23   S    
O27   S7    S    
C39   C44   S    
C12   O12   A    
C10   C68   S    
Cu1   O32   S    
C25   C27   A    
C30   C35   A    
C37   H2    S    
C14   S7    S    
C26   C28   A    
C33   C38   A    
C20   O35   A    
C13   C17   A    
C30   N9    A    
C33   H24   S    
C36   C38   A    
C15   S8    S    
C37   C39   A    
H17   O24   S    
Cu1   O23   S    
H11   O7    S    
C21   O34   A    
C49   O3    S    
C5    N7    S    
Cu2   O33   S    
C10   C18   A    
Cu2   N9    S    
C55   C61   A    
C41   C44   A    
C31   N8    A    
C74   S3    S    
C67   C74   A    
O16   S4    D    
C7    C64   S    
C38   C46   S    
C63   N11   T    
O18   S5    D    
C4    H10   S    
C47   O36   S    
C12   C18   S    
C43   H6    S    
C31   C36   A    
O25   S7    D    
C54   C57   A    
