data_mof_unit_62247.cif
_audit_creation_date              2012-12-10T19:20:31-0500
_audit_creation_method            fapswitch 2.2
_symmetry_space_group_name_H-M    P1
_symmetry_Int_Tables_number       1
_space_group_crystal_system       triclinic
_cell_length_a                    14.96723
_cell_length_b                    15.780584
_cell_length_c                    15.395087
_cell_angle_alpha                 89.904632
_cell_angle_beta                  85.795499
_cell_angle_gamma                 89.472769
_cell_volume                      3626.24937345

loop_
_atom_site_label
_atom_site_type_symbol
_atom_type_description
_atom_site_fract_x
_atom_site_fract_y
_atom_site_fract_z
_atom_type_partial_charge
Br1   Br    Br    0.698108 0.314044 0.104763 -0.339727
Br2   Br    Br    0.122741 0.404821 0.332835 -0.287806
Br3   Br    Br    0.087398 0.313509 0.520445 -0.296579
Br4   Br    Br    0.281279 0.373610 0.931358 -0.350293
Br5   Br    Br    0.449773 0.198648 0.901170 -0.261499
Br6   Br    Br    0.377215 0.092802 0.357039 -0.336861
Br7   Br    Br    0.599361 0.103332 0.322469 -0.355579
Br8   Br    Br    0.460605 0.892430 0.690688 -0.380227
Br9   Br    Br    0.339016 0.546048 0.228746 -0.315298
Br10  Br    Br    0.112519 0.690771 0.517223 -0.253327
Br11  Br    Br    0.903646 0.683556 0.461206 -0.243949
Br12  Br    Br    0.895123 0.525278 0.306755 -0.279941
Br13  Br    Br    0.095898 0.593926 0.332019 -0.176190
C1    C     C_R   0.499572 0.662128 0.499863 0.896678
C2    C     C_R   0.518449 0.474644 0.248164 -0.193556
C3    C     C_3   0.408497 0.952541 0.474390 0.152715
C4    C     C_R   0.487966 0.498346 0.658308 0.908189
C5    C     C_3   0.577330 0.948108 0.430750 0.657517
C6    C     C_3   0.586060 0.047872 0.438078 0.427269
C7    C     C_1   0.501472 0.249405 0.499692 -0.086591
C8    C     C_3   0.501108 0.917335 0.499574 -0.164277
C9    C     C_3   0.411502 0.050817 0.469625 -0.090315
C10   C     C_3   0.503656 0.082908 0.499040 -0.118005
C11   C     C_3   0.511985 0.050069 0.595124 0.695684
C12   C     C_R   0.397501 0.460240 0.798211 0.434408
C13   C     C_3   0.522931 0.951152 0.591446 -0.042945
C14   C     C_1   0.502472 0.174360 0.499332 0.178947
C15   C     C_1   0.499362 0.825836 0.499543 0.261140
C16   C     C_R   0.500450 0.337918 0.499980 0.887883
C17   C     C_1   0.498890 0.750742 0.499603 -0.072602
C18   C     C_3   0.943469 0.587887 0.530267 0.121085
C19   C     C_3   0.956170 0.478564 0.405194 0.096662
C20   C     C_3   0.060188 0.494202 0.402094 0.386649
C21   C     C_3   0.909982 0.500563 0.497187 -0.125660
C22   C     C_3   0.047281 0.584761 0.540873 0.048028
C23   C     C_R   0.441705 0.427247 0.122897 -0.180268
C24   C     C_3   0.090289 0.501252 0.499044 -0.235593
C25   C     C_3   0.047979 0.426823 0.558457 0.628613
C26   C     C_3   0.942057 0.431223 0.560319 -0.640842
C27   C     C_1   0.190766 0.501438 0.500732 0.363334
C28   C     C_R   0.511867 0.498829 0.341733 0.901633
C29   C     C_1   0.809342 0.499182 0.497927 0.232194
C30   C     C_R   0.481404 0.475726 0.752607 -0.138645
C31   C     C_R   0.560191 0.454683 0.792510 -0.221419
C32   C     C_R   0.556571 0.407515 0.869286 -0.144390
C33   C     C_R   0.474327 0.379878 0.907458 -0.119825
C34   C     C_R   0.443392 0.477996 0.197360 0.313588
C35   C     C_R   0.394128 0.410013 0.875188 0.196929
C36   C     C_R   0.595618 0.430720 0.214727 -0.202439
C37   C     C_R   0.593738 0.380395 0.140219 0.304436
C38   C     C_R   0.514300 0.373984 0.097243 -0.170641
C39   C     C_2   0.474284 0.301954 0.961042 0.310363
C40   C     C_2   0.498554 0.297726 0.043618 0.417769
H1    H     H_    0.625356 0.467708 0.760216 0.189806
H2    H     H_    0.054873 0.582467 0.611880 0.142753
H3    H     H_    0.380551 0.423866 0.089723 0.212113
H4    H     H_    0.618583 0.384530 0.893375 0.191968
H5    H     H_    0.703700 0.921429 0.401424 0.420217
H6    H     H_    0.510549 0.956126 0.324461 0.359458
H7    H     H_    0.675333 0.127884 0.474804 0.380396
H8    H     H_    0.446692 0.071587 0.709058 0.398067
H9    H     H_    0.333475 0.957653 0.584991 0.410408
H10   H     H_    0.595255 0.060126 0.687371 0.361304
H11   H     H_    0.035227 0.464017 0.682707 0.336380
H12   H     H_    0.394646 0.927285 0.409598 0.218943
H13   H     H_    0.514102 0.225124 0.143716 0.381027
H14   H     H_    0.269001 0.485318 0.806075 0.385885
H15   H     H_    0.594278 0.935288 0.600235 0.216409
H16   H     H_    0.356753 0.077903 0.514174 0.251213
H17   H     H_    0.946519 0.409477 0.395543 0.166271
H18   H     H_    0.910880 0.443948 0.626859 0.200693
H19   H     H_    0.655037 0.428673 0.250862 0.212108
H20   H     H_    0.914934 0.368802 0.542222 0.242279
H21   H     H_    0.909508 0.599510 0.596019 0.119903
N1    N     N_1   0.268730 0.501370 0.501580 -0.040170
N2    N     N_1   0.731270 0.498640 0.498400 -0.069619
O1    O     O_R   0.425740 0.622790 0.499920 -0.580231
O2    O     O_3   0.559405 0.921262 0.346091 -0.708326
O3    O     O_3   0.666495 0.065642 0.476636 -0.659220
O4    O     O_3   0.433831 0.074021 0.646785 -0.739169
O5    O     O_3   0.337097 0.923243 0.531133 -0.637985
O6    O     O_3   0.587240 0.087050 0.630080 -0.714192
O7    O     O_3   0.078589 0.432283 0.643101 -0.693131
O8    O     O_3   0.503347 0.218274 0.081322 -0.626407
O9    O     O_3   0.320883 0.490037 0.762942 -0.704257
O10   O     O_R   0.574190 0.622930 0.500090 -0.585935
O11   O     O_R   0.417000 0.499930 0.615710 -0.531949
O12   O     O_R   0.565450 0.500080 0.615870 -0.624091
O13   O     O_R   0.425810 0.377070 0.499910 -0.581812
O14   O     O_R   0.574260 0.377210 0.500080 -0.611108
O15   O     O_R   0.434550 0.499920 0.384130 -0.565223
O16   O     O_R   0.583000 0.500070 0.384290 -0.593501
O17   O     O_3   0.658649 0.908905 0.450282 -0.665103
Zn1   Zn    Zn3+2 0.400880 0.499910 0.499890 1.113474
Zn2   Zn    Zn3+2 0.599120 0.500090 0.500110 1.023926

loop_
_geom_bond_atom_site_label_1
_geom_bond_atom_site_label_2
_ccdc_geom_bond_type
C8    C13   S    
H7    O3    S    
C3    C8    S    
C25   O7    S    
C5    C8    S    
Br8   C13   S    
C21   C29   S    
C2    C34   A    
C12   C30   A    
C16   O13   A    
O14   Zn2   S    
C32   C33   A    
C31   C32   A    
C32   H4    S    
C40   O8    S    
C22   C24   S    
H5    O17   S    
C11   C13   S    
C24   C27   S    
N2    Zn2   S    
C25   C26   S    
H8    O4    S    
Br6   C9    S    
O11   Zn1   S    
C33   C39   S    
O1    Zn1   S    
C4    O12   A    
C23   C34   A    
C5    C6    S    
C1    O1    A    
O13   Zn1   S    
C11   O6    S    
C11   O4    S    
Br3   C25   S    
C36   H19   S    
C10   C11   S    
Br5   C39   S    
Br10  C22   S    
C10   C14   S    
Br1   C37   S    
C9    H16   S    
C26   H20   S    
O12   Zn2   S    
Br11  C18   S    
Br12  C19   S    
C1    C17   S    
H6    O2    S    
C16   O14   A    
C7    C16   S    
C33   C35   A    
H14   O9    S    
H10   O6    S    
C22   H2    S    
C21   C26   S    
C1    O10   A    
C18   H21   S    
C19   H17   S    
O16   Zn2   S    
C20   C24   S    
C38   C40   S    
C19   C21   S    
C6    C10   S    
C30   C31   A    
C4    C30   S    
H11   O7    S    
Br13  C20   S    
C24   C25   S    
C23   H3    S    
C5    O2    S    
C12   O9    S    
C37   C38   A    
C18   C21   S    
C6    O3    S    
C12   C35   A    
C2    C28   S    
C23   C38   A    
Br2   C20   S    
C28   O15   A    
C8    C15   S    
Br9   C34   S    
Br7   C6    S    
C18   C22   S    
C39   C40   D    
Br4   C35   S    
C3    C9    S    
C4    O11   A    
H9    O5    S    
C7    C14   T    
C29   N2    T    
C27   N1    T    
C13   H15   S    
C19   C20   S    
C15   C17   T    
O15   Zn1   S    
C3    O5    S    
C2    C36   A    
O10   Zn2   S    
H13   O8    S    
C31   H1    S    
C28   O16   A    
C36   C37   A    
C5    O17   S    
C26   H18   S    
C9    C10   S    
C3    H12   S    
N1    Zn1   S    
