data_mof_unit_23048.cif
_audit_creation_date              2013-03-05T15:47:14-0500
_audit_creation_method            fapswitch 2.2
_symmetry_space_group_name_H-M    P1
_symmetry_Int_Tables_number       1
_space_group_crystal_system       triclinic
_cell_length_a                    27.825026
_cell_length_b                    11.124585
_cell_length_c                    9.862375
_cell_angle_alpha                 110.84433
_cell_angle_beta                  97.335155
_cell_angle_gamma                 92.200303
_cell_volume                      2818.070224

loop_
_atom_site_label
_atom_site_type_symbol
_atom_site_description
_atom_site_fract_x
_atom_site_fract_y
_atom_site_fract_z
_atom_type_partial_charge
O1    O     O_R   0.504520 0.332330 0.577400 -0.525894
O2    O     O_R   0.495480 0.667670 0.422600 -0.515863
O3    O     O_R   0.490210 0.295500 0.332650 -0.561870
O4    O     O_R   0.509790 0.704500 0.667350 -0.569285
C1    C     C_R   0.497370 0.255610 0.441495 0.918006
C2    C     C_R   0.503538 0.745331 0.557792 0.891754
O5    O     O_R   0.437420 0.518430 0.622370 -0.534843
O6    O     O_R   0.562580 0.481570 0.377630 -0.532991
O7    O     O_R   0.423110 0.481600 0.377610 -0.565657
O8    O     O_R   0.576890 0.518400 0.622390 -0.539703
C3    C     C_R   0.407737 0.498932 0.501457 0.927556
C4    C     C_R   0.592256 0.497368 0.497544 0.897042
Cu1   Cu    Cu3+1 0.508480 0.521810 0.644910 1.155735
Cu2   Cu    Cu3+1 0.491520 0.478190 0.355090 1.146023
C5    C     C_R   0.172818 0.381622 0.428698 0.609249
C6    C     C_R   0.823328 0.597368 0.481057 0.609977
O9    O     O_2   0.192685 0.272958 0.355211 -0.475008
O10   O     O_2   0.800851 0.703862 0.485682 -0.459190
N1    N     N_R   0.201700 0.494656 0.500845 -0.442773
N2    N     N_R   0.796647 0.487253 0.469181 -0.443928
C7    C     C_R   0.182106 0.606427 0.574065 0.662378
C8    C     C_R   0.818592 0.377316 0.461694 0.652823
C9    C     C_R   0.277609 0.579749 0.445503 0.295340
C10   C     C_R   0.711368 0.400847 0.356579 0.293175
C11   C     C_R   0.328558 0.583972 0.452759 0.164215
C12   C     C_R   0.661247 0.398490 0.368021 0.203728
C13   C     C_R   0.330033 0.408527 0.547859 0.285956
C14   C     C_R   0.679024 0.577769 0.604955 0.274948
C15   C     C_R   0.280080 0.413411 0.552144 -0.159267
C16   C     C_R   0.728412 0.575559 0.594626 -0.150283
C17   C     C_R   0.253512 0.496202 0.499469 0.118880
C18   C     C_R   0.744981 0.489059 0.471818 0.121438
C19   C     C_R   0.101218 0.494024 0.493090 -0.082307
C20   C     C_R   0.896876 0.486180 0.471663 -0.081400
C21   C     C_R   0.122528 0.378011 0.430189 -0.017712
C22   C     C_R   0.874026 0.600625 0.489883 -0.029414
C23   C     C_R   0.093220 0.261144 0.367711 -0.093642
C24   C     C_R   0.902107 0.715796 0.515988 -0.089642
C25   C     C_R   0.131121 0.611444 0.560552 -0.143538
C26   C     C_R   0.868543 0.370691 0.449452 -0.145893
C27   C     C_R   0.354924 0.498314 0.503658 -0.282374
C28   C     C_R   0.644836 0.489972 0.491123 -0.270318
H1    H     H_    0.261021 0.348036 0.590659 0.224129
H2    H     H_    0.754385 0.641692 0.683887 0.210808
C29   C     C_R   0.970462 0.370939 0.443343 -0.011205
C30   C     C_R   0.028115 0.609630 0.535906 -0.011531
C31   C     C_R   0.976613 0.607183 0.515762 0.072628
C32   C     C_R   0.020992 0.372219 0.434525 0.076435
C33   C     C_R   0.948103 0.487989 0.476851 0.085396
C34   C     C_R   0.049993 0.492044 0.488082 0.085718
C35   C     C_R   0.941537 0.256282 0.419375 -0.245095
C36   C     C_R   0.058457 0.725974 0.602140 -0.245759
C37   C     C_R   0.891422 0.254591 0.421432 0.359308
C38   C     C_R   0.109083 0.728377 0.614572 0.360119
O11   O     O_2   0.792329 0.276831 0.470892 -0.417328
O12   O     O_2   0.212057 0.710978 0.661365 -0.417849
C39   C     C_R   0.043502 0.257808 0.371765 -0.182186
C40   C     C_R   0.952507 0.719668 0.530950 -0.181918
H3    H     H_    0.023244 0.164408 0.319426 0.157119
H4    H     H_    0.971657 0.811532 0.549245 0.161264
C41   C     C_2   0.493177 0.118813 0.411011 -0.231567
C42   C     C_2   0.508409 0.883375 0.584583 -0.294502
C43   C     C_2   0.514840 0.067559 0.505084 0.252320
C44   C     C_2   0.503117 0.929612 0.474070 0.272645
N3    N     N_2   0.478780 0.445430 0.137360 -0.308170
N4    N     N_2   0.521220 0.554570 0.862640 -0.303173
C45   C     C_2   0.508485 0.495087 0.074128 0.368931
C46   C     C_2   0.494813 0.490858 0.919636 0.358986
H5    H     H_    0.552015 0.610259 0.926565 0.261699
H6    H     H_    0.444569 0.408109 0.080902 0.245549
N5    N     N_R   0.353839 0.306263 0.578225 0.194538
O13   O     O_R   0.336977 0.254776 0.664245 -0.225790
O14   O     O_R   0.386619 0.249226 0.501000 -0.337151
N6    N     N_R   0.664219 0.672355 0.730668 0.143728
O15   O     O_R   0.672585 0.794336 0.753430 -0.250093
O16   O     O_R   0.653487 0.638758 0.837557 -0.250917
H7    H     H_    0.519304 0.947690 0.697431 0.200719
H8    H     H_    0.468362 0.060580 0.313152 0.190167
N7    N     N_R   0.450590 0.418047 0.836439 0.131055
O17   O     O_R   0.410174 0.472231 0.856945 -0.309467
O18   O     O_R   0.449008 0.292667 0.785067 -0.270257
N8    N     N_R   0.556706 0.547706 0.147334 0.126947
O19   O     O_R   0.593764 0.497010 0.087687 -0.275846
O20   O     O_R   0.563646 0.661340 0.250531 -0.287226
H9    H     H_    0.108710 0.170965 0.316887 0.209640
H10   H     H_    0.885277 0.804493 0.527842 0.225392
N9    N     N_R   0.627407 0.300771 0.257632 0.180501
O21   O     O_R   0.628627 0.275580 0.118852 -0.187233
O22   O     O_R   0.597772 0.229394 0.295707 -0.304461
N10   N     N_R   0.353559 0.674485 0.406846 0.177704
O23   O     O_R   0.342178 0.674014 0.274520 -0.214283
O24   O     O_R   0.386197 0.761521 0.499892 -0.306308
N11   N     N_R   0.728395 0.312160 0.230129 0.182367
O25   O     O_R   0.717086 0.188533 0.189538 -0.178711
O26   O     O_R   0.758381 0.353821 0.162236 -0.280649
N12   N     N_R   0.250387 0.660269 0.383915 0.176557
O27   O     O_R   0.263465 0.783261 0.427089 -0.186621
O28   O     O_R   0.211619 0.611452 0.287099 -0.305217
N13   N     N_R   0.864300 0.131975 0.384502 0.172461
O29   O     O_R   0.831032 0.089981 0.268873 -0.220436
O30   O     O_R   0.879518 0.051894 0.446268 -0.330110
N14   N     N_R   0.136859 0.851888 0.672577 0.168815
O31   O     O_R   0.162232 0.887463 0.589003 -0.234042
O32   O     O_R   0.128604 0.938110 0.794936 -0.297982
H11   H     H_    0.957160 0.165547 0.400361 0.175024
H12   H     H_    0.043680 0.817655 0.647274 0.176375
N15   N     N_R   0.485327 0.847775 0.323895 0.139277
O33   O     O_R   0.509203 0.851308 0.219950 -0.301982
O34   O     O_R   0.440517 0.796882 0.288479 -0.240603
N16   N     N_R   0.551514 0.142229 0.626225 0.142849
O35   O     O_R   0.542621 0.176217 0.760478 -0.276786
O36   O     O_R   0.591418 0.189677 0.600953 -0.260149

loop_
_geom_bond_atom_site_label_1
_geom_bond_atom_site_label_2
_geom_bond_distance
_ccdc_geom_bond_type
N4    C46   1.306607 D    
N9    O21   1.301024 A    
N11   O25   1.301354 A    
C13   C15   1.398511 A    
C42   H7    1.083036 S    
C14   N6    1.431561 S    
C32   C39   1.412423 A    
C31   C33   1.419209 A    
C37   N13   1.435277 S    
O5    C3    1.304571 A    
C11   N10   1.433159 S    
C19   C25   1.413489 A    
N6    O16   1.300911 A    
C24   H10   1.083489 S    
O1    C1    1.292010 A    
C23   H9    1.083475 S    
C6    N2    1.367949 A    
N1    C7    1.370527 A    
C10   C12   1.413447 A    
C39   H3    1.078351 S    
N4    H5    1.029004 S    
C29   C35   1.410186 A    
C40   H4    1.078552 S    
N3    H6    1.028765 S    
C30   C36   1.410050 A    
C9    N12   1.437646 S    
O4    Cu1   1.962884 S    
C41   C43   1.345091 D    
N16   O35   1.300722 A    
C4    C28   1.476638 S    
C24   C40   1.388633 A    
C12   N9    1.439111 S    
N3    C45   1.311091 D    
N12   O28   1.301258 A    
C42   C44   1.355717 D    
N15   O33   1.301681 A    
C35   H11   1.078336 S    
C46   N7    1.426935 S    
C32   C34   1.419353 A    
N1    C17   1.442985 S    
N11   O26   1.301202 A    
Cu1   Cu2   2.697969 S    
C15   H1    1.082996 S    
N15   O34   1.300407 A    
C16   H2    1.083665 S    
O2    C2    1.289735 A    
C5    C21   1.400465 A    
C36   C38   1.396686 A    
Cu1   N4    2.026897 S    
N6    O15   1.300621 A    
C45   C46   1.506014 S    
O4    C2    1.308212 A    
C11   C27   1.413610 A    
N5    O14   1.300967 A    
C19   C34   1.418908 A    
C43   C44   1.468684 S    
C35   C37   1.396686 A    
C9    C17   1.411366 A    
C5    N1    1.368555 A    
O7    Cu2   1.944636 S    
C10   C18   1.412036 A    
C13   C27   1.414655 A    
N10   O24   1.300664 A    
N13   O29   1.301431 A    
C7    C25   1.413006 A    
C29   C33   1.414316 A    
C41   H8    1.085550 S    
O6    C4    1.304964 A    
C8    C26   1.412864 A    
N12   O27   1.301303 A    
C1    C41   1.439338 S    
N14   O32   1.301145 A    
O7    C3    1.297759 A    
O3    Cu2   1.962883 S    
O8    C4    1.300261 A    
N13   O30   1.301273 A    
N2    C8    1.370635 A    
C26   C37   1.415574 A    
N8    O20   1.298697 A    
N9    O22   1.300942 A    
C20   C26   1.413500 A    
O1    Cu1   1.965523 S    
C22   C24   1.398342 A    
C13   N5    1.439577 S    
C12   C28   1.419913 A    
C44   N15   1.444318 S    
N7    O18   1.300293 A    
N2    C18   1.441931 S    
C29   C32   1.419553 A    
C5    O9    1.349924 S    
C30   C31   1.419266 A    
C20   C33   1.418873 A    
O6    Cu2   1.958684 S    
C21   C23   1.398256 A    
C38   N14   1.434807 S    
O3    C1    1.296212 A    
O8    Cu1   1.944642 S    
C7    O12   1.348431 S    
C8    O11   1.348403 S    
C30   C34   1.414068 A    
C2    C42   1.460350 S    
C43   N16   1.440864 S    
C14   C16   1.391402 A    
N5    O13   1.301819 A    
C15   C17   1.399773 A    
C10   N11   1.436757 S    
C6    C22   1.400509 A    
C31   C40   1.412408 A    
C16   C18   1.397397 A    
N10   O23   1.301129 A    
C14   C28   1.412403 A    
C19   C21   1.408895 A    
Cu2   N3    2.026895 S    
C3    C27   1.472246 S    
C20   C22   1.409246 A    
C9    C11   1.408436 A    
N14   O31   1.301435 A    
O2    Cu2   1.965524 S    
N16   O36   1.301086 A    
C36   H12   1.078548 S    
N7    O17   1.300897 A    
C25   C38   1.415458 A    
O5    Cu1   1.958684 S    
C45   N8    1.433805 S    
C6    O10   1.349992 S    
N8    O19   1.300306 A    
C23   C39   1.388543 A    
