data_mof_unit_66914.cif
_audit_creation_date              2013-03-05T15:57:27-0500
_audit_creation_method            fapswitch 2.2
_symmetry_space_group_name_H-M    P1
_symmetry_Int_Tables_number       1
_space_group_crystal_system       triclinic
_cell_length_a                    17.149443
_cell_length_b                    18.347767
_cell_length_c                    8.354834
_cell_angle_alpha                 90.00051
_cell_angle_beta                  101.766192
_cell_angle_gamma                 89.941566
_cell_volume                      2573.64204412

loop_
_atom_site_label
_atom_site_type_symbol
_atom_site_description
_atom_site_fract_x
_atom_site_fract_y
_atom_site_fract_z
_atom_type_partial_charge
P1    P     P_3+3 0.834140 0.419320 0.003900 0.456431
P2    P     P_3+3 0.834140 0.580680 0.503900 0.454484
P3    P     P_3+3 0.334140 0.919320 0.003900 0.457695
P4    P     P_3+3 0.334140 0.080680 0.503900 0.455354
O1    O     O_2   0.841960 0.394640 0.833410 -0.373236
O2    O     O_2   0.841960 0.605360 0.333410 -0.372058
O3    O     O_2   0.341960 0.894640 0.833410 -0.375161
O4    O     O_2   0.341960 0.105360 0.333410 -0.369749
O5    O     O_3   0.907950 0.463080 0.102990 -0.398600
O6    O     O_3   0.907950 0.536920 0.602990 -0.400370
O7    O     O_3   0.407950 0.963080 0.102990 -0.398696
O8    O     O_3   0.407950 0.036920 0.602990 -0.402666
O9    O     O_3   0.972780 0.329600 0.629720 -0.394734
O10   O     O_3   0.972780 0.670400 0.129720 -0.393256
O11   O     O_3   0.472780 0.829600 0.629720 -0.397064
O12   O     O_3   0.472780 0.170400 0.129720 -0.396579
O13   O     O_2   0.839383 0.273731 0.690398 -0.360307
O14   O     O_2   0.840677 0.728207 0.193450 -0.368438
O15   O     O_2   0.340129 0.772855 0.692313 -0.360137
O16   O     O_2   0.340329 0.227516 0.192694 -0.361489
O17   O     O_3   0.751215 0.477138 0.969081 -0.581376
O18   O     O_3   0.751179 0.523072 0.468091 -0.581365
O19   O     O_3   0.251256 0.977186 0.969476 -0.578915
O20   O     O_3   0.251074 0.023194 0.467724 -0.581503
O21   O     O_3   0.944312 0.178168 0.644766 -0.490385
O22   O     O_3   0.946247 0.821843 0.140164 -0.483905
O23   O     O_3   0.445476 0.678261 0.642583 -0.489499
O24   O     O_3   0.445649 0.321818 0.141821 -0.488020
H1    H     H_    0.064399 0.200776 0.708983 0.125298
H2    H     H_    0.066842 0.801353 0.202154 0.120005
H3    H     H_    0.564591 0.703915 0.714760 0.131221
H4    H     H_    0.565386 0.298640 0.213799 0.129460
C1    C     C_3   0.042981 0.095460 0.593854 -1.014431
C2    C     C_3   0.042223 0.901913 0.067557 -1.021494
C3    C     C_3   0.548134 0.598969 0.596889 -1.020504
C4    C     C_3   0.546080 0.401108 0.085323 -1.026586
H5    H     H_    0.610639 0.596477 0.579837 0.242236
H6    H     H_    0.608590 0.403759 0.068341 0.244243
H7    H     H_    0.104771 0.091050 0.573118 0.242717
H8    H     H_    0.103493 0.905256 0.043764 0.245028
H9    H     H_    0.038104 0.065767 0.706913 0.271415
H10   H     H_    0.037763 0.935976 0.174777 0.273608
H11   H     H_    0.542443 0.568455 0.708355 0.276705
H12   H     H_    0.539573 0.433983 0.193113 0.277063
P5    P     P_3+3 0.165830 0.418670 0.685610 0.521416
P6    P     P_3+3 0.165830 0.581330 0.185610 0.520999
P7    P     P_3+3 0.665830 0.918670 0.685610 0.511604
P8    P     P_3+3 0.665830 0.081330 0.185610 0.527847
P9    P     P_3+3 0.100892 0.262694 0.110616 0.446551
P10   P     P_3+3 0.100234 0.737839 0.610592 0.442953
P11   P     P_3+3 0.600866 0.762657 0.110152 0.449521
P12   P     P_3+3 0.600931 0.237186 0.610509 0.445729
O25   O     O_2   0.157990 0.394030 0.856030 -0.308342
O26   O     O_2   0.157990 0.605970 0.356030 -0.305662
O27   O     O_2   0.657990 0.894030 0.856030 -0.290220
O28   O     O_2   0.657990 0.105970 0.356030 -0.324041
O29   O     O_3   0.027110 0.329490 0.059550 -0.381510
O30   O     O_3   0.027110 0.670510 0.559550 -0.387590
O31   O     O_3   0.527110 0.829490 0.059550 -0.373268
O32   O     O_3   0.527110 0.170510 0.559550 -0.380086
O33   O     O_2   0.162772 0.275086 0.002518 -0.357250
O34   O     O_2   0.161455 0.726285 0.500494 -0.357452
O35   O     O_2   0.661905 0.774476 0.999931 -0.370984
O36   O     O_2   0.663311 0.224017 0.503937 -0.355334
O37   O     O_3   0.248536 0.476440 0.724471 -0.516632
O38   O     O_3   0.248376 0.523216 0.225964 -0.516836
O39   O     O_3   0.748338 0.976602 0.729027 -0.524272
O40   O     O_3   0.748187 0.022866 0.215954 -0.517160
O41   O     O_3   0.058875 0.178651 0.043746 -0.523986
O42   O     O_3   0.057780 0.822346 0.547426 -0.527393
O43   O     O_3   0.558709 0.678492 0.044795 -0.524654
O44   O     O_3   0.559540 0.321206 0.541260 -0.524171
C5    C     C_3   0.988085 0.169003 0.101490 0.465840
C6    C     C_3   0.982127 0.826591 0.587100 0.453987
C7    C     C_3   0.488750 0.668501 0.105221 0.460494
C8    C     C_3   0.490168 0.332959 0.602727 0.460012
H13   H     H_    0.936761 0.187575 0.006573 0.122465
H14   H     H_    0.937965 0.797053 0.493691 0.132339
H15   H     H_    0.436793 0.687698 0.012596 0.120287
H16   H     H_    0.437775 0.312193 0.513567 0.120445
H17   H     H_    0.986883 0.198935 0.216492 0.022325
H18   H     H_    0.981370 0.803694 0.709881 0.023343
H19   H     H_    0.488893 0.697635 0.221809 0.022091
H20   H     H_    0.491421 0.306383 0.722686 0.021856
C9    C     C_3   0.979025 0.088448 0.134697 -1.037929
C10   C     C_3   0.958128 0.906287 0.588210 -0.986082
C11   C     C_3   0.479847 0.587694 0.136009 -1.030102
C12   C     C_3   0.481171 0.414362 0.625568 -1.025761
H21   H     H_    0.425644 0.577860 0.186443 0.258718
H22   H     H_    0.428556 0.425469 0.680145 0.255181
H23   H     H_    0.924542 0.079139 0.184468 0.256890
H24   H     H_    0.897574 0.911204 0.615428 0.248967
H25   H     H_    0.975060 0.056996 0.019856 0.280798
H26   H     H_    0.958955 0.931505 0.467917 0.272917
H27   H     H_    0.475562 0.556949 0.020122 0.278732
H28   H     H_    0.474079 0.442537 0.505864 0.279509
C13   C     C_3   0.224168 0.453449 0.261895 0.432407
C14   C     C_3   0.225081 0.546079 0.763394 0.424122
C15   C     C_3   0.734098 0.961523 0.305082 0.392554
C16   C     C_3   0.724037 0.046615 0.762906 0.404410
C17   C     C_3   0.297806 0.405903 0.306932 -0.866639
C18   C     C_3   0.298796 0.593681 0.800868 -0.855098
C19   C     C_3   0.788235 0.900211 0.270823 -0.812696
C20   C     C_3   0.797457 0.094593 0.800481 -0.852262
H29   H     H_    0.333576 0.424788 0.425156 0.237584
H30   H     H_    0.339592 0.572181 0.911007 0.239344
H31   H     H_    0.847449 0.921837 0.261267 0.280390
H32   H     H_    0.837718 0.074144 0.912398 0.244121
Ba1   Ba    Ba6+2 0.000000 0.447380 0.844850 1.559988
Ba2   Ba    Ba6+2 0.000000 0.552620 0.344850 1.558476
Ba3   Ba    Ba6+2 0.500000 0.947380 0.844850 1.560845
Ba4   Ba    Ba6+2 0.500000 0.052620 0.344850 1.561315
C21   C     C_3   0.770506 0.544251 0.907910 0.371024
C22   C     C_3   0.771290 0.455128 0.412111 0.367340
C23   C     C_3   0.270680 0.044362 0.908786 0.370923
C24   C     C_3   0.271747 0.954673 0.415897 0.363949
H33   H     H_    0.767240 0.538574 0.775254 0.113024
H34   H     H_    0.772207 0.459741 0.280848 0.113612
H35   H     H_    0.269046 0.038530 0.776717 0.110589
H36   H     H_    0.277270 0.958632 0.286911 0.112702
H37   H     H_    0.830222 0.564372 0.968925 0.125301
H38   H     H_    0.829375 0.434248 0.480738 0.129077
H39   H     H_    0.329760 0.065002 0.972379 0.125342
H40   H     H_    0.327700 0.933056 0.492140 0.132384
C25   C     C_3   0.709623 0.600393 0.936486 -0.874009
C26   C     C_3   0.707768 0.400608 0.434194 -0.867936
C27   C     C_3   0.208608 0.100024 0.933672 -0.867661
C28   C     C_3   0.205548 0.901575 0.429250 -0.862799
H41   H     H_    0.649501 0.575871 0.915669 0.275554
H42   H     H_    0.647907 0.425377 0.398076 0.271065
H43   H     H_    0.148515 0.075337 0.906814 0.273513
H44   H     H_    0.146902 0.926392 0.378808 0.265303
H45   H     H_    0.708883 0.647567 0.853362 0.209860
H46   H     H_    0.710805 0.351315 0.359060 0.210235
H47   H     H_    0.209392 0.147756 0.852724 0.207466
H48   H     H_    0.211771 0.850741 0.361456 0.210984
O45   O     O_3   0.092100 0.536880 0.086720 -0.434998
O46   O     O_3   0.092100 0.463120 0.586720 -0.433407
O47   O     O_3   0.592100 0.036880 0.086720 -0.411054
O48   O     O_3   0.592100 0.963120 0.586720 -0.436962
P13   P     P_3+3 0.901027 0.738116 0.080773 0.512576
P14   P     P_3+3 0.900776 0.262148 0.580744 0.513499
P15   P     P_3+3 0.400976 0.238018 0.080936 0.517380
P16   P     P_3+3 0.400944 0.762093 0.581001 0.513385
C29   C     C_3   0.020736 0.174960 0.608488 0.494975
C30   C     C_3   0.021745 0.823430 0.098837 0.492786
C31   C     C_3   0.523017 0.677576 0.611635 0.497332
C32   C     C_3   0.522834 0.322636 0.108804 0.495362
H49   H     H_    0.024174 0.202340 0.491656 0.014425
H50   H     H_    0.024610 0.791772 0.986792 0.017354
H51   H     H_    0.527328 0.705854 0.496272 0.014350
H52   H     H_    0.527436 0.292164 0.996288 0.016121
H53   H     H_    0.508497 0.573031 0.490992 0.275336
H54   H     H_    0.506021 0.424443 0.976423 0.274603
H55   H     H_    0.001286 0.069840 0.490334 0.275942
H56   H     H_    0.999343 0.923273 0.960372 0.275395
C33   C     C_R   0.137056 0.678423 0.925095 -0.540769
C34   C     C_R   0.136355 0.321231 0.425849 -0.534938
C35   C     C_R   0.636106 0.178949 0.925847 -0.538869
C36   C     C_R   0.636722 0.821272 0.425697 -0.522672
C37   C     C_R   0.863950 0.322993 0.267208 -0.622725
C38   C     C_R   0.863842 0.676636 0.767673 -0.623785
C39   C     C_R   0.363765 0.823279 0.267753 -0.625857
C40   C     C_R   0.364075 0.176875 0.767422 -0.621427
C41   C     C_R   0.797261 0.209767 0.299139 0.691125
C42   C     C_R   0.797782 0.790321 0.798493 0.690058
C43   C     C_R   0.297276 0.709943 0.299566 0.694287
C44   C     C_R   0.297158 0.290028 0.799592 0.695499
C45   C     C_R   0.851035 0.264253 0.363496 0.079704
C46   C     C_R   0.850852 0.735425 0.863831 0.083781
C47   C     C_R   0.350874 0.764519 0.364021 0.076311
C48   C     C_R   0.350907 0.235493 0.863941 0.077850
C49   C     C_R   0.817377 0.333194 0.111141 0.304292
C50   C     C_R   0.817554 0.666704 0.611237 0.298129
C51   C     C_R   0.317493 0.833228 0.111268 0.307756
C52   C     C_R   0.317475 0.166743 0.611318 0.304080
C53   C     C_R   0.756342 0.281377 0.048549 -0.140545
C54   C     C_R   0.756922 0.718813 0.548138 -0.140914
C55   C     C_R   0.256775 0.781194 0.048299 -0.140906
C56   C     C_R   0.256469 0.218618 0.548718 -0.139403
C57   C     C_R   0.246348 0.718181 0.143715 -0.291605
C58   C     C_R   0.246076 0.281695 0.643959 -0.293584
C59   C     C_R   0.745973 0.218269 0.143720 -0.290702
C60   C     C_R   0.746596 0.781899 0.643280 -0.291729
C61   C     C_R   0.184379 0.667148 0.080318 0.339563
C62   C     C_R   0.183968 0.332677 0.580671 0.342134
C63   C     C_R   0.683727 0.167404 0.080564 0.342549
C64   C     C_R   0.684445 0.832853 0.580304 0.312656
C65   C     C_R   0.151286 0.736275 0.827645 0.206245
C66   C     C_R   0.150741 0.263423 0.328391 0.197987
C67   C     C_R   0.650499 0.236736 0.828405 0.199820
C68   C     C_R   0.651648 0.763928 0.327464 0.211184
C69   C     C_R   0.207789 0.789092 0.891320 -0.141655
C70   C     C_R   0.207283 0.210577 0.392068 -0.142332
C71   C     C_R   0.707115 0.289475 0.891959 -0.143432
C72   C     C_R   0.708119 0.711063 0.391071 -0.136599
H57   H     H_    0.091711 0.639027 0.874847 0.169213
H58   H     H_    0.090922 0.360632 0.375588 0.168312
H59   H     H_    0.590720 0.139590 0.875599 0.167727
H60   H     H_    0.590246 0.859901 0.376764 0.169834
H61   H     H_    0.908094 0.363300 0.318102 0.199393
H62   H     H_    0.908061 0.636321 0.818566 0.200184
H63   H     H_    0.407627 0.863779 0.318934 0.199767
H64   H     H_    0.408467 0.136662 0.818075 0.199446
H65   H     H_    0.281170 0.348222 0.319140 0.232604
H66   H     H_    0.282867 0.650651 0.824282 0.226954
H67   H     H_    0.796146 0.858958 0.369610 0.190318
H68   H     H_    0.781068 0.151738 0.820621 0.228985
H69   H     H_    0.333913 0.409788 0.210820 0.318279
H70   H     H_    0.329445 0.592940 0.695596 0.322576
H71   H     H_    0.761490 0.873453 0.153945 0.318053
H72   H     H_    0.828919 0.092902 0.696547 0.317865
H73   H     H_    0.724684 0.619748 0.064340 0.272067
H74   H     H_    0.716619 0.384654 0.564375 0.271022
H75   H     H_    0.221115 0.118526 0.062403 0.271779
H76   H     H_    0.207919 0.888325 0.559434 0.271026
H77   H     H_    0.532949 0.567927 0.224421 0.269095
H78   H     H_    0.535264 0.435743 0.708133 0.271195
H79   H     H_    0.031798 0.069121 0.224646 0.269892
H80   H     H_    0.001140 0.936003 0.682831 0.264006
F1    F     F_    0.297822 0.649348 0.391766 -0.653397
F2    F     F_    0.297771 0.350675 0.891741 -0.650129
F3    F     F_    0.798004 0.149003 0.390929 -0.663766
F4    F     F_    0.799786 0.851851 0.887862 -0.654021
H81   H     H_    0.713141 0.335455 0.815677 0.170884
H82   H     H_    0.713900 0.664986 0.314891 0.170449
H83   H     H_    0.213754 0.835075 0.814911 0.171782
H84   H     H_    0.213228 0.164543 0.315798 0.172223
H85   H     H_    0.193750 0.455770 0.366609 0.070851
H86   H     H_    0.197924 0.543402 0.872589 0.072464
H87   H     H_    0.749460 0.975231 0.436597 0.110886
H88   H     H_    0.695678 0.044965 0.870447 0.092510
H89   H     H_    0.184090 0.429110 0.154223 0.137011
H90   H     H_    0.182557 0.570593 0.659202 0.134988
H91   H     H_    0.671410 0.942333 0.271267 0.084315
H92   H     H_    0.682266 0.070057 0.656262 0.133161

loop_
_geom_bond_atom_site_label_1
_geom_bond_atom_site_label_2
_geom_bond_distance
_ccdc_geom_bond_type
C15   C19   1.521712 S    
C12   H28   1.110185 S    
P1    O17   1.749461 S    
O15   P16   1.544912 D    
C65   C69   1.397395 A    
O43   C7    1.405480 S    
O16   P15   1.545048 D    
Ba4   O48   2.822745 S    
P3    O19   1.749451 S    
O21   P14   1.747161 S    
C2    H10   1.107596 S    
C16   H92   1.109546 S    
P8    O28   1.525679 D    
O44   C8    1.405073 S    
C39   C51   1.396038 A    
C8    H20   1.110817 S    
C9    H23   1.110799 S    
C4    H54   1.107960 S    
C36   H60   1.081988 S    
P16   C47   1.841388 S    
C39   H63   1.082032 S    
C1    H7    1.110936 S    
C35   C63   1.397083 A    
C38   H62   1.081835 S    
P1    O1    1.526358 D    
C68   C72   1.396175 A    
O38   C13   1.397483 S    
C37   H61   1.081978 S    
C3    H5    1.110663 S    
C33   C61   1.397751 A    
O37   C14   1.397279 S    
P6    O38   1.748378 S    
P3    O3    1.526358 D    
C44   F2    1.351934 S    
C34   C66   1.389321 A    
H1    C29   1.111006 S    
P4    O20   1.749450 S    
P5    Ba1   3.416906 S    
P5    C62   1.861453 S    
C21   C25   1.519105 S    
C26   H42   1.106424 S    
O25   Ba1   2.863446 S    
C34   C62   1.397722 A    
C16   C20   1.516522 S    
P9    O29   1.749783 S    
O26   Ba2   2.865333 S    
O6    Ba1   2.822768 S    
Ba1   O45   2.824597 S    
C40   H64   1.081914 S    
C58   C62   1.434340 A    
P4    C52   1.866611 S    
C70   H84   1.075236 S    
O22   C30   1.406712 S    
P10   C65   1.846175 S    
C43   F1    1.351497 S    
C29   H49   1.110033 S    
O9    Ba1   2.788942 S    
C10   H26   1.109151 S    
P1    Ba1   3.415558 S    
C30   H50   1.111213 S    
C25   H73   1.105226 S    
C4    C32   1.517723 S    
C13   H85   1.106984 S    
Ba3   Ba4   4.602108 S    
P3    Ba3   3.415558 S    
C11   H27   1.110012 S    
P7    O48   1.586944 S    
P2    O18   1.749389 S    
O31   Ba3   2.787535 S    
O41   C5    1.406128 S    
C14   H90   1.110112 S    
P4    O8    1.582035 S    
O22   P13   1.747296 S    
C3    H11   1.107909 S    
C38   C50   1.395973 A    
C50   C54   1.430952 A    
P11   C68   1.846770 S    
P11   O35   1.544152 D    
P4    O4    1.526447 D    
C37   C45   1.389588 A    
C35   H59   1.082328 S    
C10   H80   1.108747 S    
P4    Ba4   3.414679 S    
O10   P13   1.736865 S    
P5    O25   1.525767 D    
P9    O41   1.745616 S    
C17   H29   1.106943 S    
O2    Ba2   2.860109 S    
Ba4   O47   2.935550 S    
C26   H74   1.106469 S    
P2    O2    1.526447 D    
P11   O43   1.745513 S    
C6    H18   1.111030 S    
C28   H44   1.105740 S    
C5    H17   1.110520 S    
C56   C58   1.435873 A    
Ba3   O48   2.935870 S    
H2    C30   1.111042 S    
C33   C65   1.389500 A    
O14   P13   1.545388 D    
C41   C45   1.392330 A    
O23   C31   1.405534 S    
C72   H82   1.074799 S    
C32   H52   1.110254 S    
O24   C32   1.406202 S    
C23   H39   1.110626 S    
C71   H81   1.075001 S    
Ba3   O47   2.824597 S    
P10   O30   1.750880 S    
C7    H19   1.110671 S    
C3    H53   1.107579 S    
Ba2   O46   2.822745 S    
O12   P15   1.736049 S    
C42   C60   1.418476 A    
C36   C68   1.389677 A    
P8    C63   1.862636 S    
O17   C21   1.398827 S    
C35   C67   1.389381 A    
P12   O36   1.543882 D    
C19   H71   1.105762 S    
C57   C61   1.434972 A    
C13   H89   1.108840 S    
C18   H70   1.112896 S    
C43   C47   1.391986 A    
P9    C66   1.845844 S    
C17   H69   1.111844 S    
C14   C18   1.516507 S    
C54   C72   1.412471 A    
C6    C10   1.519202 S    
C24   H36   1.103286 S    
C23   C27   1.519012 S    
O29   Ba1   2.787535 S    
Ba1   O46   2.935870 S    
P12   C67   1.845447 S    
C41   C59   1.420562 A    
C31   H51   1.110307 S    
C39   C47   1.389643 A    
O42   C6    1.405134 S    
O32   Ba4   2.788246 S    
O11   Ba3   2.788942 S    
C37   C49   1.395745 A    
C9    H25   1.109814 S    
C38   C46   1.389605 A    
C49   C53   1.432388 A    
C54   C60   1.435263 A    
P3    C51   1.867273 S    
P1    C49   1.867753 S    
P12   O44   1.745097 S    
P6    O26   1.525679 D    
O23   P16   1.746753 S    
P1    O5    1.583337 S    
P7    O39   1.748506 S    
O24   P15   1.747344 S    
C3    C31   1.516976 S    
O9    P14   1.738077 S    
P8    O40   1.749458 S    
C18   H66   1.107565 S    
C69   H83   1.075476 S    
C22   H34   1.103256 S    
C17   H65   1.106491 S    
O39   C16   1.396771 S    
C28   H76   1.107126 S    
P6    O45   1.588262 S    
C21   H33   1.103206 S    
C7    C11   1.517929 S    
P8    Ba4   3.417805 S    
C28   H48   1.107499 S    
C12   H22   1.109529 S    
C15   H91   1.111964 S    
O20   C24   1.398379 S    
C12   H78   1.109086 S    
C44   C58   1.420307 A    
C11   H21   1.110967 S    
C25   H41   1.106170 S    
C24   C28   1.518005 S    
P10   O34   1.544924 D    
C2    H8    1.110249 S    
C4    H12   1.108220 S    
P11   O31   1.749588 S    
C20   H72   1.112278 S    
C42   F4    1.350106 S    
P2    O6    1.582035 S    
C20   H32   1.108151 S    
C11   H77   1.109734 S    
C56   C70   1.412865 A    
O12   Ba4   2.788229 S    
P7    O27   1.525767 D    
C55   C69   1.413249 A    
C44   C48   1.391368 A    
C25   H45   1.108165 S    
O5    Ba2   2.824621 S    
O10   Ba2   2.788229 S    
C40   C48   1.389873 A    
C8    C12   1.517403 S    
P14   C45   1.841767 S    
P2    Ba2   3.414679 S    
C5    H13   1.111049 S    
C53   C71   1.412689 A    
P8    O47   1.588262 S    
O27   Ba3   2.863446 S    
O7    Ba4   2.824621 S    
O30   Ba2   2.788246 S    
Ba2   O45   2.935550 S    
C8    H16   1.111360 S    
C19   H67   1.107541 S    
P15   C48   1.841585 S    
C15   H87   1.105473 S    
C1    H55   1.108486 S    
C42   C46   1.391533 A    
H4    C32   1.110927 S    
C2    H56   1.107766 S    
C51   C55   1.432166 A    
O18   C22   1.398804 S    
C23   H35   1.103247 S    
C14   H86   1.106774 S    
C53   C59   1.436199 A    
C19   H31   1.108573 S    
C1    H9    1.108316 S    
C27   H43   1.106453 S    
O4    Ba4   2.860109 S    
P10   O42   1.747473 S    
O40   C15   1.397704 S    
H3    C31   1.111026 S    
C5    C9    1.517783 S    
P6    Ba2   3.417805 S    
C10   H24   1.111016 S    
Ba1   Ba2   4.602108 S    
P2    C50   1.865316 S    
P5    O37   1.748123 S    
C2    C30   1.517796 S    
P9    O33   1.544303 D    
C27   H75   1.106378 S    
C43   C57   1.420236 A    
O1    Ba1   2.861978 S    
C41   F3    1.351755 S    
P7    Ba3   3.416906 S    
C4    H6    1.110776 S    
P5    O46   1.586944 S    
C34   H58   1.082322 S    
O3    Ba3   2.861978 S    
C40   C52   1.396218 A    
C33   H57   1.082334 S    
C20   H68   1.106946 S    
P6    C61   1.862656 S    
C9    H79   1.109750 S    
C27   H47   1.108272 S    
C67   C71   1.397364 A    
P3    O7    1.583337 S    
C66   C70   1.396838 A    
O19   C23   1.398899 S    
O11   P16   1.736691 S    
C22   H38   1.110887 S    
C60   C64   1.433929 A    
C52   C56   1.431376 A    
C21   H37   1.110312 S    
C26   H46   1.108140 S    
P12   O32   1.750414 S    
C6    H14   1.111801 S    
C18   H30   1.108477 S    
C22   C26   1.518416 S    
C36   C64   1.397394 A    
O13   P14   1.544634 D    
C16   H88   1.105869 S    
O21   C29   1.405312 S    
P7    C64   1.862445 S    
C24   H40   1.110762 S    
C7    H15   1.111325 S    
O28   Ba4   2.865333 S    
O8    Ba3   2.822768 S    
C13   C17   1.517012 S    
C59   C63   1.435707 A    
C1    C29   1.518575 S    
P13   C46   1.841753 S    
C55   C57   1.436213 A    
