data_mof_unit_5826.cif
_audit_creation_date              2012-12-10T18:21:26-0500
_audit_creation_method            fapswitch 2.2
_symmetry_space_group_name_H-M    P1
_symmetry_Int_Tables_number       1
_space_group_crystal_system       triclinic
_cell_length_a                    14.938818
_cell_length_b                    14.110894
_cell_length_c                    10.723628
_cell_angle_alpha                 89.848424
_cell_angle_beta                  90.139724
_cell_angle_gamma                 90.196966
_cell_volume                      2260.51367177

loop_
_atom_site_label
_atom_site_type_symbol
_atom_type_description
_atom_site_fract_x
_atom_site_fract_y
_atom_site_fract_z
_atom_type_partial_charge
C1    C     C_R   0.326867 0.499875 0.499039 0.990690
C2    C     C_R   0.047865 0.544316 0.725105 0.498953
C3    C     C_R   0.094397 0.518176 0.616380 -0.042461
C4    C     C_R   0.501623 0.500049 0.257830 0.845992
C5    C     C_R   0.046290 0.486991 0.510738 -0.055007
C6    C     C_R   0.091441 0.456573 0.402866 0.059312
C7    C     C_R   0.043342 0.417406 0.303183 -0.192631
C8    C     C_R   0.950639 0.414137 0.306162 -0.222564
C9    C     C_R   0.187462 0.521765 0.610893 -0.195637
C10   C     C_R   0.231096 0.499025 0.500304 -0.180127
C11   C     C_R   0.183453 0.471032 0.393782 0.437486
C12   C     C_3   0.592782 0.490962 0.926665 -0.542367
C13   C     C_R   0.562943 0.798224 0.431883 -0.060602
C14   C     C_R   0.562214 0.202543 0.430597 -0.092914
C15   C     C_R   0.436728 0.799113 0.565484 0.452522
C16   C     C_R   0.437337 0.200248 0.566523 0.456057
C17   C     C_R   0.436069 0.899212 0.566110 -0.007382
C18   C     C_R   0.436377 0.100144 0.566661 -0.006924
C19   C     C_R   0.672947 0.500174 0.500970 0.931767
C20   C     C_R   0.499588 0.949581 0.494806 -0.014698
C21   C     C_R   0.499518 0.050488 0.494687 -0.008413
C22   C     C_R   0.563431 0.899034 0.425450 -0.165385
C23   C     C_R   0.812835 0.455365 0.407538 -0.330454
C24   C     C_R   0.562209 0.101747 0.423312 -0.166366
C25   C     C_R   0.373234 0.950133 0.636420 -0.159835
C26   C     C_R   0.373494 0.048527 0.636872 -0.165539
C27   C     C_R   0.623190 0.051000 0.347357 0.402310
C28   C     C_R   0.625614 0.950256 0.351446 0.404678
C29   C     C_R   0.495988 0.499962 0.742507 0.967580
C30   C     C_3   0.466185 0.597017 0.073434 -0.437187
C31   C     C_3   0.438964 0.418542 0.074988 -0.415322
C32   C     C_3   0.456250 0.595398 0.931758 0.286810
C33   C     C_3   0.441134 0.413340 0.932463 0.294787
C34   C     C_R   0.768370 0.499897 0.504718 -0.126284
C35   C     C_3   0.595635 0.484091 0.070203 -0.456376
C36   C     C_3   0.500491 0.499942 0.121831 0.073762
C37   C     C_3   0.494405 0.500040 0.879646 -0.042416
C38   C     C_3   0.112542 0.466157 0.888584 0.146399
C39   C     C_3   0.031184 0.415569 0.946175 -0.464772
C40   C     C_3   0.054577 0.313984 0.983033 -0.876812
C41   C     C_3   0.237126 0.554154 0.224758 0.014268
C42   C     C_3   0.149844 0.610111 0.203006 -0.406728
C43   C     C_3   0.166802 0.699822 0.126876 -0.794381
C44   C     C_3   0.640486 0.129095 0.162651 0.057426
C45   C     C_R   0.814334 0.539431 0.606298 0.345130
C46   C     C_3   0.709121 0.174998 0.075873 -0.306589
C47   C     C_3   0.665736 0.207957 0.954321 -0.958226
C48   C     C_3   0.667511 0.871931 0.173638 0.070055
C49   C     C_3   0.722069 0.784573 0.138012 -0.351177
C50   C     C_3   0.703537 0.754246 0.003910 -0.886903
C51   C     C_R   0.907272 0.529518 0.612900 -0.036978
C52   C     C_R   0.952860 0.488655 0.511204 0.033604
C53   C     C_R   0.905228 0.452256 0.407896 0.166986
C54   C     C_R   0.955544 0.556890 0.719350 -0.242802
Cl1   Cl    Cl    0.353747 0.737629 0.647773 -0.555767
Cl2   Cl    Cl    0.356193 0.261173 0.651661 -0.558073
Cl3   Cl    Cl    0.341790 0.617457 0.891996 -0.583628
Cl4   Cl    Cl    0.329682 0.400571 0.874175 -0.596822
Cl5   Cl    Cl    0.755218 0.600980 0.723384 -0.705472
H1    H     H_    0.514665 0.653808 0.099353 0.163012
H2    H     H_    0.402381 0.616205 0.119255 0.192032
H3    H     H_    0.369983 0.429036 0.109918 0.226415
H4    H     H_    0.495294 0.656096 0.893349 0.142746
H5    H     H_    0.476363 0.347137 0.905405 0.138709
H6    H     H_    0.642821 0.538168 0.108029 0.187918
H7    H     H_    0.620881 0.413202 0.099077 0.188435
H8    H     H_    0.631392 0.554443 0.897526 0.252129
H9    H     H_    0.625820 0.427804 0.885499 0.210074
H10   H     H_    0.775208 0.425785 0.329975 0.147896
H11   H     H_    0.922005 0.582336 0.802016 0.216050
H12   H     H_    0.461696 0.348942 0.112437 0.167135
H13   H     H_    0.162874 0.477213 0.963433 0.222613
H14   H     H_    0.144456 0.419268 0.818251 0.198352
H15   H     H_    0.008152 0.455440 0.029119 0.223429
H16   H     H_    0.974881 0.412112 0.878734 0.235106
H17   H     H_    0.065942 0.270738 0.898152 0.281506
H18   H     H_    0.998409 0.282174 0.036537 0.257414
H19   H     H_    0.116187 0.312190 0.041102 0.281799
H20   H     H_    0.267367 0.543181 0.131970 0.215022
H21   H     H_    0.285154 0.597095 0.280422 0.152376
H22   H     H_    0.100680 0.565438 0.152288 0.237932
H23   H     H_    0.226240 0.544068 0.691152 0.264145
H24   H     H_    0.120523 0.631507 0.293727 0.224860
H25   H     H_    0.218645 0.744518 0.172573 0.255417
H26   H     H_    0.103899 0.741167 0.119425 0.260096
H27   H     H_    0.188934 0.681284 0.031385 0.321860
H28   H     H_    0.587771 0.182238 0.183186 0.132530
H29   H     H_    0.608203 0.068563 0.113461 0.119590
H30   H     H_    0.740079 0.237006 0.123304 0.217334
H31   H     H_    0.762682 0.123104 0.054306 0.237244
H32   H     H_    0.637626 0.146488 0.902695 0.274442
H33   H     H_    0.716634 0.243412 0.894868 0.272596
H34   H     H_    0.077574 0.390714 0.222240 0.199979
H35   H     H_    0.611308 0.259079 0.973923 0.253162
H36   H     H_    0.681626 0.928779 0.104685 0.168182
H37   H     H_    0.594933 0.852858 0.168818 0.106626
H38   H     H_    0.794642 0.800572 0.148118 0.251398
H39   H     H_    0.705229 0.724920 0.201716 0.210366
H40   H     H_    0.631201 0.739529 0.990185 0.249152
H41   H     H_    0.741718 0.688820 0.983233 0.292210
H42   H     H_    0.724833 0.810714 0.937891 0.283608
H43   H     H_    0.914502 0.384911 0.227277 0.149136
H44   H     H_    0.611885 0.757609 0.381057 0.177664
H45   H     H_    0.611610 0.243787 0.380458 0.178795
H46   H     H_    0.323291 0.914987 0.692986 0.206474
H47   H     H_    0.323702 0.083131 0.693649 0.203571
N1    N     N_R   0.500070 0.750030 0.500050 -0.143417
N2    N     N_R   0.500070 0.249970 0.500050 -0.142498
O1    O     O_R   0.367860 0.580280 0.500020 -0.586469
O2    O     O_3   0.224631 0.462846 0.278667 -0.666837
O3    O     O_3   0.684176 0.098823 0.273077 -0.611256
O4    O     O_3   0.694922 0.902897 0.293179 -0.600744
O5    O     O_R   0.367860 0.419720 0.500020 -0.543590
O6    O     O_R   0.500000 0.580270 0.314790 -0.652197
O7    O     O_R   0.500000 0.419730 0.314790 -0.636076
O8    O     O_R   0.632160 0.580270 0.499960 -0.591011
O9    O     O_R   0.632160 0.419730 0.499960 -0.636679
O10   O     O_R   0.500030 0.580270 0.685200 -0.570509
O11   O     O_R   0.500030 0.419730 0.685200 -0.591352
O12   O     O_3   0.090541 0.556409 0.838698 -0.631484
Zn1   Zn    Zn3+2 0.500020 0.607200 0.499990 1.017915
Zn2   Zn    Zn3+2 0.500020 0.392800 0.499990 1.013111

loop_
_geom_bond_atom_site_label_1
_geom_bond_atom_site_label_2
_ccdc_geom_bond_type
C4    C36   S    
C33   Cl4   S    
C48   H36   S    
C18   C21   A    
C47   H33   S    
C23   H10   S    
C4    O7    A    
C35   C36   S    
C18   C26   A    
C24   C27   A    
C13   N1    A    
C26   H47   S    
C41   H21   S    
C25   H46   S    
C7    C8    A    
C46   H30   S    
C28   O4    S    
C29   O11   A    
C50   H40   S    
C4    O6    A    
C38   C39   S    
C45   C51   A    
C14   C24   A    
C17   C20   A    
C41   C42   S    
C39   H15   S    
C15   N1    A    
C12   C37   S    
C1    O1    A    
C49   H39   S    
O6    Zn1   S    
O5    Zn2   S    
C30   H1    S    
C31   C33   S    
C5    C52   A    
C39   H16   S    
C13   H44   S    
C44   H28   S    
C9    C10   A    
C9    H23   S    
C38   O12   S    
C14   N2    A    
C27   O3    S    
O7    Zn2   S    
C22   C28   A    
C11   O2    S    
C43   H25   S    
C31   H3    S    
C42   H22   S    
C1    O5    A    
C32   Cl3   S    
C44   C46   S    
C23   C53   A    
C7    H34   S    
C12   H8    S    
C38   H13   S    
O8    Zn1   S    
C42   H24   S    
C51   C52   A    
C43   H26   S    
C2    C54   A    
C6    C11   A    
C2    O12   S    
C35   H7    S    
C25   C26   A    
C33   C37   S    
C40   H17   S    
O10   Zn1   S    
C15   Cl1   S    
O9    Zn2   S    
C16   Cl2   S    
C3    C9    A    
C12   H9    S    
C14   H45   S    
C54   H11   S    
C23   C34   A    
C34   C45   A    
C32   C37   S    
C12   C35   S    
C48   C49   S    
C48   O4    S    
C20   C22   A    
C41   O2    S    
C40   H19   S    
C21   C24   A    
C42   C43   S    
N1    Zn1   S    
C39   C40   S    
C52   C53   A    
O11   Zn2   S    
C15   C17   A    
C46   C47   S    
C45   Cl5   S    
C48   H37   S    
C31   C36   S    
C43   H27   S    
C47   H32   S    
C1    C10   S    
C32   H4    S    
N2    Zn2   S    
C3    C5    A    
C19   C34   S    
C8    C53   A    
C41   H20   S    
C6    C7    A    
C46   H31   S    
C29   O10   A    
C50   H41   S    
C30   C36   S    
C51   C54   A    
C17   C25   A    
C2    C3    A    
C30   C32   S    
O1    Zn1   S    
C5    C6    A    
C19   O8    A    
C33   H5    S    
C31   H12   S    
C47   H35   S    
C13   C22   A    
C10   C11   A    
C16   N2    A    
C49   H38   S    
C44   O3    S    
C20   C21   A    
C19   O9    A    
C50   H42   S    
C16   C18   A    
C49   C50   S    
C30   H2    S    
C29   C37   S    
C27   C28   A    
C35   H6    S    
C40   H18   S    
C44   H29   S    
C8    H43   S    
C38   H14   S    
