data_mof_unit_62727.cif
_audit_creation_date              2013-03-05T16:12:59-0500
_audit_creation_method            fapswitch 2.2
_symmetry_space_group_name_H-M    P1
_symmetry_Int_Tables_number       1
_space_group_crystal_system       triclinic
_cell_length_a                    23.776078
_cell_length_b                    6.90348
_cell_length_c                    22.024705
_cell_angle_alpha                 89.965204
_cell_angle_beta                  101.940088
_cell_angle_gamma                 90.044148
_cell_volume                      3536.86828471

loop_
_atom_site_label
_atom_site_type_symbol
_atom_site_description
_atom_site_fract_x
_atom_site_fract_y
_atom_site_fract_z
_atom_type_partial_charge
O1    O     O_R   0.301920 0.607900 0.199160 -0.565480
O2    O     O_R   0.698080 0.392100 0.800840 -0.566526
O3    O     O_R   0.198080 0.107900 0.300840 -0.565441
O4    O     O_R   0.801920 0.892100 0.699160 -0.565459
O5    O     O_R   0.190790 0.275820 0.184850 -0.557124
O6    O     O_R   0.809210 0.724180 0.815150 -0.557403
O7    O     O_R   0.309210 0.775820 0.315150 -0.557880
O8    O     O_R   0.690790 0.224180 0.684850 -0.557073
C1    C     C_R   0.168761 0.447201 0.166596 1.007581
C2    C     C_R   0.831240 0.552799 0.833403 1.008131
C3    C     C_R   0.331238 0.947228 0.333406 1.006322
C4    C     C_R   0.668760 0.052772 0.666597 1.006073
O9    O     O_R   0.301050 0.278040 0.191980 -0.566737
O10   O     O_R   0.698950 0.721960 0.808020 -0.567795
O11   O     O_R   0.198950 0.778040 0.308020 -0.566743
O12   O     O_R   0.801050 0.221960 0.691980 -0.566747
O13   O     O_R   0.309130 0.110040 0.308020 -0.584302
O14   O     O_R   0.690870 0.889960 0.691980 -0.584476
O15   O     O_R   0.190870 0.610040 0.191980 -0.584208
O16   O     O_R   0.809130 0.389960 0.808020 -0.584443
C5    C     C_R   0.319637 0.447420 0.179147 1.089531
C6    C     C_R   0.680399 0.552652 0.820829 1.092817
C7    C     C_R   0.180387 0.947175 0.320873 1.090417
C8    C     C_R   0.819614 0.052824 0.679128 1.090421
O17   O     O_3   0.252520 0.442130 0.288070 -0.246996
O18   O     O_3   0.747480 0.557870 0.711930 -0.246692
O19   O     O_3   0.247480 0.942130 0.211930 -0.246249
O20   O     O_3   0.752520 0.057870 0.788070 -0.248073
V1    V     V_3+5 0.249530 0.166380 0.242940 1.289403
V2    V     V_3+5 0.750470 0.833620 0.757060 1.289184
V3    V     V_3+5 0.250470 0.666380 0.257060 1.289553
V4    V     V_3+5 0.749530 0.333620 0.742940 1.289818
C9    C     C_R   0.900107 0.166199 0.549399 0.304772
C10   C     C_R   0.099893 0.833713 0.450595 0.304928
C11   C     C_R   0.601062 0.660618 0.951704 0.299142
C12   C     C_R   0.397523 0.340557 0.046899 0.300163
C13   C     C_R   0.859347 0.174894 0.587790 0.261887
C14   C     C_R   0.140657 0.825061 0.412207 0.261766
C15   C     C_R   0.641761 0.670018 0.913256 0.260950
C16   C     C_R   0.357998 0.328508 0.086646 0.251590
C17   C     C_R   0.862021 0.041750 0.637430 -0.464085
C18   C     C_R   0.137984 0.958239 0.362576 -0.464011
C19   C     C_R   0.638024 0.541022 0.862470 -0.460877
C20   C     C_R   0.361637 0.459404 0.136980 -0.461026
C21   C     C_R   0.906693 0.901708 0.647941 0.259786
C22   C     C_R   0.093312 0.098282 0.352073 0.259698
C23   C     C_R   0.592497 0.404147 0.850896 0.252738
C24   C     C_R   0.406115 0.600552 0.146841 0.254000
C25   C     C_R   0.946597 0.891767 0.608634 0.300372
C26   C     C_R   0.053404 0.108169 0.391377 0.300469
C27   C     C_R   0.552320 0.394479 0.889891 0.299657
C28   C     C_R   0.444924 0.613151 0.106354 0.298822
C29   C     C_R   0.943261 0.023346 0.559139 -0.252583
C30   C     C_R   0.056738 0.976557 0.440862 -0.252706
C31   C     C_R   0.556444 0.522781 0.940321 -0.250464
C32   C     C_R   0.440660 0.483649 0.056251 -0.255049
C33   C     C_1   0.983318 0.007272 0.517353 0.241113
C34   C     C_1   0.016677 0.992602 0.482644 0.241144
C35   C     C_1   0.515555 0.508864 0.981242 0.242117
C36   C     C_1   0.481428 0.496644 0.015171 0.247025
C37   C     C_1   0.616663 0.040740 0.614518 -0.226037
C38   C     C_1   0.383335 0.959261 0.385485 -0.228643
C39   C     C_1   0.883337 0.540805 0.885486 -0.226043
C40   C     C_1   0.116664 0.459195 0.114514 -0.226701
C41   C     C_1   0.573288 0.026789 0.571770 0.117852
C42   C     C_1   0.426708 0.973216 0.428235 0.117064
C43   C     C_1   0.926710 0.526841 0.928234 0.117405
C44   C     C_1   0.073290 0.473159 0.071765 0.117415
C45   C     C_1   0.521736 0.008104 0.521268 0.048858
C46   C     C_1   0.478260 0.991904 0.478738 0.048766
C47   C     C_1   0.978262 0.508118 0.978736 0.048614
C48   C     C_1   0.021738 0.491883 0.021264 0.048608
Br1   Br    Br    0.895086 0.346881 0.481710 -0.273627
Br2   Br    Br    0.104909 0.652970 0.518267 -0.272685
Br3   Br    Br    0.608684 0.831182 0.022204 -0.275318
Br4   Br    Br    0.390377 0.165465 0.977573 -0.253780
N1    N     N_R   0.814093 0.315652 0.574762 0.269188
O21   O     O_R   0.826089 0.499741 0.578260 -0.318887
O22   O     O_R   0.760682 0.259997 0.560629 -0.377256
N2    N     N_R   0.185914 0.684314 0.425231 0.269246
O23   O     O_R   0.173923 0.500224 0.421730 -0.318771
O24   O     O_R   0.239324 0.739982 0.439359 -0.376873
N3    N     N_R   0.687949 0.807323 0.927267 0.268375
O25   O     O_R   0.677104 0.992171 0.925943 -0.318279
O26   O     O_R   0.741026 0.747995 0.939920 -0.379654
N4    N     N_R   0.312752 0.187450 0.074068 0.269650
O27   O     O_R   0.324849 0.003473 0.076337 -0.321790
O28   O     O_R   0.259297 0.242694 0.060853 -0.376203
Br5   Br    Br    0.918677 0.734329 0.719846 -0.427058
Br6   Br    Br    0.081334 0.265752 0.280191 -0.427275
Br7   Br    Br    0.579875 0.241378 0.777962 -0.429357
Br8   Br    Br    0.416192 0.778321 0.216050 -0.427607
N5    N     N_R   0.991577 0.749809 0.620024 0.271380
O29   O     O_R   0.979181 0.566053 0.618455 -0.303285
O30   O     O_R   0.045109 0.804316 0.632453 -0.295187
N6    N     N_R   0.008412 0.250076 0.379983 0.271340
O31   O     O_R   0.020789 0.433849 0.381618 -0.303436
O32   O     O_R   0.954889 0.195497 0.367457 -0.295760
N7    N     N_R   0.506579 0.255202 0.877524 0.271821
O33   O     O_R   0.518048 0.070807 0.878110 -0.299150
O34   O     O_R   0.453300 0.312584 0.866212 -0.293786
N8    N     N_R   0.488729 0.759436 0.116036 0.266434
O35   O     O_R   0.528999 0.758002 0.166065 -0.278065
O36   O     O_R   0.489182 0.891872 0.074099 -0.316248

loop_
_geom_bond_atom_site_label_1
_geom_bond_atom_site_label_2
_geom_bond_distance
_ccdc_geom_bond_type
O17   V3    1.688353 S    
C25   C29   1.408147 A    
O1    C5    1.295095 A    
N5    O29   1.300983 A    
C31   C35   1.459109 S    
O19   V1    1.689045 S    
C1    C40   1.506349 S    
O13   V1    1.836732 S    
O3    C7    1.295471 A    
C2    C39   1.506348 S    
C3    C38   1.506293 S    
O15   V3    1.836639 S    
N1    O21   1.301085 A    
O7    C3    1.322380 A    
C28   N8    1.434159 S    
C26   C30   1.408130 A    
C7    C18   1.499747 S    
C40   C44   1.248011 T    
O9    V1    1.980098 S    
C14   C18   1.419280 A    
C30   C34   1.459227 S    
O4    C8    1.295468 A    
N4    O28   1.301167 A    
O1    V3    1.983045 S    
O17   V1    2.142362 S    
O2    V4    1.983049 S    
C18   C22   1.419839 A    
C16   N4    1.434462 S    
O3    V1    1.982349 S    
C12   C16   1.413015 A    
C12   Br4   1.927668 S    
C28   C32   1.407851 A    
C1    O15   1.315629 A    
N3    O25   1.301188 A    
C2    O16   1.315629 A    
N6    O32   1.300634 A    
O2    C6    1.294960 A    
O14   V2    1.836731 S    
C21   Br5   1.932870 S    
C16   C20   1.419299 A    
C27   C31   1.408470 A    
C44   C48   1.480604 S    
O11   C7    1.300448 A    
C35   C36   1.214334 T    
O12   C8    1.300451 A    
C9    C29   1.407661 A    
C8    C17   1.499743 S    
C45   C46   1.248087 T    
O10   V2    1.980102 S    
O5    V1    1.849142 S    
N1    O22   1.301153 A    
C27   N7    1.434408 S    
C39   C43   1.248011 T    
O7    V3    1.848895 S    
C38   C42   1.247982 T    
C11   C31   1.407965 A    
O8    V4    1.848895 S    
O20   V4    2.141387 S    
N2    O24   1.301148 A    
C29   C33   1.459233 S    
N4    O27   1.301100 A    
C15   C19   1.418476 A    
O19   V3    2.141386 S    
O6    V2    1.849138 S    
C9    C13   1.413139 A    
C32   C36   1.459066 S    
C11   C15   1.412994 A    
O5    C1    1.322496 A    
C12   C32   1.407628 A    
C5    C20   1.500006 S    
N7    O33   1.301549 A    
C21   C25   1.412232 A    
O8    C4    1.322379 A    
C11   Br3   1.927633 S    
N6    O31   1.300969 A    
O9    C5    1.301144 A    
N8    O36   1.300844 A    
O18   V4    1.688352 S    
C10   Br2   1.927945 S    
C9    Br1   1.927953 S    
N7    O34   1.301461 A    
C10   C30   1.407650 A    
O16   V4    1.836640 S    
C13   N1    1.434505 S    
C3    O13   1.315587 A    
N3    O26   1.301198 A    
C10   C14   1.413134 A    
C23   Br7   1.932669 S    
N2    O23   1.301070 A    
O6    C2    1.322499 A    
C23   C27   1.412065 A    
O11   V3    1.981367 S    
C22   Br6   1.932863 S    
O12   V4    1.981365 S    
C22   C26   1.412217 A    
O10   C6    1.300212 A    
O20   V2    1.689044 S    
C15   N3    1.434638 S    
C47   C48   1.248123 T    
C4    C37   1.506296 S    
C26   N6    1.434317 S    
C33   C34   1.214420 T    
C42   C46   1.480551 S    
C14   N2    1.434502 S    
C41   C45   1.480546 S    
C43   C47   1.480604 S    
C13   C17   1.419270 A    
N8    O35   1.301704 A    
C37   C41   1.247978 T    
C24   C28   1.412234 A    
N5    O30   1.300669 A    
C24   Br8   1.933309 S    
C4    O14   1.315581 A    
C17   C21   1.419838 A    
C25   N5    1.434350 S    
C19   C23   1.419189 A    
C6    C19   1.498238 S    
O4    V2    1.982346 S    
C20   C24   1.420781 A    
O18   V2    2.142362 S    
