data_mof_unit_42792.cif
_audit_creation_date              2012-12-10T17:03:56-0500
_audit_creation_method            fapswitch 2.2
_symmetry_space_group_name_H-M    P1
_symmetry_Int_Tables_number       1
_space_group_crystal_system       triclinic
_cell_length_a                    9.921078
_cell_length_b                    11.021919
_cell_length_c                    15.692984
_cell_angle_alpha                 96.292317
_cell_angle_beta                  79.151082
_cell_angle_gamma                 110.517043
_cell_volume                      1576.66477673

loop_
_atom_site_label
_atom_site_type_symbol
_atom_type_description
_atom_site_fract_x
_atom_site_fract_y
_atom_site_fract_z
_atom_type_partial_charge
C1    C     C_R   0.555422 0.744887 0.506457 0.861938
C2    C     C_R   0.444561 0.255115 0.493575 0.867263
C3    C     C_R   0.307589 0.369092 0.071094 0.140353
C4    C     C_R   0.655534 0.429245 0.917009 0.141334
C5    C     C_R   0.209565 0.353793 0.014146 -0.284823
C6    C     C_R   0.753903 0.446307 0.973984 -0.281650
C7    C     C_2   0.583736 0.883710 0.514190 -0.350581
C8    C     C_2   0.416197 0.116301 0.485945 -0.347341
C9    C     C_2   0.489745 0.931636 0.492403 -0.152714
C10   C     C_2   0.510104 0.068386 0.507861 -0.149644
C11   C     C_2   0.922042 0.483361 0.495719 0.241083
C12   C     C_2   0.077894 0.516539 0.504343 0.236842
C13   C     C_R   0.411743 0.484723 0.662813 0.790660
C14   C     C_R   0.587335 0.510680 0.336951 0.792739
C15   C     C_R   0.356953 0.459314 0.755366 -0.074713
C16   C     C_R   0.635484 0.501838 0.242481 -0.076001
C17   C     C_R   0.158826 0.377773 0.873350 -0.189319
C18   C     C_R   0.816363 0.486529 0.118526 -0.184061
C19   C     C_R   0.207246 0.411913 0.787141 -0.193942
C20   C     C_R   0.777150 0.504002 0.207887 -0.196934
C21   C     C_R   0.456750 0.471930 0.810940 -0.187479
C22   C     C_R   0.534007 0.481085 0.186563 -0.188203
C23   C     C_R   0.410395 0.426652 0.895444 0.096060
C24   C     C_R   0.566857 0.450809 0.097490 0.094728
C25   C     C_R   0.259232 0.386402 0.927919 0.127079
C26   C     C_R   0.712835 0.461589 0.063125 0.125282
C27   C     C_R   0.510413 0.426736 0.949881 0.012257
C28   C     C_R   0.460869 0.417450 0.041036 0.011868
Cu1   Cu    Cu3+1 0.362980 0.479380 0.485080 0.931323
Cu2   Cu    Cu3+1 0.637020 0.520620 0.514920 0.932352
H1    H     H_    0.093398 0.317037 0.038125 0.143596
H2    H     H_    0.863996 0.448938 0.947838 0.139975
H3    H     H_    0.430902 0.493182 0.213196 0.184542
H4    H     H_    0.570720 0.521033 0.787993 0.182992
H5    H     H_    0.857612 0.519508 0.249654 0.153377
H6    H     H_    0.127731 0.400704 0.745485 0.154904
H7    H     H_    0.042731 0.342890 0.897102 0.126210
H8    H     H_    0.927429 0.491542 0.092729 0.133435
H9    H     H_    0.602658 0.130070 0.537604 0.171059
H10   H     H_    0.397155 0.869965 0.462699 0.169480
H11   H     H_    0.320050 0.053202 0.459733 0.150446
H12   H     H_    0.679918 0.946802 0.540363 0.150260
H13   H     H_    0.108695 0.368861 0.424305 0.211188
H14   H     H_    0.891370 0.631233 0.575602 0.208910
N1    N     N_2   0.842890 0.551600 0.537350 -0.298196
N2    N     N_2   0.157110 0.448400 0.462650 -0.299969
O1    O     O_R   0.426810 0.668300 0.492040 -0.587126
O2    O     O_R   0.573190 0.331700 0.507960 -0.585402
O3    O     O_R   0.658240 0.703130 0.517240 -0.573220
O4    O     O_R   0.341760 0.296870 0.482760 -0.571286
O5    O     O_R   0.319390 0.472820 0.610170 -0.592820
O6    O     O_R   0.680610 0.527180 0.389830 -0.591554
O7    O     O_R   0.550820 0.507640 0.635370 -0.568320
O8    O     O_R   0.449180 0.492360 0.364630 -0.569469
N3    N     N_3   0.249365 0.320550 0.156256 -0.604229
H15   H     H_    0.189540 0.221772 0.149723 0.229554
H16   H     H_    0.177267 0.367956 0.187010 0.211468
N4    N     N_3   0.699790 0.399265 0.827166 -0.601811
H17   H     H_    0.727364 0.315252 0.822847 0.224164
H18   H     H_    0.793676 0.475058 0.803672 0.213276
N5    N     N_3   0.137765 0.629046 0.558386 -0.628817
H19   H     H_    0.202749 0.705264 0.519329 0.232272
H20   H     H_    0.192730 0.610779 0.602918 0.267500
N6    N     N_3   0.862098 0.370765 0.441759 -0.630601
H21   H     H_    0.797326 0.294546 0.480893 0.232928
H22   H     H_    0.806907 0.388895 0.397318 0.265530

loop_
_geom_bond_atom_site_label_1
_geom_bond_atom_site_label_2
_ccdc_geom_bond_type
C6    H2    S    
C11   C12   S    
Cu1   Cu2   S    
C14   C16   S    
C23   C27   A    
C9    C10   S    
Cu2   N1    S    
C18   C20   A    
C19   H6    S    
C18   C26   A    
Cu1   N2    S    
C16   C20   A    
C17   C25   A    
N6    H21   S    
N3    H15   S    
C23   C25   A    
C18   H8    S    
N3    H16   S    
C17   H7    S    
Cu2   O7    S    
C8    H11   S    
C15   C19   A    
C12   N5    S    
C6    C26   A    
C1    O3    A    
Cu1   O1    S    
C5    C25   A    
Cu2   O2    S    
C3    C28   A    
C14   O8    A    
Cu2   O3    S    
C24   C26   A    
C13   O7    A    
Cu1   O4    S    
C13   C15   S    
C21   C23   A    
C13   O5    A    
N5    H19   S    
H13   N2    S    
C22   C24   A    
C11   N1    D    
C4    C6    A    
Cu1   O8    S    
N4    H18   S    
C17   C19   A    
C3    C5    A    
C15   C21   A    
C4    C27   A    
H14   N1    S    
C8    C10   D    
C11   N6    S    
Cu1   O5    S    
C7    H12   S    
C4    N4    S    
C27   C28   A    
C7    C9    D    
C22   H3    S    
Cu2   O6    S    
C1    O1    A    
C2    C8    S    
C16   C22   A    
C21   H4    S    
C2    O4    A    
C2    O2    A    
N4    H17   S    
C1    C7    S    
C20   H5    S    
C3    N3    S    
C9    H10   S    
C14   O6    A    
C24   C28   A    
N5    H20   S    
C10   H9    S    
C5    H1    S    
C12   N2    D    
N6    H22   S    
