data_mof_unit_42703.cif
_audit_creation_date              2012-12-10T17:38:18-0500
_audit_creation_method            fapswitch 2.2
_symmetry_space_group_name_H-M    P1
_symmetry_Int_Tables_number       1
_space_group_crystal_system       triclinic
_cell_length_a                    12.194818
_cell_length_b                    12.832253
_cell_length_c                    19.090367
_cell_angle_alpha                 92.863271
_cell_angle_beta                  87.837888
_cell_angle_gamma                 94.661152
_cell_volume                      2972.09536835

loop_
_atom_site_label
_atom_site_type_symbol
_atom_type_description
_atom_site_fract_x
_atom_site_fract_y
_atom_site_fract_z
_atom_type_partial_charge
C1    C     C_R   0.522744 0.700135 0.500203 0.883373
C2    C     C_R   0.546548 0.131179 0.472606 -0.288299
C3    C     C_R   0.451698 0.974494 0.516065 0.082968
C4    C     C_R   0.545305 0.024931 0.481244 0.081492
C5    C     C_R   0.943796 0.394635 0.434492 -0.020247
C6    C     C_R   0.052906 0.581191 0.578194 -0.017629
C7    C     C_R   0.830622 0.409443 0.440112 0.195501
C8    C     C_R   0.167327 0.579570 0.566102 0.189834
C9    C     C_R   0.861754 0.540960 0.531458 0.213856
C10   C     C_R   0.138792 0.457225 0.468954 0.201920
C11   C     C_R   0.977966 0.527944 0.529564 -0.014729
C12   C     C_R   0.477026 0.299854 0.499718 0.880439
C13   C     C_R   0.020821 0.458931 0.476718 -0.028284
C14   C     C_R   0.501092 0.498259 0.633640 0.883066
C15   C     C_R   0.498886 0.501470 0.366395 0.884280
C16   C     C_R   0.454854 0.413535 0.746573 0.124346
C17   C     C_R   0.530257 0.601082 0.258317 0.122060
C18   C     C_R   0.459504 0.420070 0.820304 0.064543
C19   C     C_R   0.530587 0.600278 0.184516 0.056594
C20   C     C_R   0.514681 0.508236 0.853989 0.006137
C21   C     C_R   0.495654 0.507719 0.146122 0.021061
C22   C     C_R   0.567170 0.590090 0.815477 0.158205
C23   C     C_R   0.461360 0.187705 0.499682 -0.097022
C24   C     C_R   0.457946 0.415736 0.180286 0.160897
C25   C     C_R   0.560874 0.583654 0.742868 -0.272354
C26   C     C_R   0.460242 0.416811 0.253056 -0.300453
C27   C     C_R   0.504760 0.497736 0.708947 -0.097566
C28   C     C_R   0.496618 0.507326 0.291370 -0.086860
C29   C     C_R   0.501412 0.508390 0.070168 0.331365
C30   C     C_R   0.515367 0.512845 0.929735 0.317882
C31   C     C_3   0.405141 0.314800 0.708483 -0.448259
C32   C     C_3   0.494092 0.240743 0.688019 -0.849209
C33   C     C_3   0.559987 0.701726 0.301373 -0.442156
C34   C     C_R   0.537180 0.812184 0.499061 -0.092798
C35   C     C_3   0.456898 0.757615 0.322120 -0.847882
C36   C     C_3   0.631750 0.684095 0.849342 -0.407865
C37   C     C_3   0.755294 0.677737 0.835862 -0.850464
C38   C     C_3   0.412610 0.316591 0.141221 -0.410613
C39   C     C_3   0.299078 0.329215 0.113122 -0.841071
C40   C     C_3   0.737354 0.023666 0.420342 -0.426897
C41   C     C_3   0.831004 0.955563 0.397701 -0.898999
C42   C     C_3   0.257561 0.975182 0.573992 -0.427262
C43   C     C_3   0.162337 0.042749 0.593979 -0.892355
C44   C     C_3   0.190225 0.390775 0.410698 -0.312152
C45   C     C_R   0.636160 0.968619 0.456588 0.175693
C46   C     C_3   0.184367 0.438275 0.338904 -0.828694
C47   C     C_3   0.814805 0.628549 0.576571 -0.313965
C48   C     C_3   0.852399 0.736128 0.549124 -0.886087
C49   C     C_R   0.359955 0.030636 0.539395 0.172053
C50   C     C_R   0.629173 0.861025 0.465498 -0.209387
C51   C     C_R   0.367123 0.138436 0.530584 -0.213475
C52   C     C_R   0.451580 0.868573 0.526096 -0.291736
H1    H     H_    0.599636 0.646520 0.712334 0.145300
H2    H     H_    0.340512 0.272891 0.741208 0.200174
H3    H     H_    0.362745 0.333436 0.660840 0.222455
H4    H     H_    0.401447 0.709255 0.357282 0.273921
H5    H     H_    0.480392 0.833590 0.350045 0.256623
H6    H     H_    0.411722 0.773258 0.274824 0.253744
H7    H     H_    0.603285 0.685551 0.349203 0.212461
H8    H     H_    0.618582 0.755878 0.272355 0.201230
H9    H     H_    0.950994 0.318629 0.338020 0.182798
H10   H     H_    0.941166 0.239210 0.407334 0.179943
H11   H     H_    0.046686 0.706923 0.647676 0.182165
H12   H     H_    0.432923 0.346805 0.280489 0.140350
H13   H     H_    0.042151 0.588732 0.684712 0.181949
H14   H     H_    0.323533 0.332372 0.854582 0.177659
H15   H     H_    0.440696 0.267765 0.846898 0.200321
H16   H     H_    0.650842 0.711705 0.157685 0.177769
H17   H     H_    0.521336 0.753571 0.164280 0.201051
H18   H     H_    0.781878 0.605432 0.857526 0.266360
H19   H     H_    0.776316 0.677597 0.778727 0.255550
H20   H     H_    0.800813 0.746536 0.861948 0.248164
H21   H     H_    0.606325 0.756862 0.827594 0.203943
H22   H     H_    0.615717 0.691336 0.906846 0.218130
H23   H     H_    0.615286 0.172220 0.446141 0.158841
H24   H     H_    0.241399 0.351312 0.156779 0.255872
H25   H     H_    0.303586 0.389896 0.073498 0.267969
H26   H     H_    0.266224 0.253924 0.087793 0.247363
H27   H     H_    0.469923 0.293709 0.097741 0.220876
H28   H     H_    0.404303 0.249889 0.176574 0.200465
H29   H     H_    0.862604 0.919480 0.443808 0.265555
H30   H     H_    0.802909 0.894074 0.357865 0.255886
H31   H     H_    0.899790 0.005189 0.373638 0.252576
H32   H     H_    0.710960 0.059753 0.372647 0.201046
H33   H     H_    0.772482 0.086958 0.456757 0.205613
H34   H     H_    0.383330 0.827612 0.553495 0.162172
H35   H     H_    0.187639 0.104316 0.634470 0.256807
H36   H     H_    0.133721 0.078866 0.546945 0.262015
H37   H     H_    0.092280 0.992793 0.616329 0.252567
H38   H     H_    0.224922 0.910954 0.537386 0.209616
H39   H     H_    0.281808 0.940185 0.622637 0.200724
H40   H     H_    0.098785 0.450165 0.325719 0.255373
H41   H     H_    0.231641 0.515857 0.338340 0.271869
H42   H     H_    0.219716 0.385683 0.297582 0.241215
H43   H     H_    0.275186 0.380346 0.419783 0.251189
H44   H     H_    0.158303 0.307833 0.411023 0.188618
H45   H     H_    0.302374 0.185887 0.550177 0.175942
H46   H     H_    0.941788 0.755631 0.554878 0.263070
H47   H     H_    0.834952 0.737244 0.492598 0.256198
H48   H     H_    0.807371 0.797384 0.578329 0.248782
H49   H     H_    0.726269 0.622208 0.577264 0.256713
H50   H     H_    0.828312 0.623172 0.633064 0.197191
H51   H     H_    0.228511 0.719086 0.608708 0.142536
H52   H     H_    0.230891 0.616806 0.661875 0.169545
H53   H     H_    0.760820 0.271294 0.399988 0.141310
H54   H     H_    0.773461 0.369687 0.343370 0.166105
H55   H     H_    0.692196 0.813393 0.443887 0.171622
H56   H     H_    0.455699 0.166146 0.664939 0.255935
H57   H     H_    0.553480 0.276380 0.648830 0.267994
H58   H     H_    0.539259 0.222885 0.734838 0.257123
N1    N     N_R   0.450318 0.577434 0.967154 -0.189883
N2    N     N_3   0.568052 0.691814 0.147268 -0.455335
N3    N     N_3   0.243244 0.640174 0.610332 -0.391840
N4    N     N_3   0.753916 0.351098 0.395278 -0.388769
N5    N     N_R   0.567107 0.444422 0.032681 -0.190187
N6    N     N_R   0.443941 0.575676 0.036616 -0.160527
N7    N     N_R   0.573376 0.446042 0.963218 -0.156574
N8    N     N_R   0.207800 0.519350 0.512860 -0.133216
N9    N     N_R   0.792200 0.480650 0.487140 -0.136267
N10   N     N_3   0.976865 0.309872 0.388813 -0.474440
N11   N     N_3   0.014860 0.628868 0.643196 -0.475610
N12   N     N_3   0.408248 0.338583 0.862292 -0.454203
O1    O     O_R   0.421690 0.658830 0.503430 -0.595910
O2    O     O_R   0.578310 0.341170 0.496570 -0.594244
O3    O     O_R   0.609320 0.646410 0.495180 -0.648039
O4    O     O_R   0.390680 0.353590 0.504820 -0.662483
O5    O     O_R   0.406160 0.506220 0.605990 -0.603611
O6    O     O_R   0.593840 0.493780 0.394010 -0.600558
O7    O     O_R   0.593780 0.493810 0.597740 -0.642156
O8    O     O_R   0.406220 0.506190 0.402260 -0.631916
Zn1   Zn    Zn3+2 0.374720 0.508290 0.505510 0.925365
Zn2   Zn    Zn3+2 0.625280 0.491710 0.494490 0.931260

loop_
_geom_bond_atom_site_label_1
_geom_bond_atom_site_label_2
_ccdc_geom_bond_type
C51   H45   S    
C47   H49   S    
C40   H32   S    
C3    C49   A    
C8    N8    A    
C20   C30   S    
C19   N2    S    
C16   C31   S    
C15   O8    A    
C12   C23   S    
C43   H37   S    
C32   H58   S    
H54   N4    S    
C35   H6    S    
C10   N8    A    
C43   H36   S    
C39   H25   S    
C7    N4    S    
C36   C37   S    
C19   C21   A    
C25   H1    S    
C38   C39   S    
H17   N2    S    
C46   H40   S    
C38   H27   S    
C41   H31   S    
O2    Zn2   S    
C42   H39   S    
H16   N2    S    
C34   C52   A    
C26   H12   S    
N8    Zn1   S    
C17   C19   A    
C47   C48   S    
C49   C51   A    
C22   C25   A    
C46   H42   S    
C24   C38   S    
H14   N12   S    
N1    N6    A    
H13   N11   S    
C14   C27   S    
C5    C13   A    
O7    Zn2   S    
O1    Zn1   S    
C16   C27   A    
C29   N5    A    
C33   H7    S    
C47   H50   S    
C37   H18   S    
H9    N10   S    
C17   C33   S    
O6    Zn2   S    
H11   N11   S    
C44   C46   S    
C1    C34   S    
C4    C45   A    
C40   C45   S    
C48   H48   S    
C34   C50   A    
C32   H57   S    
C5    N10   S    
C10   C44   S    
C39   H26   S    
C7    N9    A    
H53   N4    S    
C6    C11   A    
C5    C7    A    
C6    C8    A    
N5    N7    A    
C21   C29   S    
C14   O5    A    
C42   H38   S    
C40   H33   S    
C2    C4    A    
C1    O1    A    
C44   H44   S    
C23   C51   A    
C31   C32   S    
C12   O2    A    
C41   H29   S    
N9    Zn2   S    
C39   H24   S    
C9    C11   A    
C36   H22   S    
C8    N3    S    
C18   N12   S    
C40   C41   S    
C29   N6    A    
C20   C22   A    
C9    C47   S    
C33   H8    S    
C15   O6    A    
C37   H19   S    
C50   H55   S    
C9    N9    A    
C21   C24   A    
C42   C43   S    
C3    C4    A    
H15   N12   S    
C48   H46   S    
C48   H47   S    
H51   N3    S    
C35   H4    S    
C17   C28   A    
H10   N10   S    
C24   C26   A    
C10   C13   A    
C3    C52   A    
C30   N7    A    
C25   C27   A    
C22   C36   S    
C26   C28   A    
C35   H5    S    
C30   N1    A    
C1    O3    A    
C43   H35   S    
C52   H34   S    
O8    Zn1   S    
C44   H43   S    
C45   C50   A    
C11   C13   A    
O3    Zn2   S    
C15   C28   S    
C46   H41   S    
C38   H28   S    
O4    Zn1   S    
C41   H30   S    
C33   C35   S    
C18   C20   A    
C31   H2    S    
O5    Zn1   S    
C36   H21   S    
C42   C49   S    
H52   N3    S    
C12   O4    A    
C16   C18   A    
C32   H56   S    
C37   H20   S    
C2    C23   A    
C6    N11   S    
C31   H3    S    
C2    H23   S    
C14   O7    A    
