data_mof_unit_33734.cif
_audit_creation_date              2012-12-10T17:03:39-0500
_audit_creation_method            fapswitch 2.2
_symmetry_space_group_name_H-M    P1
_symmetry_Int_Tables_number       1
_space_group_crystal_system       triclinic
_cell_length_a                    10.077356
_cell_length_b                    10.742804
_cell_length_c                    13.022228
_cell_angle_alpha                 89.815852
_cell_angle_beta                  71.294035
_cell_angle_gamma                 90.36977
_cell_volume                      1335.25693164

loop_
_atom_site_label
_atom_site_type_symbol
_atom_type_description
_atom_site_fract_x
_atom_site_fract_y
_atom_site_fract_z
_atom_type_partial_charge
C1    C     C_R   0.499469 0.737107 0.502370 0.953056
C2    C     C_R   0.382736 0.436030 0.815656 -0.171428
C3    C     C_2   0.611134 0.067621 0.501368 -0.150822
C4    C     C_R   0.424438 0.481760 0.702421 0.878197
C5    C     C_2   0.504701 0.131281 0.487421 -0.337313
C6    C     C_2   0.614145 0.933742 0.494861 -0.159993
C7    C     C_2   0.495762 0.868599 0.512457 -0.334893
C8    C     C_2   0.053569 0.415095 0.546032 0.115237
C9    C     C_2   0.910974 0.407990 0.532543 -0.143984
C10   C     C_R   0.500744 0.262829 0.497635 0.906897
C11   C     C_R   0.576432 0.493266 0.296442 0.873793
C12   C     C_R   0.447286 0.394905 0.978423 0.074809
C13   C     C_R   0.790754 0.483730 0.002222 -0.170166
C14   C     C_R   0.620215 0.468022 0.180927 -0.100614
C15   C     C_R   0.240741 0.434600 0.878518 -0.188948
C16   C     C_R   0.201562 0.410641 0.989462 0.142509
C17   C     C_R   0.303837 0.397751 0.039682 -0.218911
C18   C     C_R   0.485052 0.400303 0.864313 0.075046
C19   C     C_R   0.555623 0.403670 0.026020 0.097108
C20   C     C_R   0.694070 0.430041 0.958645 0.120276
C21   C     C_R   0.731378 0.403935 0.848693 -0.240746
C22   C     C_R   0.626771 0.378269 0.803793 -0.172166
C23   C     C_R   0.530165 0.400109 0.137957 0.030851
C24   C     C_R   0.749796 0.511044 0.112434 -0.222750
H1    H     H_    0.819725 0.563007 0.144688 0.159793
H2    H     H_    0.160376 0.455267 0.842337 0.153409
H3    H     H_    0.267337 0.396728 0.126726 0.150301
H4    H     H_    0.658654 0.348731 0.720456 0.177278
H5    H     H_    0.133178 0.358624 0.663484 0.222002
H6    H     H_    0.148205 0.253935 0.561664 0.212025
H7    H     H_    0.485222 0.253007 0.242557 0.187550
H8    H     H_    0.349438 0.352049 0.260371 0.210224
H9    H     H_    0.041648 0.474030 0.114024 0.175968
H10   H     H_    0.034756 0.320284 0.090293 0.197155
H11   H     H_    0.699076 0.113818 0.516792 0.165615
H12   H     H_    0.420255 0.088157 0.465290 0.146365
H13   H     H_    0.715323 0.888781 0.476633 0.169733
H14   H     H_    0.392893 0.910616 0.537123 0.150410
H15   H     H_    0.125249 0.559621 0.446105 0.146199
H16   H     H_    0.851288 0.322597 0.557775 0.160201
H17   H     H_    0.905513 0.582279 0.483277 0.158643
H18   H     H_    0.839922 0.406655 0.797404 0.161126
H19   H     H_    0.893867 0.511674 0.950054 0.157274
N1    N     N_2   0.148270 0.498670 0.498870 -0.208681
N2    N     N_2   0.852610 0.498640 0.498840 -0.209088
N3    N     N_3   0.083612 0.319615 0.612070 -0.470585
N4    N     N_3   0.432855 0.309215 0.202505 -0.471389
N5    N     N_3   0.056920 0.407661 0.052861 -0.470292
O1    O     O_R   0.386950 0.680940 0.500020 -0.608587
O2    O     O_R   0.613110 0.680900 0.499980 -0.608645
O3    O     O_R   0.330780 0.500000 0.653640 -0.620653
O4    O     O_R   0.556930 0.499960 0.653610 -0.604138
O5    O     O_R   0.386890 0.319100 0.500020 -0.639878
O6    O     O_R   0.613050 0.319060 0.499980 -0.622953
O7    O     O_R   0.443070 0.500040 0.346390 -0.619139
O8    O     O_R   0.669220 0.500000 0.346360 -0.605936
Zn1   Zn    Zn3+2 0.349000 0.500030 0.500020 0.914040
Zn2   Zn    Zn3+2 0.651000 0.499970 0.499980 0.929611

loop_
_geom_bond_atom_site_label_1
_geom_bond_atom_site_label_2
_ccdc_geom_bond_type
C12   C17   A    
C14   C23   A    
C2    C4    S    
C9    N2    D    
C6    C7    D    
O3    Zn1   S    
C2    C18   A    
C1    O2    A    
H5    N3    S    
C19   C23   A    
C19   C20   A    
C3    H11   S    
N1    Zn1   S    
C3    C6    S    
C16   N5    S    
C23   N4    S    
C18   C22   A    
C6    H13   S    
O1    Zn1   S    
C5    C10   S    
C22   H4    S    
C21   C22   A    
C20   C21   A    
C2    C15   A    
C8    N1    D    
H15   N1    S    
O4    Zn2   S    
C4    O4    A    
C12   C19   A    
C11   C14   S    
C7    H14   S    
O8    Zn2   S    
O7    Zn1   S    
C10   O6    A    
H8    N4    S    
C8    N3    S    
N2    Zn2   S    
H10   N5    S    
C4    O3    A    
C14   C24   A    
C15   C16   A    
O2    Zn2   S    
C5    H12   S    
H7    N4    S    
C13   H19   S    
C11   O7    A    
C24   H1    S    
O6    Zn2   S    
C12   C18   A    
C10   O5    A    
H9    N5    S    
O5    Zn1   S    
C16   C17   A    
C15   H2    S    
H17   N2    S    
C13   C20   A    
C1    C7    S    
C1    O1    A    
H6    N3    S    
C9    H16   S    
C11   O8    A    
C21   H18   S    
C13   C24   A    
C8    C9    S    
C3    C5    D    
C17   H3    S    
