data_mof_unit_50226.cif
_audit_creation_date              2012-12-10T18:37:09-0500
_audit_creation_method            fapswitch 2.2
_symmetry_space_group_name_H-M    P1
_symmetry_Int_Tables_number       1
_space_group_crystal_system       triclinic
_cell_length_a                    15.103004
_cell_length_b                    15.602958
_cell_length_c                    23.166326
_cell_angle_alpha                 90.096368
_cell_angle_beta                  108.440663
_cell_angle_gamma                 82.631647
_cell_volume                      5131.70582924

loop_
_atom_site_label
_atom_site_type_symbol
_atom_type_description
_atom_site_fract_x
_atom_site_fract_y
_atom_site_fract_z
_atom_type_partial_charge
C1    C     C_R   0.442343 0.662658 0.492382 0.993497
C2    C     C_R   0.517570 0.436191 0.296733 0.550160
C3    C     C_R   0.762889 0.532954 0.689101 -0.151836
C4    C     C_R   0.917476 0.625422 0.670929 0.191155
C5    C     C_R   0.883125 0.698474 0.696658 -0.105922
C6    C     C_R   0.926599 0.716314 0.757467 -0.203792
C7    C     C_R   0.005711 0.661793 0.792997 -0.061442
C8    C     C_R   0.040635 0.588674 0.768018 -0.055418
C9    C     C_R   0.996524 0.570173 0.707394 -0.128107
C10   C     C_R   0.098713 0.339993 0.339477 0.197510
C11   C     C_R   0.032897 0.389506 0.290203 -0.081270
C12   C     C_R   0.995379 0.351732 0.234494 -0.093906
C13   C     C_R   0.464067 0.626936 0.740411 -0.161089
C14   C     C_R   0.023381 0.264467 0.227560 -0.114178
C15   C     C_R   0.088993 0.214890 0.276301 -0.141010
C16   C     C_R   0.126525 0.252403 0.332107 -0.100700
C17   C     C_R   0.564510 0.366099 0.709652 0.158812
C18   C     C_R   0.494955 0.316651 0.677190 -0.133202
C19   C     C_R   0.516575 0.227183 0.675463 -0.114008
C20   C     C_R   0.607645 0.186744 0.705246 -0.149824
C21   C     C_R   0.677773 0.235832 0.736606 -0.119778
C22   C     C_R   0.656343 0.325295 0.738968 -0.025464
C23   C     C_R   0.415082 0.665052 0.318557 0.152298
C24   C     C_R   0.509535 0.441467 0.234859 -0.170512
C25   C     C_R   0.320392 0.689786 0.314007 -0.082686
C26   C     C_R   0.291883 0.771329 0.332267 -0.108130
C27   C     C_R   0.357417 0.828973 0.354024 -0.174036
C28   C     C_R   0.451860 0.804468 0.358922 -0.082286
C29   C     C_R   0.480887 0.722519 0.341662 -0.075391
C30   C     C_R   0.425258 0.716210 0.749913 0.197550
C31   C     C_R   0.334080 0.751860 0.713862 0.037087
C32   C     C_R   0.297797 0.836256 0.722272 -0.166446
C33   C     C_R   0.352075 0.885801 0.766590 -0.114826
C34   C     C_R   0.442664 0.850947 0.802668 -0.133015
C35   C     C_R   0.502118 0.564477 0.788947 0.037923
C36   C     C_R   0.479257 0.766542 0.794439 -0.201977
C37   C     C_R   0.545658 0.365724 0.206074 0.186456
C38   C     C_R   0.487597 0.334244 0.152379 -0.204114
C39   C     C_R   0.522744 0.264519 0.124363 -0.133570
C40   C     C_R   0.615932 0.225645 0.149672 -0.116577
C41   C     C_R   0.674127 0.256356 0.203110 -0.143231
C42   C     C_R   0.639265 0.326036 0.231305 0.035106
C43   C     C_R   0.244876 0.052302 0.534529 0.188598
C44   C     C_R   0.216804 0.015752 0.580164 -0.164681
C45   C     C_R   0.131336 0.048558 0.588363 -0.179960
C46   C     C_R   0.468811 0.520171 0.201223 0.038426
C47   C     C_R   0.072937 0.116707 0.550430 -0.113746
C48   C     C_R   0.101173 0.154296 0.505734 -0.121809
C49   C     C_R   0.187419 0.123031 0.498293 -0.057732
C50   C     C_R   0.792048 0.952572 0.592163 0.216021
C51   C     C_R   0.846944 0.903470 0.644905 -0.124795
C52   C     C_R   0.942698 0.876585 0.654368 -0.080481
C53   C     C_R   0.983569 0.897196 0.610859 -0.038660
C54   C     C_R   0.929383 0.946502 0.558485 -0.187944
C55   C     C_R   0.833918 0.973496 0.548777 -0.147817
C56   C     C_R   0.411398 0.755610 0.496008 -0.299706
C57   C     C_R   0.596835 0.248082 0.531743 -0.333115
C58   C     C_R   0.289276 0.875455 0.490157 -0.125186
C59   C     C_R   0.721985 0.140836 0.594561 -0.103214
C60   C     C_R   0.317036 0.786838 0.486826 0.563833
C61   C     C_R   0.558823 0.338070 0.511284 1.000029
C62   C     C_R   0.687997 0.226809 0.572871 0.516268
C63   C     C_R   0.478330 0.813831 0.508377 0.551508
C64   C     C_R   0.536315 0.185553 0.517905 0.614963
C65   C     C_R   0.503205 0.501159 0.611191 0.969231
C66   C     C_R   0.495681 0.500994 0.388652 0.995296
C67   C     C_R   0.456444 0.899079 0.524158 -0.039291
C68   C     C_R   0.563978 0.103012 0.545808 -0.042474
C69   C     C_R   0.359457 0.931244 0.513905 -0.178085
C70   C     C_R   0.660778 0.076195 0.575496 -0.202914
C71   C     C_R   0.527106 0.955591 0.544433 -0.106337
C72   C     C_R   0.537583 0.480486 0.778266 0.633372
C73   C     C_R   0.497376 0.045119 0.540028 -0.107354
C74   C     C_R   0.403345 0.075225 0.535674 0.633292
C75   C     C_R   0.625782 0.927503 0.568986 0.662216
C76   C     C_R   0.336119 0.018669 0.526263 -0.116462
C77   C     C_R   0.691975 0.986428 0.582893 -0.121676
C78   C     C_R   0.867962 0.602931 0.606906 -0.056359
C79   C     C_R   0.139073 0.381182 0.398588 -0.100696
C80   C     C_R   0.774015 0.583681 0.589994 0.091992
C81   C     C_R   0.230680 0.405112 0.413831 0.081006
C82   C     C_R   0.786512 0.525258 0.498080 0.088123
C83   C     C_R   0.435068 0.590935 0.228972 0.654325
C84   C     C_R   0.210852 0.479122 0.499133 0.085566
C85   C     C_R   0.884975 0.533237 0.516777 -0.047531
C86   C     C_R   0.112832 0.468900 0.480142 -0.038650
C87   C     C_R   0.919654 0.585051 0.566528 -0.132898
C88   C     C_R   0.081181 0.410486 0.433687 -0.135886
C89   C     C_R   0.558649 0.533270 0.133364 0.601708
C90   C     C_R   0.410945 0.590689 0.857303 0.604160
C91   C     C_R   0.951174 0.490601 0.489609 -0.214432
C92   C     C_R   0.045266 0.513708 0.505491 -0.213070
C93   C     C_R   0.066413 0.583474 0.544075 0.551433
C94   C     C_R   0.537448 0.457657 0.720049 -0.249633
C95   C     C_R   0.929293 0.421288 0.450980 0.562171
C96   C     C_R   0.006514 0.615788 0.575884 0.536811
C97   C     C_R   0.991492 0.384113 0.422302 0.510727
C98   C     C_R   0.390855 0.549955 0.093351 0.603499
C99   C     C_R   0.578706 0.572757 0.896601 0.601033
C100  C     C_R   0.393225 0.570892 0.034659 -0.123700
C101  C     C_R   0.577022 0.561048 0.956528 -0.105865
C102  C     C_R   0.482296 0.562345 0.025297 -0.104299
C103  C     C_R   0.488152 0.572197 0.966155 -0.104262
C104  C     C_R   0.565607 0.542728 0.074997 -0.145067
C105  C     C_R   0.442962 0.585559 0.290427 -0.264348
C106  C     C_R   0.404755 0.590771 0.916354 -0.139991
C107  C     C_R   0.310536 0.597846 0.984916 -0.145600
C108  C     C_R   0.660039 0.536585 0.006621 -0.150460
C109  C     C_R   0.317238 0.606443 0.926338 0.593526
C110  C     C_R   0.653530 0.530205 0.065352 0.603402
C111  C     C_R   0.216940 0.624881 0.992236 0.239091
C112  C     C_R   0.203908 0.695948 0.027442 -0.053842
C113  C     C_R   0.114264 0.725691 0.030599 -0.133778
C114  C     C_R   0.036877 0.685827 0.997820 -0.131970
C115  C     C_R   0.049163 0.615577 0.962341 -0.196214
C116  C     C_R   0.502793 0.520444 0.672277 -0.248843
C117  C     C_R   0.138862 0.584627 0.959912 -0.091737
C118  C     C_R   0.753130 0.505786 0.999524 0.232345
C119  C     C_R   0.832561 0.545316 0.030293 -0.068887
C120  C     C_R   0.921697 0.510636 0.028626 -0.168075
C121  C     C_R   0.932060 0.437600 0.995149 -0.132402
C122  C     C_R   0.853407 0.398173 0.964095 -0.154076
C123  C     C_R   0.764424 0.431319 0.966894 -0.056045
C124  C     C_R   0.188749 0.908332 0.457537 0.175718
C125  C     C_R   0.165629 0.968139 0.407910 -0.195998
C126  C     C_R   0.071544 0.994299 0.373768 -0.123905
C127  C     C_R   0.484226 0.507603 0.324251 -0.262010
C128  C     C_R   0.999845 0.959086 0.387585 -0.094113
C129  C     C_R   0.022114 0.898228 0.435887 -0.173389
C130  C     C_R   0.115905 0.873996 0.471486 -0.034377
C131  C     C_R   0.816245 0.124111 0.642339 0.209533
C132  C     C_R   0.894510 0.155679 0.633839 -0.066629
C133  C     C_R   0.982291 0.142552 0.679246 -0.177545
C134  C     C_R   0.992931 0.097831 0.733666 -0.106356
C135  C     C_R   0.915566 0.066988 0.743012 -0.158001
C136  C     C_R   0.827605 0.080456 0.697823 -0.182490
C137  C     C_R   0.274518 0.399325 0.365087 0.163072
C138  C     C_R   0.464116 0.603669 0.681990 0.537822
C139  C     C_R   0.245847 0.465470 0.319231 -0.156418
C140  C     C_R   0.266137 0.453308 0.264722 -0.162023
C141  C     C_R   0.314487 0.374856 0.255328 -0.108817
C142  C     C_R   0.343957 0.309044 0.300780 -0.083755
C143  C     C_R   0.323115 0.320877 0.355139 -0.106640
C144  C     C_R   0.727783 0.590157 0.637570 0.127186
C145  C     C_R   0.665350 0.664017 0.638856 -0.051483
C146  C     C_R   0.646169 0.685766 0.692584 -0.155514
C147  C     C_R   0.685883 0.631389 0.744680 -0.142505
C148  C     C_R   0.741955 0.553776 0.742479 -0.128817
F1    F     F_    0.378916 0.158562 0.548012 -0.674759
F2    F     F_    0.399888 0.667248 0.196655 -0.656808
F3    F     F_    0.429855 0.663107 0.634655 -0.688962
F4    F     F_    0.556324 0.361206 0.330084 -0.663124
F5    F     F_    0.452103 0.202946 0.473523 -0.660309
F6    F     F_    0.559833 0.790704 0.495758 -0.634080
F7    F     F_    0.742057 0.290422 0.594523 -0.658906
F8    F     F_    0.250658 0.732778 0.467336 -0.631194
F9    F     F_    0.659947 0.843801 0.584947 -0.687207
F10   F     F_    0.032330 0.680769 0.614197 -0.644969
F11   F     F_    0.964165 0.318068 0.385387 -0.645773
F12   F     F_    0.142751 0.624228 0.550114 -0.632109
F13   F     F_    0.850168 0.383981 0.442974 -0.637339
F14   F     F_    0.237859 0.633988 0.879351 -0.666006
F15   F     F_    0.733390 0.504534 0.112523 -0.645640
F16   F     F_    0.566939 0.419280 0.824482 -0.680407
H1    H     H_    0.242500 0.512788 0.539402 0.213555
H2    H     H_    0.001118 0.411300 0.993588 0.138551
H3    H     H_    0.861569 0.341207 0.938559 0.134827
H4    H     H_    0.704430 0.398746 0.944056 0.170293
H5    H     H_    0.220440 0.994644 0.395722 0.124056
H6    H     H_    0.054293 0.041043 0.336102 0.138842
H7    H     H_    0.927067 0.978466 0.360587 0.140443
H8    H     H_    0.966552 0.869753 0.445753 0.153406
H9    H     H_    0.131843 0.827400 0.509181 0.194233
H10   H     H_    0.887133 0.190851 0.592035 0.163271
H11   H     H_    0.042074 0.167261 0.672314 0.141272
H12   H     H_    0.752789 0.496991 0.455736 0.209936
H13   H     H_    0.061013 0.087366 0.768664 0.128594
H14   H     H_    0.923733 0.032358 0.785210 0.130860
H15   H     H_    0.768992 0.055153 0.705770 0.119354
H16   H     H_    0.204106 0.524816 0.324794 0.126684
H17   H     H_    0.243005 0.504109 0.229365 0.164089
H18   H     H_    0.328959 0.365022 0.212785 0.140311
H19   H     H_    0.380216 0.247832 0.293070 0.156433
H20   H     H_    0.338101 0.266957 0.387155 0.205342
H21   H     H_    0.635001 0.705914 0.599007 0.248992
H22   H     H_    0.600754 0.744837 0.693882 0.173531
H23   H     H_    0.262985 0.728651 0.051895 0.149639
H24   H     H_    0.671964 0.648869 0.786416 0.178976
H25   H     H_    0.771652 0.511223 0.782687 0.155785
H26   H     H_    0.811537 0.475527 0.689153 0.145837
H27   H     H_    0.821884 0.740809 0.669623 0.169524
H28   H     H_    0.899190 0.772705 0.776900 0.133854
H29   H     H_    0.039750 0.676210 0.839855 0.178321
H30   H     H_    0.101514 0.546017 0.795723 0.175116
H31   H     H_    0.023385 0.512437 0.688962 0.121779
H32   H     H_    0.011058 0.457283 0.295029 0.127787
H33   H     H_    0.944728 0.390132 0.196677 0.174163
H34   H     H_    0.104611 0.780315 0.057868 0.137393
H35   H     H_    0.994403 0.235322 0.184385 0.130904
H36   H     H_    0.111010 0.147436 0.270786 0.121062
H37   H     H_    0.177837 0.213566 0.369169 0.107105
H38   H     H_    0.423162 0.346787 0.655672 0.157218
H39   H     H_    0.462105 0.188731 0.652841 0.201067
H40   H     H_    0.622908 0.117228 0.704717 0.129425
H41   H     H_    0.748088 0.204517 0.760516 0.138761
H42   H     H_    0.710332 0.362313 0.765112 0.125455
H43   H     H_    0.268399 0.647220 0.294636 0.124955
H44   H     H_    0.218768 0.790441 0.328588 0.161653
H45   H     H_    0.967347 0.709464 0.999780 0.137339
H46   H     H_    0.335300 0.892452 0.367425 0.134844
H47   H     H_    0.502451 0.849245 0.375740 0.172835
H48   H     H_    0.553843 0.704935 0.344275 0.147233
H49   H     H_    0.290808 0.714082 0.679605 0.197864
H50   H     H_    0.227569 0.863234 0.694460 0.127022
H51   H     H_    0.323926 0.951187 0.772974 0.131103
H52   H     H_    0.484689 0.889455 0.836929 0.137130
H53   H     H_    0.549891 0.740874 0.822351 0.146004
H54   H     H_    0.415210 0.363587 0.132248 0.149197
H55   H     H_    0.477733 0.240679 0.082968 0.140404
H56   H     H_    0.989053 0.585423 0.936343 0.155678
H57   H     H_    0.643071 0.171781 0.127844 0.134495
H58   H     H_    0.746418 0.226430 0.222548 0.153050
H59   H     H_    0.685670 0.349948 0.272186 0.191158
H60   H     H_    0.261233 0.962383 0.609375 0.141062
H61   H     H_    0.110383 0.021146 0.624051 0.137570
H62   H     H_    0.005876 0.140677 0.555544 0.136606
H63   H     H_    0.056304 0.207624 0.476960 0.191237
H64   H     H_    0.209072 0.152769 0.463813 0.145064
H65   H     H_    0.816413 0.889603 0.679728 0.121538
H66   H     H_    0.985789 0.840869 0.695783 0.162120
H67   H     H_    0.147237 0.530478 0.931910 0.133173
H68   H     H_    0.057533 0.876117 0.618180 0.142004
H69   H     H_    0.961622 0.965440 0.525955 0.153979
H70   H     H_    0.793012 0.012308 0.508119 0.143007
H71   H     H_    0.825626 0.601827 0.056547 0.142221
H72   H     H_    0.982860 0.540172 0.053573 0.159113
N1    N     N_R   0.472685 0.533218 0.140922 -0.322312
N2    N     N_R   0.496903 0.581223 0.848711 -0.323722
N3    N     N_R   0.731690 0.552740 0.533440 -0.127652
N4    N     N_R   0.268310 0.447260 0.466560 -0.130785
O1    O     O_R   0.383120 0.605620 0.483150 -0.547146
O2    O     O_2   0.332001 0.596560 0.808667 -0.495668
O3    O     O_2   0.308326 0.544001 0.103030 -0.574878
O4    O     O_2   0.660850 0.574904 0.885555 -0.603684
O5    O     O_R   0.616880 0.394380 0.516850 -0.549906
O6    O     O_R   0.531890 0.639510 0.504600 -0.590040
O7    O     O_R   0.468110 0.360490 0.495400 -0.570318
O8    O     O_R   0.425590 0.483070 0.573110 -0.628068
O9    O     O_R   0.574410 0.516930 0.426890 -0.626187
O10   O     O_R   0.574360 0.516970 0.594570 -0.619472
O11   O     O_R   0.425640 0.483030 0.405430 -0.625453
O12   O     O_2   0.636955 0.524093 0.182575 -0.491113
Zn1   Zn    Zn3+2 0.400660 0.477370 0.485670 1.025050
Zn2   Zn    Zn3+2 0.599340 0.522630 0.514330 1.027963

loop_
_geom_bond_atom_site_label_1
_geom_bond_atom_site_label_2
_ccdc_geom_bond_type
C78   C87   A    
O10   Zn2   S    
C96   F10   S    
C23   C29   A    
C89   O12   S    
C51   H65   S    
C41   C42   A    
C38   H54   S    
C129  H8    S    
C147  C148  A    
C128  C129  A    
C112  H23   S    
C129  C130  A    
C145  C146  A    
C85   C91   A    
C135  C136  A    
C98   N1    A    
C53   C54   A    
C66   C127  S    
C28   H47   S    
C81   C137  S    
C121  H2    S    
C137  C139  A    
C136  H15   S    
C59   C131  S    
N4    Zn1   S    
C57   C61   S    
C74   C76   A    
C57   C64   A    
C97   F11   S    
C114  H45   S    
C39   H55   S    
C28   C29   A    
C1    C56   S    
C84   C86   A    
C13   C35   A    
C1    O6    A    
C95   F13   S    
C38   C39   A    
C86   C88   A    
O11   Zn1   S    
C111  C117  A    
C58   C60   A    
C15   C16   A    
C23   C105  S    
C99   O4    S    
C62   F7    S    
C22   H42   S    
C69   C76   A    
C18   C19   A    
C73   C74   A    
C46   N1    S    
C21   H41   S    
C37   C42   A    
C118  C119  A    
C112  C113  A    
C84   H1    S    
C21   C22   A    
C113  C114  A    
C99   N2    A    
C111  C112  A    
C108  C110  A    
C132  C133  A    
C80   C144  S    
C126  C128  A    
C12   H33   S    
C74   F1    S    
C8    H30   S    
C139  H16   S    
C7    H29   S    
C125  H5    S    
C67   C71   A    
C88   C97   A    
C83   F2    S    
C72   C94   A    
C2    C127  A    
C75   F9    S    
C101  C108  A    
C45   C47   A    
C142  H19   S    
C137  C143  A    
C66   O9    A    
C3    C148  A    
C101  C103  A    
C65   O10   A    
C82   N3    A    
C70   C77   A    
C107  C109  A    
C84   N4    A    
C35   N2    S    
C125  C126  A    
C19   H39   S    
C79   C88   A    
C24   C37   S    
C116  C138  A    
C85   C87   A    
C130  H9    S    
C2    F4    S    
C63   C67   A    
C142  C143  A    
C105  C127  A    
C51   C52   A    
C89   N1    A    
C13   C30   S    
C57   C62   A    
C11   H32   S    
C90   C106  A    
C100  C107  A    
C18   H38   S    
C131  C136  A    
C3    H26   S    
C39   C40   A    
C71   C73   A    
C48   H63   S    
C90   N2    A    
O8    Zn1   S    
C43   C49   A    
C132  H10   S    
O6    Zn2   S    
C115  C117  A    
C68   C73   A    
C64   F5    S    
C117  H67   S    
C27   H46   S    
C83   C105  A    
C13   C138  A    
C145  H21   S    
C67   C69   A    
C140  H17   S    
C93   F12   S    
C43   C44   A    
C60   F8    S    
C4    C78   S    
C37   C38   A    
C126  H6    S    
C108  C118  S    
C8    C9    A    
C133  H11   S    
C47   C48   A    
C42   H59   S    
C30   C31   A    
C10   C79   S    
C50   C55   A    
C87   C96   A    
N3    Zn2   S    
C100  C102  A    
C17   C18   A    
C26   C27   A    
C56   C63   A    
C124  C130  A    
C50   C51   A    
C45   H61   S    
C52   C53   A    
C140  C141  A    
C49   H64   S    
C102  C104  A    
C75   C77   A    
C5    H27   S    
C121  C122  A    
C6    C7    A    
C104  C110  A    
C1    O1    A    
C44   H60   S    
C123  H4    S    
O7    Zn1   S    
C119  H71   S    
C40   C41   A    
C99   C101  A    
C65   O8    A    
C12   C14   A    
C35   C72   A    
C93   C96   A    
C98   C100  A    
C72   F16   S    
C89   C104  A    
C2    C24   A    
C133  C134  A    
C138  F3    S    
C65   C116  S    
C115  H56   S    
O1    Zn1   S    
C34   H52   S    
C55   H70   S    
C16   H37   S    
C50   C77   S    
C64   C68   A    
C78   C80   A    
C91   C92   A    
C44   C45   A    
C80   N3    A    
C29   H48   S    
C79   C81   A    
C146  C147  A    
C14   H35   S    
C113  H34   S    
C148  H25   S    
C54   C55   A    
C48   C49   A    
C59   C62   A    
C94   C116  A    
C122  H3    S    
C14   C15   A    
C107  C111  S    
C146  H22   S    
C31   C32   A    
C26   H44   S    
C3    C144  A    
C141  H18   S    
C63   F6    S    
C82   H12   S    
C144  C145  A    
C135  H14   S    
C36   H53   S    
C139  C140  A    
C95   C97   A    
C58   C69   A    
C114  C115  A    
C134  C135  A    
C31   H49   S    
C30   C36   A    
C147  H24   S    
C61   O7    A    
C82   C85   A    
C98   O3    S    
O5    Zn2   S    
C58   C124  S    
C17   C22   A    
C81   N4    A    
C66   O11   A    
C40   H57   S    
C109  F14   S    
C24   C46   A    
C32   C33   A    
C19   C20   A    
C90   O2    S    
C25   C26   A    
C32   H50   S    
C10   C16   A    
C141  C142  A    
C143  H20   S    
C110  F15   S    
C71   C75   A    
C15   H36   S    
C52   H66   S    
C5    C6    A    
C47   H62   S    
C41   H58   S    
C4    C5    A    
C92   C93   A    
C33   C34   A    
C53   H68   S    
C103  C106  A    
C34   C36   A    
C118  C123  A    
C23   C25   A    
C134  H13   S    
C102  C103  A    
C9    H31   S    
C20   H40   S    
C7    C8    A    
C10   C11   A    
C59   C70   A    
C91   C95   A    
C46   C83   A    
C56   C60   A    
O9    Zn2   S    
C20   C21   A    
C128  H7    S    
C68   C70   A    
C119  C120  A    
C6    H28   S    
C27   C28   A    
C122  C123  A    
C120  C121  A    
C43   C76   S    
C86   C92   A    
C17   C94   S    
C54   H69   S    
C4    C9    A    
C25   H43   S    
C61   O5    A    
C33   H51   S    
C120  H72   S    
C131  C132  A    
C11   C12   A    
C124  C125  A    
C106  C109  A    
