data_mof_unit_14768.cif
_audit_creation_date              2012-12-11T16:26:17-0500
_audit_creation_method            fapswitch 2.2
_symmetry_space_group_name_H-M    P1
_symmetry_Int_Tables_number       1
_space_group_crystal_system       triclinic
_cell_length_a                    14.067769
_cell_length_b                    14.077081
_cell_length_c                    31.390459
_cell_angle_alpha                 90.160199
_cell_angle_beta                  89.885689
_cell_angle_gamma                 120.064239
_cell_volume                      5380.00707026

loop_
_atom_site_label
_atom_site_type_symbol
_atom_type_description
_atom_site_fract_x
_atom_site_fract_y
_atom_site_fract_z
_atom_type_partial_charge
C1    C     C_R   0.564042 0.445824 0.809428 0.559996
C2    C     C_R   0.878600 0.433193 0.689495 0.588553
C3    C     C_R   0.553564 0.117504 0.808913 0.542144
C4    C     C_R   0.564027 0.446672 0.691142 0.565740
C5    C     C_R   0.880404 0.434957 0.809853 0.586543
C6    C     C_R   0.554807 0.121024 0.689414 0.563686
C7    C     C_R   0.444893 0.564422 0.309822 0.564571
C8    C     C_R   0.434774 0.880046 0.190004 0.589079
C9    C     C_R   0.116678 0.553769 0.308640 0.561370
C10   C     C_R   0.446009 0.563962 0.190646 0.568284
C11   C     C_R   0.434790 0.879609 0.310265 0.588017
C12   C     C_R   0.117915 0.553672 0.190852 0.561527
C13   C     C_1   0.000849 0.550196 0.020363 0.071425
C14   C     C_1   0.546544 0.976493 0.483778 0.070592
C15   C     C_1   0.446420 0.449182 0.019383 0.125577
C16   C     C_1   0.988663 0.546804 0.477341 0.061666
C17   C     C_1   0.546541 0.996565 0.017368 0.073796
C18   C     C_1   0.451480 0.452894 0.482119 0.060480
C19   C     C_1   0.547137 0.972369 0.522237 0.088966
C20   C     C_1   0.999226 0.549018 0.981896 0.072294
C21   C     C_1   0.453187 0.450783 0.520514 0.062530
C22   C     C_1   0.547646 0.998127 0.978876 0.069060
C23   C     C_1   0.986585 0.545819 0.515816 0.071651
C24   C     C_1   0.449191 0.447112 0.980957 0.085029
C25   C     C_R   0.947738 0.483626 0.849301 -0.019727
C26   C     C_R   0.532887 0.048272 0.650867 -0.052807
C27   C     C_R   0.511917 0.464691 0.847861 -0.055262
C28   C     C_R   0.940806 0.475921 0.648521 -0.011658
C29   C     C_R   0.532246 0.044154 0.846357 -0.082060
C30   C     C_R   0.515085 0.469413 0.653204 -0.042114
C31   C     C_R   0.483612 0.943690 0.350650 -0.012867
C32   C     C_R   0.045588 0.532617 0.152945 -0.054183
C33   C     C_R   0.460503 0.513448 0.349214 -0.056021
C34   C     C_R   0.482687 0.946158 0.150223 -0.018244
C35   C     C_R   0.040605 0.533901 0.345238 -0.054387
C36   C     C_R   0.465536 0.511504 0.152441 -0.041091
C37   C     C_R   0.961399 0.584092 0.865262 0.026265
C38   C     C_R   0.609682 0.014036 0.639986 0.073415
C39   C     C_R   0.410315 0.377956 0.863485 0.059404
C40   C     C_R   0.966461 0.581615 0.634468 0.023281
C41   C     C_R   0.616917 0.025977 0.861490 0.068369
C42   C     C_R   0.409610 0.390332 0.638494 0.089060
C43   C     C_R   0.584245 0.955786 0.365968 0.036198
C44   C     C_R   0.027102 0.617281 0.137957 0.067715
C45   C     C_R   0.370270 0.416285 0.366586 0.041171
C46   C     C_R   0.582879 0.959326 0.134039 0.029220
C47   C     C_R   0.025307 0.620577 0.360654 0.065340
C48   C     C_R   0.378938 0.409592 0.136971 0.062467
C49   C     C_R   0.982417 0.610284 0.909072 0.245165
C50   C     C_R   0.620769 0.991975 0.596624 0.261166
C51   C     C_R   0.389143 0.368692 0.907863 0.257798
C52   C     C_R   0.983833 0.608811 0.590533 0.187225
C53   C     C_R   0.624906 0.011790 0.905693 0.273448
C54   C     C_R   0.386916 0.381081 0.594380 0.269785
C55   C     C_R   0.610204 0.972687 0.409956 0.227376
C56   C     C_R   0.013455 0.626072 0.093731 0.271112
C57   C     C_R   0.367052 0.393387 0.410380 0.263119
C58   C     C_R   0.608650 0.980514 0.090207 0.247488
C59   C     C_R   0.008066 0.627027 0.404786 0.265432
C60   C     C_R   0.368918 0.388211 0.092611 0.245990
C61   C     C_R   0.995579 0.537351 0.935916 -0.051240
C62   C     C_R   0.535079 0.971147 0.568187 -0.045805
C63   C     C_R   0.462407 0.454296 0.935050 -0.066377
C64   C     C_R   0.982745 0.531126 0.561650 -0.049827
C65   C     C_R   0.539441 0.000458 0.932865 -0.056549
C66   C     C_R   0.466346 0.459006 0.566322 -0.066467
C67   C     C_R   0.535891 0.980622 0.437886 -0.053438
C68   C     C_R   0.003043 0.541465 0.066321 -0.060457
C69   C     C_R   0.456713 0.464256 0.436222 -0.061706
C70   C     C_R   0.535131 0.992953 0.063406 -0.049385
C71   C     C_R   0.991977 0.539237 0.431341 -0.063017
C72   C     C_R   0.453685 0.461874 0.065317 -0.017107
C73   C     C_R   0.003333 0.449188 0.918166 0.043943
C74   C     C_R   0.438528 0.964313 0.583939 0.045294
C75   C     C_R   0.547998 0.552018 0.917438 0.048325
C76   C     C_R   0.977042 0.434475 0.576927 0.044275
C77   C     C_R   0.442346 0.989911 0.915156 0.050594
C78   C     C_R   0.559086 0.552032 0.583102 0.046301
C79   C     C_R   0.448514 0.991554 0.421249 0.041536
C80   C     C_R   0.993721 0.444699 0.083604 0.044139
C81   C     C_R   0.554451 0.546403 0.417212 0.053278
C82   C     C_R   0.446910 0.000405 0.081234 0.044600
C83   C     C_R   0.977008 0.440950 0.412829 0.052446
C84   C     C_R   0.551743 0.546934 0.082583 0.043472
C85   C     C_R   0.985309 0.425628 0.874379 0.264378
C86   C     C_R   0.443329 0.018967 0.622269 0.235312
C87   C     C_R   0.568767 0.559338 0.873403 0.272754
C88   C     C_R   0.960416 0.408109 0.620454 0.258311
C89   C     C_R   0.436779 0.006739 0.871374 0.225044
C90   C     C_R   0.579040 0.560592 0.627006 0.269919
C91   C     C_R   0.425940 0.979055 0.377166 0.266042
C92   C     C_R   0.010164 0.438119 0.127341 0.268512
C93   C     C_R   0.558428 0.565880 0.373160 0.276726
C94   C     C_R   0.424127 0.983152 0.125106 0.265073
C95   C     C_R   0.995697 0.436666 0.369150 0.281135
C96   C     C_R   0.560346 0.568117 0.126864 0.237244
Cr1   Cr    Cr6+3 0.504240 0.249200 0.750000 1.116385
Cr2   Cr    Cr6+3 0.744960 0.495760 0.750000 1.134275
Cr3   Cr    Cr6+3 0.750800 0.255040 0.750000 1.129135
Cr4   Cr    Cr6+3 0.249200 0.504240 0.250000 1.102207
Cr5   Cr    Cr6+3 0.495760 0.744960 0.250000 1.127790
Cr6   Cr    Cr6+3 0.255040 0.750800 0.250000 1.124183
O1    O     O_R   0.480350 0.140770 0.796330 -0.413966
O2    O     O_R   0.660420 0.519650 0.703670 -0.427498
O3    O     O_R   0.859230 0.339580 0.796330 -0.423350
O4    O     O_R   0.480350 0.140770 0.703670 -0.413621
O5    O     O_R   0.660420 0.519650 0.796330 -0.428594
O6    O     O_R   0.859230 0.339580 0.703670 -0.419729
O7    O     O_R   0.140770 0.480350 0.296330 -0.442037
O8    O     O_R   0.519650 0.660420 0.203670 -0.426093
O9    O     O_R   0.339580 0.859230 0.296330 -0.421440
O10   O     O_R   0.140770 0.480350 0.203670 -0.409404
O11   O     O_R   0.519650 0.660420 0.296330 -0.423092
O12   O     O_R   0.339580 0.859230 0.203670 -0.420929
O13   O     O_R   0.514930 0.348530 0.793250 -0.497327
O14   O     O_R   0.833600 0.485070 0.706750 -0.475374
O15   O     O_R   0.651470 0.166400 0.793250 -0.495376
O16   O     O_R   0.514930 0.348530 0.706750 -0.506270
O17   O     O_R   0.833600 0.485070 0.793250 -0.478674
O18   O     O_R   0.651470 0.166400 0.706750 -0.484802
O19   O     O_R   0.348530 0.514930 0.293250 -0.536856
O20   O     O_R   0.485070 0.833600 0.206750 -0.479452
O21   O     O_R   0.166400 0.651470 0.293250 -0.499870
O22   O     O_R   0.348530 0.514930 0.206750 -0.494469
O23   O     O_R   0.485070 0.833600 0.293250 -0.480594
O24   O     O_R   0.166400 0.651470 0.206750 -0.498992
O25   O     O_3   0.666667 0.333333 0.750000 -0.296921
O26   O     O_3   0.333333 0.666667 0.250000 -0.294426
N1    N     N_3   0.953814 0.658196 0.836180 -0.539561
H1    H     H_    0.889085 0.669614 0.845401 0.320527
H2    H     H_    0.028178 0.732305 0.835827 0.319991
N2    N     N_3   0.676453 0.003510 0.672302 -0.473299
H3    H     H_    0.638433 0.991621 0.701981 0.200811
H4    H     H_    0.672634 0.928461 0.667752 0.288978
N3    N     N_3   0.326526 0.303584 0.834479 -0.467159
H5    H     H_    0.344079 0.334169 0.803453 0.219828
H6    H     H_    0.255991 0.307738 0.841094 0.293312
N4    N     N_3   0.976537 0.660163 0.665856 -0.561506
H7    H     H_    0.919609 0.684987 0.659674 0.325773
H8    H     H_    0.056682 0.726633 0.665484 0.258782
N5    N     N_3   0.692515 0.019480 0.832177 -0.467359
H9    H     H_    0.661968 0.007309 0.801139 0.207103
H10   H     H_    0.689890 0.945311 0.837778 0.296347
N6    N     N_3   0.322852 0.327728 0.668282 -0.584854
H11   H     H_    0.323221 0.380349 0.691944 0.237075
H12   H     H_    0.333112 0.266717 0.682516 0.291259
N7    N     N_3   0.658528 0.950301 0.336148 -0.549122
H13   H     H_    0.670907 0.885811 0.344588 0.318862
H14   H     H_    0.732389 0.024852 0.336096 0.299774
N8    N     N_3   0.020870 0.692761 0.167421 -0.465777
H15   H     H_    0.006989 0.661089 0.198290 0.215122
H16   H     H_    0.947460 0.691520 0.161577 0.306685
N9    N     N_3   0.284785 0.336726 0.339819 -0.521555
H17   H     H_    0.318533 0.326250 0.311703 0.245110
H18   H     H_    0.228367 0.362148 0.333235 0.309003
N10   N     N_3   0.657330 0.951408 0.162896 -0.546781
H19   H     H_    0.668023 0.886187 0.153638 0.319471
H20   H     H_    0.731778 0.025528 0.163048 0.306848
N11   N     N_3   0.022857 0.698627 0.331678 -0.468270
H21   H     H_    0.012726 0.669815 0.300395 0.215513
H22   H     H_    0.948625 0.696710 0.336529 0.299275
N12   N     N_3   0.305581 0.325764 0.166112 -0.466983
H23   H     H_    0.336015 0.344398 0.197161 0.223097
H24   H     H_    0.311141 0.255944 0.159683 0.292119
S1    S     S_3+6 0.018141 0.745112 0.071829 0.114449
O27   O     O_2   0.124100 0.807623 0.047709 -0.230094
O28   O     O_2   0.923701 0.709511 0.041592 -0.217385
O29   O     O_3   0.011953 0.829943 0.108120 -0.430892
H25   H     H_    0.018996 0.892875 0.091495 0.385547
S2    S     S_3+6 0.729747 0.976526 0.431389 0.101400
O30   O     O_2   0.783249 0.070336 0.462428 -0.204196
O31   O     O_2   0.693958 0.871441 0.455116 -0.205920
O32   O     O_3   0.823855 0.990762 0.394899 -0.466157
H26   H     H_    0.883587 0.068196 0.396975 0.413715
S3    S     S_3+6 0.250180 0.273335 0.070553 0.113076
O33   O     O_2   0.190594 0.315944 0.044219 -0.240594
O34   O     O_2   0.286370 0.211040 0.042340 -0.196633
O35   O     O_3   0.162508 0.186182 0.107069 -0.422272
H27   H     H_    0.100614 0.128597 0.090399 0.384569
S4    S     S_3+6 0.013934 0.746131 0.427630 0.144400
O36   O     O_2   0.921927 0.710977 0.459177 -0.185000
O37   O     O_2   0.121770 0.809395 0.450457 -0.215441
O38   O     O_3   0.004441 0.829951 0.391985 -0.422447
H28   H     H_    0.012509 0.893119 0.408884 0.407291
S5    S     S_3+6 0.726396 0.983187 0.067558 0.078756
O39   O     O_2   0.686967 0.881541 0.040957 -0.254101
O40   O     O_2   0.784126 0.082358 0.039494 -0.186115
O41   O     O_3   0.817823 0.987684 0.103109 -0.479290
H29   H     H_    0.875227 0.984627 0.085824 0.389876
S6    S     S_3+6 0.250364 0.278404 0.433424 0.130148
O42   O     O_2   0.287566 0.206392 0.454020 -0.185373
O43   O     O_2   0.203322 0.319102 0.467037 -0.204868
O44   O     O_3   0.149860 0.202793 0.398399 -0.425806
H30   H     H_    0.158807 0.139165 0.391239 0.393827
S7    S     S_3+6 0.742289 0.997547 0.576960 0.159714
O45   O     O_2   0.711140 0.902000 0.547557 -0.189570
O46   O     O_2   0.805795 0.102147 0.552216 -0.188717
O47   O     O_3   0.823534 0.995222 0.615698 -0.416319
H31   H     H_    0.886657 0.997737 0.600602 0.417708
S8    S     S_3+6 0.982005 0.726747 0.931552 0.090166
O48   O     O_2   0.875935 0.686214 0.955364 -0.235472
O49   O     O_2   0.076277 0.782399 0.962117 -0.189456
O50   O     O_3   0.993196 0.820566 0.895801 -0.467473
H32   H     H_    0.986460 0.876515 0.912651 0.390430
S9    S     S_3+6 0.262835 0.270788 0.574065 0.171715
O51   O     O_2   0.195690 0.316296 0.555492 -0.211836
O52   O     O_2   0.290580 0.215414 0.539310 -0.127436
O53   O     O_3   0.188302 0.175171 0.610855 -0.411435
H33   H     H_    0.150742 0.205684 0.627871 0.381274
S10   S     S_3+6 0.743138 0.014926 0.927690 0.126637
O54   O     O_2   0.803353 0.117464 0.954001 -0.230408
O55   O     O_2   0.706072 0.916436 0.955771 -0.188363
O56   O     O_3   0.830861 0.014597 0.891305 -0.426126
H34   H     H_    0.892688 0.019279 0.908052 0.386083
S11   S     S_3+6 0.996206 0.733063 0.570557 0.090185
O57   O     O_2   0.085497 0.780773 0.537584 -0.211293
O58   O     O_2   0.889519 0.705668 0.549665 -0.163463
O59   O     O_3   0.023991 0.829453 0.607827 -0.448970
H35   H     H_    0.102708 0.860182 0.614468 0.372271
S12   S     S_3+6 0.275286 0.249476 0.930090 0.112308
O60   O     O_2   0.319466 0.191707 0.956652 -0.241787
O61   O     O_2   0.211819 0.284708 0.958099 -0.196663
O62   O     O_3   0.188831 0.160383 0.893704 -0.424073
H36   H     H_    0.131367 0.098788 0.910483 0.385089
S13   S     S_3+6 0.978962 0.309818 0.149697 0.097173
O63   O     O_2   0.892281 0.216657 0.123953 -0.205529
O64   O     O_2   0.081113 0.301365 0.150320 -0.181569
O65   O     O_3   0.931972 0.300031 0.199655 -0.495321
H37   H     H_    0.916602 0.226943 0.209592 0.367449
S14   S     S_3+6 0.332204 0.015799 0.355461 0.089623
O66   O     O_2   0.219527 0.916206 0.354316 -0.196247
O67   O     O_2   0.329515 0.103136 0.382140 -0.222383
O68   O     O_3   0.370873 0.064896 0.305785 -0.492002
H38   H     H_    0.312945 0.079641 0.295552 0.364814
S15   S     S_3+6 0.692780 0.642766 0.150146 0.027517
O69   O     O_2   0.761599 0.597653 0.132645 -0.299353
O70   O     O_2   0.744911 0.761908 0.138559 -0.256253
O71   O     O_3   0.688967 0.629538 0.203366 -0.472014
H39   H     H_    0.765747 0.678477 0.212674 0.364618
S16   S     S_3+6 0.943472 0.307307 0.343827 0.062701
O72   O     O_2   0.024341 0.267914 0.347565 -0.225014
O73   O     O_2   0.837759 0.225945 0.365041 -0.280242
O74   O     O_3   0.918423 0.316815 0.292149 -0.486948
H40   H     H_    0.860624 0.241833 0.283941 0.369627
S17   S     S_3+6 0.327281 0.014505 0.148073 0.088998
O75   O     O_2   0.317307 0.097923 0.121711 -0.216784
O76   O     O_2   0.217227 0.911660 0.150372 -0.185245
O77   O     O_3   0.367982 0.065926 0.197396 -0.502473
H41   H     H_    0.308856 0.078094 0.208376 0.360884
S18   S     S_3+6 0.688685 0.634490 0.348026 0.077010
O78   O     O_2   0.738987 0.756342 0.352971 -0.201417
O79   O     O_2   0.761590 0.599169 0.369277 -0.268498
O80   O     O_3   0.678458 0.601498 0.296092 -0.489600
H42   H     H_    0.752588 0.615998 0.287907 0.356361
S19   S     S_3+6 0.347936 0.065290 0.629137 0.060862
O81   O     O_2   0.270705 0.035581 0.592094 -0.152601
O82   O     O_2   0.413226 0.187918 0.632260 -0.284502
O83   O     O_3   0.274429 0.011951 0.673903 -0.506762
H43   H     H_    0.230136 0.048369 0.677165 0.376916
S20   S     S_3+6 0.015732 0.328051 0.851486 0.084262
O84   O     O_2   0.099462 0.318049 0.877696 -0.219168
O85   O     O_2   0.912429 0.218306 0.849531 -0.184365
O86   O     O_3   0.066195 0.367662 0.802000 -0.511767
H44   H     H_    0.074794 0.306715 0.790578 0.364946
S21   S     S_3+6 0.661265 0.693355 0.648649 0.074078
O87   O     O_2   0.780220 0.732336 0.640302 -0.202171
O88   O     O_2   0.630187 0.767823 0.626251 -0.258814
O89   O     O_3   0.639646 0.697286 0.701143 -0.503004
H45   H     H_    0.690112 0.774443 0.709615 0.357102
S22   S     S_3+6 0.308286 0.970855 0.847819 0.100507
O90   O     O_2   0.215884 0.879615 0.872223 -0.215980
O91   O     O_2   0.293322 0.069154 0.848179 -0.140521
O92   O     O_3   0.303714 0.929300 0.797179 -0.483604
H46   H     H_    0.315813 0.865924 0.799152 0.332872
S23   S     S_3+6 0.963661 0.289891 0.638620 0.089952
O93   O     O_2   0.848217 0.200627 0.646989 -0.206829
O94   O     O_2   0.013000 0.248584 0.606359 -0.185487
O95   O     O_3   0.037542 0.320273 0.683801 -0.512047
H47   H     H_    0.027999 0.249333 0.693813 0.362525
S24   S     S_3+6 0.642831 0.691605 0.850411 0.064996
O96   O     O_2   0.604649 0.762732 0.871364 -0.271796
O97   O     O_2   0.763384 0.739945 0.858599 -0.218006
O98   O     O_3   0.619611 0.688038 0.797767 -0.495200
H48   H     H_    0.652309 0.765995 0.789350 0.354480
N13   N     N_3   0.972715 0.353980 0.056560 -0.480892
H49   H     H_    0.037932 0.380012 0.035167 0.252455
H50   H     H_    0.900003 0.329764 0.039742 0.253549
N14   N     N_3   0.380085 0.012518 0.449138 -0.464318
H51   H     H_    0.341187 0.947173 0.470426 0.271380
H52   H     H_    0.429844 0.084165 0.466446 0.269689
N15   N     N_3   0.641626 0.611912 0.054325 -0.593185
H53   H     H_    0.671244 0.694943 0.060551 0.321372
H54   H     H_    0.704117 0.593800 0.059266 0.316913
N16   N     N_3   0.945406 0.345157 0.438149 -0.489241
H55   H     H_    0.008305 0.362839 0.459800 0.253718
H56   H     H_    0.873101 0.325808 0.454470 0.249052
N17   N     N_3   0.376620 0.021093 0.054563 -0.478874
H57   H     H_    0.338264 0.956561 0.032811 0.252198
H58   H     H_    0.424660 0.094381 0.038035 0.254315
N18   N     N_3   0.650964 0.611174 0.442356 -0.468595
H59   H     H_    0.633115 0.655085 0.464696 0.253516
H60   H     H_    0.670947 0.558469 0.458352 0.251234
N19   N     N_3   0.337896 0.909037 0.559901 -0.507881
H61   H     H_    0.343105 0.859905 0.536069 0.219718
H62   H     H_    0.277668 0.852651 0.580522 0.261057
N20   N     N_3   0.024488 0.379329 0.944844 -0.481860
H63   H     H_    0.959529 0.340120 0.966341 0.252634
H64   H     H_    0.097544 0.427644 0.961535 0.251033
N21   N     N_3   0.633897 0.639525 0.555867 -0.463731
H65   H     H_    0.667953 0.607935 0.534433 0.245728
H66   H     H_    0.589952 0.668849 0.538945 0.257291
N22   N     N_3   0.350143 0.966705 0.941699 -0.482170
H67   H     H_    0.374466 0.031186 0.963355 0.255115
H68   H     H_    0.326673 0.894008 0.958347 0.250400
N23   N     N_3   0.982696 0.359064 0.547718 -0.473328
H69   H     H_    0.915924 0.329759 0.526972 0.242921
H70   H     H_    0.056392 0.400325 0.530744 0.258574
N24   N     N_3   0.615042 0.645068 0.944069 -0.465056
H71   H     H_    0.654848 0.622131 0.966359 0.278562
H72   H     H_    0.564159 0.667312 0.960339 0.267053

loop_
_geom_bond_atom_site_label_1
_geom_bond_atom_site_label_2
_ccdc_geom_bond_type
S19   O82   D    
C82   C94   A    
C18   C21   T    
Cr5   O11   S    
O62   H36   S    
C35   C47   A    
C29   C89   A    
S3    O34   D    
C5    O3    A    
O77   H41   S    
C45   C57   A    
C5    O17   A    
C10   O22   A    
C48   N12   S    
C28   C40   A    
S18   O79   D    
S13   O65   S    
C33   C45   A    
C2    O14   A    
N15   H53   S    
C40   N4    S    
N11   H22   S    
Cr1   O13   S    
C8    O12   A    
S7    O47   S    
S18   O80   S    
N21   H66   S    
Cr4   O7    S    
S17   O75   D    
C7    C33   S    
Cr6   O9    S    
C16   C71   S    
O65   H37   S    
S4    O37   D    
N12   H24   S    
C65   C77   A    
C91   S14   S    
N3    H5    S    
C67   C79   A    
N19   H62   S    
C26   C38   A    
Cr5   O8    S    
C52   S11   S    
C44   N8    S    
Cr4   O22   S    
C80   C92   A    
O38   H28   S    
Cr6   O12   S    
C50   S7    S    
N19   H61   S    
C54   S9    S    
C77   C89   A    
S23   O95   S    
N20   H63   S    
C6    O4    A    
C74   N19   S    
N21   H65   S    
S14   O67   D    
C72   C84   A    
N4    H8    S    
C5    C25   S    
Cr2   O25   S    
C92   S13   S    
C24   C63   S    
S22   O91   D    
Cr6   O21   S    
N18   H59   S    
C3    O1    A    
N3    H6    S    
C13   C20   T    
N7    H14   S    
C14   C19   T    
C34   C94   A    
N6    H11   S    
Cr5   O20   S    
N10   H20   S    
N13   H50   S    
C32   C92   A    
C76   N23   S    
C4    O2    A    
C2    O6    A    
C9    O21   A    
C37   N1    S    
C87   S24   S    
C70   C82   A    
C94   S17   S    
C47   C59   A    
S7    O45   D    
C12   O24   A    
S8    O49   D    
O44   H30   S    
S17   O77   S    
C60   C72   A    
C1    O13   A    
N14   H52   S    
C39   C51   A    
S6    O42   D    
C21   C66   S    
N7    H13   S    
Cr5   O26   S    
O35   H27   S    
C47   N11   S    
C15   C72   S    
C31   C43   A    
C59   S4    S    
N15   H54   S    
Cr6   O26   S    
O80   H42   S    
S5    O40   D    
S2    O30   D    
N22   H67   S    
C20   C61   S    
C3    C29   S    
N24   H72   S    
C53   S10   S    
C56   S1    S    
Cr5   O23   S    
C14   C67   S    
C34   C46   A    
C53   C65   A    
O68   H38   S    
C55   S2    S    
C79   C91   A    
C18   C69   S    
S1    O28   D    
C46   C58   A    
N17   H58   S    
C7    O19   A    
S12   O60   D    
S13   O63   D    
C71   C83   A    
S9    O52   D    
C64   C76   A    
C89   S22   S    
C23   C64   S    
C90   S21   S    
S24   O96   D    
S11   O59   S    
C56   C68   A    
C38   N2    S    
C22   C65   S    
Cr3   O15   S    
C73   C85   A    
C25   C85   A    
C8    C34   S    
C27   C87   A    
S21   O88   D    
C41   C53   A    
C1    O5    A    
C75   C87   A    
C15   C24   T    
C16   C23   T    
S10   O55   D    
S15   O71   S    
C12   O10   A    
C93   S18   S    
N1    H1    S    
C43   C55   A    
C29   C41   A    
Cr4   O26   S    
C62   C74   A    
S20   O84   D    
Cr6   O24   S    
C54   C66   A    
S10   O56   S    
C46   N10   S    
C31   C91   A    
O83   H43   S    
C8    O20   A    
C6    C26   S    
C63   C75   A    
S16   O72   D    
S13   O64   D    
C96   S15   S    
C36   C48   A    
O98   H48   S    
O95   H47   S    
S12   O62   S    
S7    O46   D    
C13   C68   S    
S23   O93   D    
S24   O98   S    
C30   C90   A    
O86   H44   S    
C39   N3    S    
O56   H34   S    
C78   C90   A    
C11   O23   A    
C88   S23   S    
N5    H10   S    
N16   H55   S    
C83   N16   S    
O74   H40   S    
Cr4   O19   S    
C3    O15   A    
S6    O44   S    
O53   H33   S    
N20   H64   S    
S15   O69   D    
N9    H18   S    
Cr1   O25   S    
S19   O83   S    
N23   H69   S    
C58   S5    S    
S22   O92   S    
S20   O86   S    
N18   H60   S    
S3    O35   S    
C9    O7    A    
C66   C78   A    
C49   C61   A    
C11   O9    A    
C51   C63   A    
N6    H12   S    
C52   C64   A    
C81   N18   S    
Cr3   O25   S    
C61   C73   A    
S18   O78   D    
S9    O51   D    
S16   O74   S    
Cr2   O5    S    
N13   H49   S    
Cr3   O6    S    
C37   C49   A    
C44   C56   A    
N11   H21   S    
N2    H4    S    
Cr1   O4    S    
Cr4   O10   S    
S17   O76   D    
C42   N6    S    
C45   N9    S    
C75   N24   S    
S4    O36   D    
N12   H23   S    
O71   H39   S    
S6    O43   D    
C58   C70   A    
C33   C93   A    
C35   C95   A    
C17   C22   T    
C42   C54   A    
S5    O39   D    
S2    O31   D    
N22   H68   S    
C10   O8    A    
C95   S16   S    
S14   O66   D    
C69   C81   A    
N4    H7    S    
O89   H45   S    
C9    C35   S    
C60   S3    S    
S22   O90   D    
C30   C42   A    
C10   C36   S    
S2    O32   S    
C68   C80   A    
O50   H32   S    
S1    O27   D    
N17   H57   S    
S11   O57   D    
S12   O61   D    
C82   N17   S    
Cr2   O17   S    
O32   H26   S    
C80   N13   S    
N10   H19   S    
S23   O94   D    
S24   O97   D    
S11   O58   D    
C19   C62   S    
S14   O68   S    
C84   C96   A    
Cr1   O16   S    
C25   C37   A    
Cr3   O18   S    
S3    O33   D    
C27   C39   A    
N2    H3    S    
C28   C88   A    
O47   H31   S    
S21   O87   D    
C76   C88   A    
S4    O38   S    
C78   N21   S    
C11   C31   S    
C17   C70   S    
C12   C32   S    
S15   O70   D    
C4    O16   A    
C73   N20   S    
C6    O18   A    
C48   C60   A    
Cr3   O3    S    
N23   H70   S    
S20   O85   D    
S8    O48   D    
S5    O41   S    
C86   S19   S    
C40   C52   A    
O41   H29   S    
C41   N5    S    
N24   H71   S    
C81   C93   A    
C36   C96   A    
Cr2   O14   S    
C26   C86   A    
C83   C95   A    
S16   O73   D    
O92   H46   S    
C32   C44   A    
Cr1   O1    S    
C74   C86   A    
S1    O29   S    
C50   C62   A    
N8    H16   S    
S19   O81   D    
S9    O53   S    
C79   N14   S    
O29   H25   S    
N8    H15   S    
C55   C67   A    
C38   C50   A    
C51   S12   S    
N14   H51   S    
C7    O11   A    
C57   S6    S    
N5    H9    S    
N16   H56   S    
O59   H35   S    
C84   N15   S    
S8    O50   S    
Cr2   O2    S    
C85   S20   S    
S21   O89   S    
C43   N7    S    
C77   N22   S    
S10   O54   D    
C1    C27   S    
C2    C28   S    
C57   C69   A    
N9    H17   S    
C4    C30   S    
C59   C71   A    
N1    H2    S    
C49   S8    S    
