data_mof_unit_60214.cif
_audit_creation_date              2012-12-10T18:45:43-0500
_audit_creation_method            fapswitch 2.2
_symmetry_space_group_name_H-M    P1
_symmetry_Int_Tables_number       1
_space_group_crystal_system       triclinic
_cell_length_a                    18.08492
_cell_length_b                    18.118673
_cell_length_c                    42.962058
_cell_angle_alpha                 89.993457
_cell_angle_beta                  89.996137
_cell_angle_gamma                 90.024444
_cell_volume                      14077.5802832

loop_
_atom_site_label
_atom_site_type_symbol
_atom_type_description
_atom_site_fract_x
_atom_site_fract_y
_atom_site_fract_z
_atom_type_partial_charge
C1    C     C_R   0.499997 0.999994 0.334129 0.862339
C2    C     C_R   0.500013 0.999990 0.868095 -0.118022
C3    C     C_3   0.813504 0.220275 0.240325 -0.011368
C4    C     C_3   0.254582 0.220184 0.778122 -0.012626
C5    C     C_3   0.755850 0.789352 0.224168 -0.022260
C6    C     C_3   0.813652 0.220593 0.758969 -0.014816
C7    C     C_3   0.186710 0.779171 0.240740 -0.012036
C8    C     C_R   0.458309 0.053315 0.114653 0.082260
C9    C     C_R   0.444307 0.961527 0.884335 0.079998
C10   C     C_R   0.956565 0.551798 0.115362 0.080000
C11   C     C_R   0.042203 0.552983 0.884552 0.078048
C12   C     C_R   0.541858 0.946706 0.114676 0.082063
C13   C     C_R   0.000011 0.499972 0.131700 -0.133340
C14   C     C_R   0.555729 0.038444 0.884326 0.080243
C15   C     C_R   0.043486 0.448132 0.115385 0.081127
C16   C     C_R   0.957791 0.447172 0.884590 0.075834
C17   C     C_R   0.059243 0.532589 0.615350 0.078348
C18   C     C_R   0.940622 0.467695 0.384645 0.081023
C19   C     C_R   0.471487 0.938684 0.615385 0.076439
C20   C     C_R   0.528664 0.061109 0.384649 0.074417
C21   C     C_R   0.940778 0.467416 0.615353 0.079134
C22   C     C_R   0.059394 0.532292 0.384636 0.081726
C23   C     C_R   0.528559 0.061146 0.615347 0.073477
C24   C     C_R   0.999993 0.500054 0.868271 -0.124324
C25   C     C_R   0.471303 0.938777 0.384632 0.074562
C26   C     C_R   0.459237 0.053813 0.081872 -0.066673
C27   C     C_R   0.445006 0.960292 0.917053 -0.054603
C28   C     C_R   0.955160 0.550656 0.082625 -0.060389
C29   C     C_R   0.043552 0.552064 0.917315 -0.059477
C30   C     C_R   0.540957 0.946157 0.081895 -0.066681
C31   C     C_R   0.555068 0.039627 0.917046 -0.055753
C32   C     C_R   0.045020 0.449308 0.082648 -0.061546
C33   C     C_R   0.956566 0.448101 0.917353 -0.058966
C34   C     C_R   0.059082 0.533356 0.582505 -0.059530
C35   C     C_R   0.000005 0.500007 0.631651 -0.114048
C36   C     C_R   0.940808 0.466892 0.417489 -0.060260
C37   C     C_R   0.471785 0.938279 0.582537 -0.061822
C38   C     C_R   0.528318 0.061450 0.417497 -0.062268
C39   C     C_R   0.940949 0.466651 0.582509 -0.060511
C40   C     C_R   0.059214 0.533100 0.417479 -0.060604
C41   C     C_R   0.528216 0.061479 0.582499 -0.061460
C42   C     C_R   0.471623 0.938372 0.417480 -0.062308
C43   C     C_R   0.500093 0.999965 0.065451 -0.131497
C44   C     C_R   0.500050 0.999942 0.933544 -0.139655
C45   C     C_R   0.000131 0.500000 0.066073 -0.139932
C46   C     C_R   0.000007 0.499991 0.368344 -0.113918
C47   C     C_R   0.000106 0.500071 0.933869 -0.129965
C48   C     C_R   0.000016 0.500005 0.566025 -0.136045
C49   C     C_R   0.000013 0.499997 0.433965 -0.137050
C50   C     C_R   0.499978 0.999867 0.566040 -0.134585
C51   C     C_R   0.499962 0.999896 0.433965 -0.134794
C52   C     C_2   0.260151 0.335180 0.304862 0.925215
C53   C     C_2   0.758401 0.682921 0.690797 0.931809
C54   C     C_2   0.615142 0.311379 0.270056 0.920699
C55   C     C_2   0.382582 0.686304 0.727818 0.941132
C56   C     C_2   0.739301 0.664190 0.304736 0.927208
C57   C     C_R   0.500013 0.999943 0.631655 -0.118336
C58   C     C_2   0.239827 0.315332 0.690495 0.938495
C59   C     C_2   0.385752 0.688418 0.269773 0.922171
C60   C     C_2   0.613747 0.311757 0.731287 0.920318
C61   C     C_2   0.741487 0.817117 0.809188 0.930312
C62   C     C_2   0.235998 0.165668 0.195152 0.937838
C63   C     C_2   0.117451 0.813684 0.772160 0.940070
C64   C     C_2   0.883896 0.185382 0.229245 0.926752
C65   C     C_2   0.260278 0.184627 0.809490 0.936924
C66   C     C_2   0.764330 0.834840 0.195355 0.941317
C67   C     C_2   0.886223 0.188254 0.768702 0.918613
C68   C     C_R   0.499989 0.999960 0.368349 -0.117913
C69   C     C_2   0.114490 0.811543 0.230560 0.915614
C70   C     C_2   0.419955 0.112905 0.064626 0.979045
C71   C     C_2   0.389641 0.915039 0.933882 0.983855
C72   C     C_2   0.904120 0.600748 0.065863 0.985298
C73   C     C_2   0.093287 0.603313 0.934216 0.979038
C74   C     C_2   0.580274 0.887055 0.064673 0.979201
C75   C     C_2   0.610434 0.084878 0.933869 0.984214
C76   C     C_2   0.096122 0.399222 0.065912 0.985392
C77   C     C_2   0.906864 0.396884 0.934298 0.979741
C78   C     C_2   0.122202 0.566329 0.565337 0.977244
C79   C     C_R   0.000017 0.499999 0.468442 0.397148
C80   C     C_2   0.877596 0.434118 0.434661 0.979398
C81   C     C_2   0.440203 0.874614 0.565340 0.978020
C82   C     C_2   0.560012 0.125013 0.434726 0.978654
C83   C     C_2   0.877840 0.433674 0.565344 0.977223
C84   C     C_2   0.122423 0.565885 0.434641 0.978785
C85   C     C_2   0.559802 0.125096 0.565264 0.979157
C86   C     C_2   0.439921 0.874774 0.434692 0.978717
C87   C     C_R   0.000019 0.500004 0.531544 0.397210
C88   C     C_R   0.499941 0.999869 0.468450 0.391745
C89   C     C_R   0.500004 0.999994 0.665872 0.866776
C90   C     C_R   0.499939 0.999848 0.531554 0.391767
C91   C     C_R   0.500062 0.999921 0.967971 0.363120
C92   C     C_R   0.500082 0.999928 0.031008 0.376053
C93   C     C_R   0.000180 0.500057 0.968399 0.379040
C94   C     C_R   0.000191 0.500021 0.031535 0.360003
C95   C     C_R   0.641595 0.141649 0.250072 0.833767
C96   C     C_R   0.358428 0.858346 0.749929 0.893877
C97   C     C_R   0.858395 0.641588 0.249969 0.845478
C98   C     C_R   0.141626 0.358357 0.750079 0.841004
C99   C     C_R   0.358443 0.858310 0.250095 0.832505
C100  C     C_R   0.000001 0.499997 0.334115 0.862246
C101  C     C_R   0.641635 0.141618 0.749958 0.836990
C102  C     C_R   0.141586 0.358398 0.249962 0.856737
C103  C     C_R   0.858380 0.641652 0.750081 0.851028
C104  C     C_R   0.141579 0.641643 0.750068 0.893698
C105  C     C_R   0.858434 0.358335 0.249936 0.886216
C106  C     C_R   0.358383 0.141649 0.749917 0.842252
C107  C     C_R   0.641751 0.858426 0.250010 0.850267
C108  C     C_R   0.858359 0.358391 0.750039 0.836725
C109  C     C_R   0.141667 0.641585 0.249985 0.832326
C110  C     C_R   0.641610 0.858342 0.749914 0.852179
C111  C     C_R   0.000000 0.500003 0.665883 0.863107
C112  C     C_R   0.358203 0.141539 0.249989 0.849376
C113  C     C_3   0.239594 0.205427 0.274885 -0.149830
C114  C     C_3   0.767740 0.801818 0.728668 -0.146294
C115  C     C_3   0.758734 0.276862 0.278959 -0.201452
C116  C     C_3   0.240304 0.723840 0.720894 -0.210437
C117  C     C_3   0.760058 0.794254 0.275008 -0.146960
C118  C     C_3   0.231618 0.197556 0.729043 -0.143198
C119  C     C_3   0.242151 0.722472 0.279156 -0.169651
C120  C     C_3   0.757183 0.278109 0.721042 -0.169890
C121  C     C_3   0.732239 0.698178 0.771328 -0.146828
C122  C     C_R   0.999997 0.500007 0.834110 0.865443
C123  C     C_3   0.259731 0.294478 0.225180 -0.141317
C124  C     C_3   0.259720 0.776114 0.779096 -0.210034
C125  C     C_3   0.741814 0.222534 0.220913 -0.198596
C126  C     C_3   0.268401 0.302447 0.770953 -0.143736
C127  C     C_3   0.740401 0.705687 0.225124 -0.142230
C128  C     C_3   0.742798 0.221929 0.778952 -0.169515
C129  C     C_3   0.258064 0.777297 0.221082 -0.185990
C130  C     C_3   0.182358 0.218092 0.248494 -0.213200
C131  C     C_3   0.815833 0.780642 0.757246 -0.217562
C132  C     C_3   0.770612 0.195035 0.269454 -0.178315
C133  C     C_R   0.000002 0.499994 0.165879 0.863350
C134  C     C_3   0.229001 0.805387 0.730967 -0.184317
C135  C     C_3   0.817514 0.781876 0.248683 -0.205478
C136  C     C_3   0.184394 0.219590 0.757762 -0.215763
C137  C     C_3   0.229872 0.804338 0.269786 -0.170668
C138  C     C_3   0.769777 0.196056 0.730018 -0.173429
C139  C     C_3   0.684146 0.719356 0.742750 -0.216540
C140  C     C_3   0.316975 0.281899 0.251609 -0.209936
C141  C     C_3   0.271026 0.694569 0.769023 -0.183080
C142  C     C_3   0.729882 0.304377 0.230404 -0.178973
C143  C     C_3   0.315625 0.280411 0.742235 -0.214697
C144  C     C_R   0.500003 0.999997 0.834035 0.864827
C145  C     C_3   0.682917 0.717987 0.251487 -0.210324
C146  C     C_3   0.730203 0.303981 0.769977 -0.172299
C147  C     C_3   0.270387 0.695439 0.230455 -0.177957
C148  C     C_3   0.198712 0.301340 0.249957 -0.062269
C149  C     C_3   0.801042 0.698671 0.750176 -0.063232
C150  C     C_3   0.698964 0.198592 0.250133 -0.038298
C151  C     C_3   0.301463 0.801035 0.749713 -0.043148
C152  C     C_3   0.801211 0.698606 0.249981 -0.059177
C153  C     C_3   0.198970 0.301342 0.750177 -0.061664
C154  C     C_3   0.301248 0.801180 0.250240 -0.062844
C155  C     C_R   0.500011 0.000004 0.165729 0.847776
C156  C     C_3   0.698897 0.198690 0.749888 -0.068004
C157  C     C_3   0.698940 0.801321 0.749818 -0.063281
C158  C     C_3   0.300732 0.198525 0.250055 -0.058295
C159  C     C_3   0.198563 0.698928 0.750278 -0.042925
C160  C     C_3   0.801590 0.300895 0.249712 -0.064942
C161  C     C_3   0.301047 0.198664 0.749818 -0.061754
C162  C     C_3   0.699151 0.801385 0.250097 -0.060365
C163  C     C_3   0.801084 0.301340 0.750107 -0.067820
C164  C     C_3   0.198983 0.698600 0.249981 -0.065801
C165  C     C_3   0.254922 0.289124 0.276018 -0.019125
C166  C     C_R   0.500058 0.000009 0.131250 -0.142886
C167  C     C_3   0.753720 0.719353 0.722012 -0.011507
C168  C     C_3   0.687087 0.279088 0.259522 -0.007225
C169  C     C_3   0.312769 0.720741 0.739747 -0.014093
C170  C     C_3   0.744761 0.710537 0.275978 -0.019994
C171  C     C_3   0.245439 0.279817 0.721873 -0.012655
C172  C     C_3   0.313534 0.720627 0.259506 -0.012007
C173  C     C_3   0.686325 0.279441 0.741025 -0.016132
C174  C     C_3   0.746256 0.780645 0.777984 -0.011516
C175  C     C_3   0.244252 0.210831 0.224060 -0.019346
C176  C     C_3   0.187260 0.779218 0.760243 -0.013043
H1    H     H_    0.126480 0.192938 0.246980 0.177413
H2    H     H_    0.372719 0.307241 0.253136 0.175583
H3    H     H_    0.287822 0.648448 0.784497 0.190105
H4    H     H_    0.713542 0.349986 0.214581 0.187780
H5    H     H_    0.369914 0.304239 0.735581 0.173102
H6    H     H_    0.627180 0.692602 0.252888 0.175544
H7    H     H_    0.714424 0.349089 0.786149 0.193062
H8    H     H_    0.286597 0.649928 0.214555 0.189007
H9    H     H_    0.232271 0.168583 0.295307 0.195640
H10   H     H_    0.781284 0.844676 0.711095 0.195437
H11   H     H_    0.766267 0.300186 0.302645 0.205749
H12   H     H_    0.870367 0.804674 0.763420 0.174895
H13   H     H_    0.231877 0.701371 0.697113 0.195471
H14   H     H_    0.767196 0.830899 0.295501 0.196765
H15   H     H_    0.217530 0.154186 0.711777 0.197055
H16   H     H_    0.235005 0.698880 0.302821 0.204044
H17   H     H_    0.763697 0.302257 0.697449 0.204906
H18   H     H_    0.718694 0.655320 0.788901 0.195505
H19   H     H_    0.267013 0.331278 0.204738 0.200976
H20   H     H_    0.268101 0.798542 0.802882 0.195706
H21   H     H_    0.734366 0.199157 0.197234 0.175639
H22   H     H_    0.282491 0.345816 0.788219 0.197143
H23   H     H_    0.786832 0.149427 0.285301 0.190427
H24   H     H_    0.733313 0.669092 0.204609 0.201246
H25   H     H_    0.736329 0.197815 0.802550 0.204909
H26   H     H_    0.265205 0.800893 0.197418 0.188702
H27   H     H_    0.275160 0.436383 0.323282 0.371491
H28   H     H_    0.750596 0.588628 0.666137 0.369089
H29   H     H_    0.509062 0.334279 0.259632 0.344907
H30   H     H_    0.489517 0.699449 0.715741 0.348970
H31   H     H_    0.724172 0.562797 0.322962 0.371634
H32   H     H_    0.246882 0.408898 0.665297 0.369282
H33   H     H_    0.491659 0.665633 0.258942 0.344336
H34   H     H_    0.212189 0.851512 0.715499 0.189322
H35   H     H_    0.508068 0.333913 0.742792 0.346038
H36   H     H_    0.748787 0.911540 0.833802 0.369766
H37   H     H_    0.224605 0.064410 0.176352 0.367277
H38   H     H_    0.010480 0.800614 0.784182 0.347625
H39   H     H_    0.991531 0.197935 0.218185 0.348313
H40   H     H_    0.253702 0.090932 0.834640 0.369980
H41   H     H_    0.775902 0.936309 0.176765 0.367551
H42   H     H_    0.991888 0.166052 0.757186 0.345722
H43   H     H_    0.008681 0.834489 0.241511 0.345817
H44   H     H_    0.427252 0.198049 0.034552 0.371652
H45   H     H_    0.873301 0.807164 0.247296 0.174695
H46   H     H_    0.282210 0.896831 0.943833 0.372074
H47   H     H_    0.875897 0.705369 0.055186 0.374885
H48   H     H_    0.178289 0.615014 0.964189 0.370194
H49   H     H_    0.573028 0.801848 0.034638 0.371554
H50   H     H_    0.717866 0.103141 0.943789 0.372435
H51   H     H_    0.124411 0.294603 0.055256 0.374864
H52   H     H_    0.821970 0.385241 0.964335 0.370196
H53   H     H_    0.200318 0.553729 0.532249 0.364138
H54   H     H_    0.799591 0.446914 0.467782 0.364486
H55   H     H_    0.368673 0.839025 0.532586 0.365104
H56   H     H_    0.130105 0.195758 0.764414 0.172543
H57   H     H_    0.631581 0.160384 0.467505 0.365296
H58   H     H_    0.799708 0.446280 0.532265 0.364328
H59   H     H_    0.200436 0.553105 0.467755 0.364419
H60   H     H_    0.631321 0.160592 0.532481 0.365288
H61   H     H_    0.368349 0.839338 0.467466 0.365298
H62   H     H_    0.213704 0.849840 0.285698 0.191668
H63   H     H_    0.785572 0.150942 0.713851 0.192255
H64   H     H_    0.629610 0.695328 0.736575 0.175323
I1    I     I_    0.392089 0.134486 0.138269 -0.152189
I2    I     I_    0.846522 0.427467 0.359242 -0.221184
I3    I     I_    0.426524 0.847068 0.640934 -0.189675
I4    I     I_    0.573950 0.152653 0.359157 -0.182125
I5    I     I_    0.846905 0.426619 0.640755 -0.212702
I6    I     I_    0.153485 0.572530 0.359219 -0.215112
I7    I     I_    0.573678 0.152767 0.640829 -0.184963
I8    I     I_    0.426034 0.847282 0.359114 -0.181816
I9    I     I_    0.358220 0.905022 0.859298 -0.226036
I10   I     I_    0.892904 0.633373 0.140057 -0.174103
I11   I     I_    0.104040 0.635614 0.859599 -0.192307
I12   I     I_    0.608155 0.865647 0.138331 -0.152502
I13   I     I_    0.641755 0.095040 0.859277 -0.211628
I14   I     I_    0.106957 0.366469 0.140120 -0.173271
I15   I     I_    0.895719 0.364630 0.859702 -0.189041
I16   I     I_    0.153127 0.573339 0.640751 -0.223886
N1    N     N_R   0.436062 0.008541 0.014965 -0.117136
N2    N     N_R   0.994392 0.435716 0.484499 -0.114665
N3    N     N_R   0.532947 0.944379 0.515498 -0.113602
N4    N     N_R   0.466930 0.055335 0.484506 -0.113687
N5    N     N_R   0.994397 0.435718 0.515494 -0.114262
N6    N     N_R   0.005644 0.564285 0.484491 -0.114393
N7    N     N_R   0.466928 0.055324 0.515500 -0.113773
N8    N     N_R   0.532946 0.944388 0.484503 -0.113682
N9    N     N_R   0.564011 0.990803 0.984016 -0.118428
N10   N     N_R   0.001240 0.435609 0.015434 -0.119453
N11   N     N_R   0.998520 0.564459 0.984495 -0.117565
N12   N     N_R   0.564092 0.991305 0.014955 -0.117560
N13   N     N_R   0.436123 0.009036 0.984026 -0.118076
N14   N     N_R   0.999155 0.564452 0.015440 -0.119046
N15   N     N_R   0.001865 0.435638 0.984488 -0.117729
N16   N     N_R   0.005642 0.564287 0.515486 -0.114549
O1    O     O_3   0.500000 0.000000 0.250000 -0.519226
O2    O     O_R   0.438450 0.000020 0.680680 -0.619437
O3    O     O_R   0.851781 0.425377 0.953702 -0.759176
O4    O     O_2   0.141348 0.629782 0.570733 -0.554017
O5    O     O_R   0.158839 0.525096 0.542562 -0.762108
O6    O     O_2   0.858212 0.370759 0.429241 -0.553840
O7    O     O_R   0.841149 0.475421 0.457468 -0.760892
O8    O     O_2   0.463270 0.812244 0.570188 -0.549956
O9    O     O_R   0.385153 0.886418 0.543039 -0.762480
O10   O     O_2   0.537083 0.187442 0.429895 -0.546416
O11   O     O_R   0.615008 0.113046 0.457035 -0.762817
O12   O     O_2   0.858734 0.370206 0.570732 -0.551966
O13   O     O_R   0.000020 0.561550 0.319320 -0.613615
O14   O     O_R   0.841171 0.474920 0.542578 -0.762353
O15   O     O_2   0.141792 0.629248 0.429214 -0.553116
O16   O     O_R   0.158885 0.524588 0.457447 -0.761200
O17   O     O_2   0.536755 0.187484 0.570086 -0.547477
O18   O     O_R   0.614831 0.113226 0.542959 -0.762409
O19   O     O_2   0.462849 0.812354 0.429843 -0.546461
O20   O     O_R   0.384921 0.886696 0.457005 -0.762783
O21   O     O_R   0.999980 0.438450 0.680680 -0.612392
O22   O     O_R   0.938450 0.500020 0.819320 -0.619983
O23   O     O_R   0.061550 0.499980 0.180680 -0.621421
O24   O     O_R   0.499980 0.938450 0.819320 -0.618409
O25   O     O_R   0.500020 0.061550 0.180680 -0.617428
O26   O     O_R   0.061550 0.499980 0.819320 -0.619115
O27   O     O_R   0.938450 0.500020 0.180680 -0.620690
O28   O     O_R   0.500020 0.061550 0.819320 -0.613989
O29   O     O_3   0.500000 0.000000 0.750000 -0.520390
O30   O     O_R   0.499980 0.938450 0.180680 -0.617114
O31   O     O_R   0.648010 0.086580 0.268180 -0.632956
O32   O     O_R   0.351990 0.913420 0.731820 -0.636300
O33   O     O_R   0.913420 0.648010 0.268180 -0.627719
O34   O     O_R   0.086580 0.351990 0.731820 -0.624678
O35   O     O_R   0.351990 0.913420 0.268180 -0.636166
O36   O     O_R   0.648010 0.086580 0.731820 -0.639795
O37   O     O_R   0.086580 0.351990 0.268180 -0.627089
O38   O     O_R   0.913420 0.648010 0.731820 -0.624308
O39   O     O_R   0.148010 0.586580 0.768180 -0.634667
O40   O     O_3   1.000000 0.500000 0.250000 -0.519786
O41   O     O_R   0.851990 0.413420 0.231820 -0.642914
O42   O     O_R   0.413420 0.148010 0.768180 -0.624585
O43   O     O_R   0.586580 0.851990 0.231820 -0.622210
O44   O     O_R   0.851990 0.413420 0.768180 -0.638151
O45   O     O_R   0.148010 0.586580 0.231820 -0.642580
O46   O     O_R   0.586580 0.851990 0.768180 -0.624275
O47   O     O_R   0.413420 0.148010 0.231820 -0.621788
O48   O     O_R   0.413460 0.851950 0.231830 -0.608799
O49   O     O_R   0.586540 0.148050 0.768170 -0.601563
O50   O     O_R   0.148050 0.413460 0.231830 -0.626333
O51   O     O_3   0.000000 0.500000 0.750000 -0.520636
O52   O     O_R   0.851950 0.586540 0.768170 -0.635093
O53   O     O_R   0.586540 0.148050 0.231830 -0.610920
O54   O     O_R   0.413460 0.851950 0.768170 -0.611041
O55   O     O_R   0.851950 0.586540 0.231830 -0.628401
O56   O     O_R   0.148050 0.413460 0.768170 -0.635986
O57   O     O_R   0.913460 0.351950 0.731830 -0.602315
O58   O     O_R   0.086540 0.648050 0.268170 -0.602258
O59   O     O_R   0.648050 0.913460 0.731830 -0.635163
O60   O     O_R   0.351950 0.086540 0.268170 -0.632992
O61   O     O_R   0.086540 0.648050 0.731830 -0.611853
O62   O     O_R   0.438450 0.000020 0.319320 -0.621330
O63   O     O_R   0.913460 0.351950 0.268170 -0.607794
O64   O     O_R   0.351950 0.086540 0.731830 -0.636077
O65   O     O_R   0.648050 0.913460 0.268170 -0.630996
O66   O     O_2   0.252898 0.306469 0.330419 -0.576779
O67   O     O_R   0.273111 0.410943 0.302283 -0.792297
O68   O     O_2   0.773602 0.719435 0.667752 -0.579599
O69   O     O_R   0.745517 0.607133 0.688302 -0.791501
O70   O     O_2   0.609861 0.337960 0.296093 -0.573024
O71   O     O_R   0.554474 0.310955 0.249954 -0.778965
O72   O     O_2   0.383200 0.620693 0.721248 -0.578429
O73   O     O_R   0.561550 0.999980 0.680680 -0.620295
O74   O     O_R   0.446275 0.729047 0.724068 -0.805644
O75   O     O_2   0.746322 0.692647 0.330352 -0.575573
O76   O     O_R   0.726392 0.588449 0.302009 -0.792452
O77   O     O_2   0.223930 0.278149 0.667730 -0.578419
O78   O     O_R   0.252638 0.391039 0.687530 -0.783963
O79   O     O_2   0.391567 0.661616 0.295764 -0.574143
O80   O     O_R   0.446050 0.689105 0.249463 -0.777583
O81   O     O_2   0.607081 0.339124 0.705446 -0.574479
O82   O     O_R   0.554083 0.310469 0.751920 -0.772775
O83   O     O_2   0.726401 0.780598 0.832245 -0.580547
O84   O     O_R   0.999980 0.438450 0.319320 -0.618498
O85   O     O_R   0.754088 0.892961 0.811655 -0.792333
O86   O     O_2   0.233058 0.196127 0.169808 -0.555712
O87   O     O_R   0.230164 0.088983 0.197421 -0.799592
O88   O     O_2   0.116847 0.879296 0.778726 -0.579163
O89   O     O_R   0.053737 0.770977 0.775891 -0.807326
O90   O     O_2   0.884854 0.119479 0.223179 -0.582558
O91   O     O_R   0.947778 0.227964 0.225775 -0.808357
O92   O     O_2   0.276068 0.221812 0.832269 -0.579351
O93   O     O_R   0.247735 0.108866 0.812427 -0.784813
O94   O     O_2   0.767417 0.804670 0.169956 -0.555312
O95   O     O_R   0.000020 0.561550 0.680680 -0.617245
O96   O     O_R   0.770193 0.911495 0.197780 -0.789796
O97   O     O_2   0.892888 0.160878 0.794540 -0.576662
O98   O     O_R   0.945879 0.189520 0.748064 -0.772792
O99   O     O_2   0.108612 0.838551 0.204611 -0.589135
O100  O     O_R   0.054283 0.810843 0.250920 -0.774169
O101  O     O_2   0.352713 0.118402 0.066503 -0.550594
O102  O     O_R   0.460029 0.160772 0.045468 -0.759086
O103  O     O_2   0.410095 0.864331 0.950580 -0.572995
O104  O     O_R   0.314386 0.931329 0.931107 -0.737654
O105  O     O_2   0.854325 0.574991 0.049956 -0.572333
O106  O     O_R   0.561550 0.999980 0.319320 -0.621624
O107  O     O_R   0.913925 0.677135 0.067780 -0.733072
O108  O     O_2   0.084981 0.670036 0.931791 -0.552835
O109  O     O_R   0.148461 0.574858 0.953582 -0.758929
O110  O     O_2   0.647518 0.881598 0.066551 -0.550994
O111  O     O_R   0.540230 0.839129 0.045537 -0.758692
O112  O     O_2   0.589981 0.135538 0.950585 -0.572376
O113  O     O_R   0.685692 0.068645 0.931066 -0.737552
O114  O     O_2   0.145957 0.424990 0.050026 -0.571680
O115  O     O_R   0.086334 0.322827 0.067831 -0.735065
O116  O     O_2   0.915119 0.330155 0.931874 -0.550426
Zn1   Zn    Zn3+2 0.499980 0.087890 0.224030 1.043987
Zn2   Zn    Zn3+2 0.000020 0.412110 0.275970 1.049938
Zn3   Zn    Zn3+2 0.412110 0.999980 0.724030 1.035461
Zn4   Zn    Zn3+2 0.587890 0.000020 0.275970 1.029409
Zn5   Zn    Zn3+2 0.000020 0.412110 0.724030 1.053102
Zn6   Zn    Zn3+2 0.999980 0.587890 0.275970 1.049185
Zn7   Zn    Zn3+2 0.587890 0.000020 0.724030 1.029453
Zn8   Zn    Zn3+2 0.412110 0.999980 0.275970 1.025365
Zn9   Zn    Zn3+2 0.500020 0.912110 0.775970 1.052711
Zn10  Zn    Zn3+2 0.912110 0.499980 0.224030 1.031514
Zn11  Zn    Zn3+2 0.087890 0.500020 0.775970 1.035185
Zn12  Zn    Zn3+2 0.500020 0.912110 0.224030 1.044322
Zn13  Zn    Zn3+2 0.499980 0.087890 0.775970 1.052614
Zn14  Zn    Zn3+2 0.087890 0.500020 0.224030 1.030071
Zn15  Zn    Zn3+2 0.912110 0.499980 0.775970 1.029184
Zn16  Zn    Zn3+2 0.999980 0.587890 0.724030 1.053075

loop_
_geom_bond_atom_site_label_1
_geom_bond_atom_site_label_2
_ccdc_geom_bond_type
O56   Zn11  S    
C134  H34   S    
C52   O67   S    
C132  C150  S    
C32   C45   A    
C74   O111  S    
C127  H24   S    
O42   Zn13  S    
C118  C136  S    
C15   C32   A    
C101  O36   A    
C112  O47   A    
C134  C176  S    
C146  H7    S    
O38   Zn16  S    
C147  C164  S    
C129  C154  S    
C82   O11   S    
C126  C143  S    
C104  O39   A    
H39   O91   S    
C19   C37   A    
C120  C163  S    
C117  C170  S    
C50   C90   S    
C111  O95   A    
O73   Zn7   S    
C140  H2    S    
C99   O35   A    
C42   C86   S    
C19   I3    S    
C84   O16   S    
O21   Zn5   S    
O33   Zn6   S    
C96   O54   A    
C148  C165  S    
C37   C81   S    
C73   O109  S    
C156  C173  S    
C81   O9    S    
C116  C159  S    
C36   C80   S    
C7    C137  S    
O48   Zn12  S    
H46   O104  S    
C62   O86   D    
C114  C157  S    
C107  O65   A    
C130  H1    S    
C72   O105  D    
O40   Zn6   S    
C118  H15   S    
C144  O28   A    
C107  C162  S    
C98   O56   A    
C150  C168  S    
C141  C169  S    
C47   C93   S    
C48   C87   S    
H43   O100  S    
C139  C167  S    
O61   Zn16  S    
C83   O14   S    
C112  C158  S    
C127  C145  S    
O55   Zn10  S    
C101  O49   A    
C33   C47   A    
C30   C43   A    
C131  C149  S    
C34   C48   A    
C17   C34   A    
O46   Zn9   S    
O49   Zn13  S    
C117  C135  S    
C121  H18   S    
C27   C71   S    
C140  C165  S    
C145  C170  S    
C13   C133  S    
C20   C68   A    
C56   O75   D    
O37   Zn2   S    
C110  O59   A    
O62   Zn8   S    
C21   C35   A    
C23   C41   A    
C115  C160  S    
C58   C171  S    
C37   C50   A    
C96   C151  S    
C61   O83   D    
C59   O79   D    
C118  C171  S    
C144  O24   A    
C62   C175  S    
C100  O13   A    
H53   O5    S    
C97   C152  S    
C121  C149  S    
C2    C14   A    
C129  C147  S    
C128  C156  S    
C142  C168  S    
C92   N12   A    
C107  O43   A    
C6    C163  S    
C139  C157  S    
H47   O107  S    
O51   Zn16  S    
C79   N6    A    
C95   O31   A    
C4    C161  S    
C91   N9    A    
C143  C161  S    
C77   O116  D    
C136  C153  S    
O31   Zn4   S    
C2    C144  S    
C77   O3    S    
O32   Zn3   S    
C78   O4    D    
C14   C31   A    
C1    C68   S    
C92   N1    A    
O34   Zn5   S    
C114  C167  S    
C3    C64   S    
C52   O66   D    
C85   O18   S    
C65   O93   S    
C29   C47   A    
O47   Zn1   S    
N10   N15   A    
H42   O98   S    
C72   O107  S    
C30   C74   S    
C16   I15   S    
C105  C160  S    
C134  C151  S    
C40   C49   A    
C99   C154  S    
H29   O71   S    
C106  C161  S    
C83   O12   D    
C140  C158  S    
C27   C44   A    
C141  C159  S    
C142  H4    S    
C21   C39   A    
C80   O7    S    
C10   C13   A    
O44   Zn15  S    
C97   O55   A    
C157  C174  S    
C95   O53   A    
C126  H22   S    
C58   O78   S    
H30   O74   S    
H41   O96   S    
C115  C132  S    
O60   Zn8   S    
C135  H45   S    
C113  C130  S    
C138  H63   S    
C119  H16   S    
C22   I6    S    
H44   O102  S    
C38   C51   A    
C75   O113  S    
C109  O45   A    
C10   I10   S    
H35   O82   S    
C69   O100  S    
C90   N7    A    
C87   N16   A    
C115  H11   S    
C93   N15   A    
C113  H9    S    
C124  H20   S    
O1    Zn4   S    
H59   O16   S    
O2    Zn3   S    
C95   C150  S    
C39   C83   S    
O106  Zn4   S    
O52   Zn15  S    
C71   O104  S    
C6    C67   S    
H57   O11   S    
C124  C151  S    
O43   Zn12  S    
C60   O82   S    
C159  C176  S    
C54   O71   S    
C76   O115  S    
C124  C141  S    
N1    N13   A    
C70   O101  D    
C82   O10   D    
C147  C172  S    
C88   N8    A    
O65   Zn4   S    
C75   O112  D    
C23   C57   A    
H33   O80   S    
C1    O106  A    
O53   Zn1   S    
C86   O19   D    
C56   C170  S    
C139  H64   S    
H55   O9    S    
C61   C174  S    
C54   C168  S    
C5    C66   S    
C119  C164  S    
C32   C76   S    
O40   Zn2   S    
C124  C176  S    
C130  C175  S    
C131  C174  S    
C97   O33   A    
C120  H17   S    
C151  C169  S    
C4    C136  S    
C121  C139  S    
C6    C128  S    
C33   C77   S    
O57   Zn5   S    
C8    I1    S    
O1    Zn8   S    
C23   I7    S    
O50   Zn14  S    
N6    N16   A    
C25   I8    S    
C158  C175  S    
C123  C148  S    
C96   O32   A    
C115  C168  S    
C2    C9    A    
C147  H8    S    
O29   Zn9   S    
C116  H13   S    
C17   I16   S    
C111  O21   A    
C114  C131  S    
C40   C84   S    
C149  C167  S    
C73   O108  D    
O51   Zn11  S    
O25   Zn1   S    
C63   C176  S    
C28   C72   S    
C19   C57   A    
O13   Zn6   S    
O64   Zn3   S    
C57   C89   S    
O41   Zn10  S    
C113  C165  S    
C116  C134  S    
C94   N14   A    
O29   Zn7   S    
C64   O91   S    
C5    C135  S    
C62   O87   S    
C122  O22   A    
C87   N5    A    
H49   O111  S    
O35   Zn8   S    
C18   I2    S    
O24   Zn9   S    
C38   C82   S    
C80   O6    D    
C60   C173  S    
C123  H19   S    
C74   O110  D    
C25   C68   A    
N4    N7    A    
C90   N3    A    
C18   C46   A    
C108  C163  S    
O39   Zn11  S    
C3    C132  S    
C56   O76   S    
N3    N8    A    
C105  O41   A    
O30   Zn12  S    
C101  C156  S    
C66   O96   S    
C108  O44   A    
C49   C79   S    
C51   C88   S    
O45   Zn14  S    
C52   C165  S    
O58   Zn6   S    
C123  C175  S    
C121  C174  S    
H51   O115  S    
C5    C127  S    
C24   C122  S    
C44   C91   S    
C53   O68   D    
C22   C46   A    
C84   O15   D    
C105  O63   A    
O51   Zn15  S    
C89   O2    A    
C117  C162  S    
C59   C172  S    
C102  O50   A    
C41   C50   A    
C9    C27   A    
C100  O84   A    
C10   C28   A    
C55   O72   D    
C20   I4    S    
O63   Zn2   S    
C12   C30   A    
C141  H3    S    
C76   O114  D    
C110  O46   A    
C43   C92   S    
C78   O5    S    
C109  C164  S    
C25   C42   A    
C53   O69   S    
C93   N11   A    
C4    C126  S    
C63   O89   S    
C85   O17   D    
C7    C164  S    
C155  O25   A    
C65   O92   D    
C12   I12   S    
H54   O7    S    
C5    C162  S    
C143  C171  S    
O95   Zn16  S    
C18   C36   A    
H31   O76   S    
N11   N14   A    
C137  C154  S    
C99   O48   A    
C7    C129  S    
H38   O89   S    
C125  C150  S    
C103  C149  S    
C126  C153  S    
C59   O80   S    
O26   Zn11  S    
C114  H10   S    
O27   Zn10  S    
C17   C35   A    
H60   O18   S    
C55   C169  S    
C36   C49   A    
C135  C152  S    
C39   C48   A    
C61   O85   S    
C118  C161  S    
C98   O34   A    
C81   O8    D    
C128  C146  S    
C66   O94   D    
C136  H56   S    
H27   O67   S    
O1    Zn12  S    
O29   Zn13  S    
C143  H5    S    
H48   O109  S    
C12   C166  A    
C4    C65   S    
C29   C73   S    
C145  C162  S    
H52   O3    S    
C89   O73   A    
C146  C173  S    
C11   C24   A    
O36   Zn7   S    
C152  C170  S    
C155  O30   A    
C137  H62   S    
C69   O99   D    
C102  C148  S    
C88   N4    A    
C31   C75   S    
C53   C167  S    
C63   O88   D    
C67   O98   S    
C64   O90   D    
C108  O57   A    
C113  C158  S    
C71   O103  D    
C42   C51   A    
O40   Zn10  S    
C131  H12   S    
C98   C153  S    
C125  H21   S    
C16   C24   A    
O40   Zn14  S    
C70   O102  S    
C45   C94   S    
H28   O69   S    
C109  O58   A    
O84   Zn2   S    
C26   C43   A    
C106  O64   A    
C8    C26   A    
C94   N10   A    
C28   C45   A    
O29   Zn3   S    
C86   O20   S    
C31   C44   A    
C130  C148  S    
C119  C137  S    
C21   I5    S    
H58   O14   S    
C102  O37   A    
H32   O78   S    
C145  H6    S    
C132  H23   S    
C11   I11   S    
C122  O26   A    
C6    C138  S    
C9    I9    S    
C127  C152  S    
C20   C38   A    
H37   O87   S    
C125  C142  S    
C22   C40   A    
C153  C171  S    
O28   Zn13  S    
C133  O27   A    
C154  C172  S    
H36   O85   S    
C110  C157  S    
C8    C166  A    
C129  H26   S    
H50   O113  S    
C58   O77   D    
C55   O74   S    
C13   C15   A    
C3    C160  S    
N2    N5    A    
C35   C111  S    
C106  O42   A    
C138  C156  S    
C46   C100  S    
O54   Zn9   S    
C79   N2    A    
C142  C160  S    
C91   N13   A    
H61   O20   S    
C7    C69   S    
C3    C125  S    
C103  O38   A    
C41   C85   S    
C146  C163  S    
C119  C172  S    
C16   C33   A    
O59   Zn7   S    
C104  O61   A    
C34   C78   S    
O1    Zn1   S    
C1    O62   A    
C14   I13   S    
C26   C70   S    
H40   O93   S    
O23   Zn14  S    
C116  C169  S    
C128  H25   S    
C133  O23   A    
C67   O97   D    
O51   Zn5   S    
N9    N12   A    
O22   Zn15  S    
C117  H14   S    
C112  O60   A    
C123  C140  S    
C120  C173  S    
C120  C138  S    
C11   C29   A    
C60   O81   D    
C155  C166  S    
C54   O70   D    
C104  C159  S    
C103  O52   A    
C15   I14   S    
