data_mof_unit_12519.cif
_audit_creation_date              2012-12-10T20:00:00-0500
_audit_creation_method            fapswitch 2.2
_symmetry_space_group_name_H-M    P1
_symmetry_Int_Tables_number       1
_space_group_crystal_system       triclinic
_cell_length_a                    14.991584
_cell_length_b                    14.163496
_cell_length_c                    8.915687
_cell_angle_alpha                 90.028975
_cell_angle_beta                  89.933977
_cell_angle_gamma                 90.176258
_cell_volume                      1893.08625448

loop_
_atom_site_label
_atom_site_type_symbol
_atom_type_description
_atom_site_fract_x
_atom_site_fract_y
_atom_site_fract_z
_atom_type_partial_charge
C1    C     C_R   0.327740 0.499908 0.501233 0.856221
C2    C     C_R   0.419064 0.895832 0.520502 0.413616
C3    C     C_R   0.500009 0.499981 0.218504 0.942902
C4    C     C_R   0.500026 0.500010 0.781496 0.940411
C5    C     C_R   0.500536 0.053832 0.505301 -0.016162
C6    C     C_R   0.500130 0.946783 0.505396 -0.001073
C7    C     C_1   0.500029 0.499959 0.065336 -0.208336
C8    C     C_1   0.500037 0.500001 0.934658 -0.206568
C9    C     C_R   0.092900 0.579047 0.468807 -0.180850
C10   C     C_R   0.907189 0.418047 0.484220 -0.177920
C11   C     C_R   0.904614 0.580661 0.572382 -0.180526
C12   C     C_R   0.672342 0.500085 0.501707 0.857251
C13   C     C_R   0.095912 0.423573 0.584929 -0.181112
C14   C     C_R   0.184773 0.578576 0.459130 -0.206628
C15   C     C_R   0.815318 0.418099 0.474805 -0.192110
C16   C     C_R   0.812771 0.581155 0.561090 -0.194626
C17   C     C_R   0.187762 0.422551 0.573285 -0.189877
C18   C     C_R   0.232068 0.499967 0.510027 -0.018907
C19   C     C_R   0.768141 0.500045 0.511404 -0.026101
C20   C     C_R   0.048351 0.501380 0.531213 0.118497
C21   C     C_R   0.951958 0.499525 0.532076 0.117079
C22   C     C_3   0.440560 0.045471 0.160578 0.063867
C23   C     C_R   0.450201 0.203507 0.399007 -0.132974
C24   C     C_3   0.390592 0.972165 0.066846 -0.342458
C25   C     C_3   0.435739 0.956559 0.915542 -0.891726
C26   C     C_3   0.681287 0.967825 0.336357 0.057954
C27   C     C_3   0.780537 0.991295 0.323728 -0.300455
C28   C     C_3   0.804302 0.026489 0.167046 -1.006926
C29   C     C_3   0.661727 0.104685 0.804178 0.109583
C30   C     C_3   0.745384 0.131195 0.713217 -0.339583
C31   C     C_3   0.806536 0.197055 0.801489 -0.980315
C32   C     C_3   0.266725 0.899373 0.596380 0.124955
C33   C     C_3   0.205619 0.863340 0.470518 -0.388990
C34   C     C_R   0.578341 0.795898 0.489777 -0.122911
C35   C     C_3   0.164112 0.944462 0.382297 -0.777070
C36   C     C_R   0.550244 0.206408 0.603518 -0.197822
C37   C     C_R   0.421562 0.795144 0.513467 -0.205140
C38   C     C_R   0.450124 0.104197 0.397802 0.365226
C39   C     C_R   0.580433 0.895175 0.489549 0.366327
C40   C     C_R   0.552376 0.105576 0.610039 0.395443
H1    H     H_    0.409938 0.241714 0.318894 0.160348
H2    H     H_    0.781461 0.354844 0.436484 0.154740
H3    H     H_    0.776807 0.644458 0.592197 0.153836
H4    H     H_    0.224092 0.362043 0.615158 0.157933
H5    H     H_    0.509985 0.019629 0.176863 0.104903
H6    H     H_    0.442242 0.113924 0.099197 0.141595
H7    H     H_    0.388523 0.904112 0.128997 0.227818
H8    H     H_    0.320886 0.996001 0.048167 0.222461
H9    H     H_    0.432555 0.022023 0.847295 0.283432
H10   H     H_    0.400875 0.899095 0.854455 0.252807
H11   H     H_    0.506518 0.935727 0.931094 0.275987
H12   H     H_    0.640318 0.757551 0.480814 0.164427
H13   H     H_    0.642690 0.032331 0.308694 0.125643
H14   H     H_    0.665339 0.910884 0.253818 0.127020
H15   H     H_    0.798071 0.046955 0.406515 0.217101
H16   H     H_    0.820372 0.927221 0.349230 0.220370
H17   H     H_    0.788652 0.971616 0.081911 0.268691
H18   H     H_    0.876714 0.042826 0.161461 0.269486
H19   H     H_    0.766420 0.091766 0.141311 0.258050
H20   H     H_    0.683356 0.057382 0.896328 0.158312
H21   H     H_    0.630467 0.165455 0.862607 0.108388
H22   H     H_    0.782419 0.065776 0.684507 0.236908
H23   H     H_    0.588158 0.250008 0.679406 0.162051
H24   H     H_    0.727063 0.166582 0.606633 0.213476
H25   H     H_    0.770948 0.263327 0.830330 0.270246
H26   H     H_    0.865799 0.215227 0.732311 0.266584
H27   H     H_    0.829523 0.162209 0.905913 0.271605
H28   H     H_    0.228187 0.949831 0.666289 0.158432
H29   H     H_    0.285140 0.842002 0.675503 0.064630
H30   H     H_    0.243516 0.818025 0.391544 0.206205
H31   H     H_    0.151367 0.819931 0.520627 0.173588
H32   H     H_    0.124210 0.990307 0.457835 0.237567
H33   H     H_    0.119403 0.915487 0.294239 0.221273
H34   H     H_    0.361369 0.753773 0.518925 0.156085
H35   H     H_    0.216851 0.987416 0.327131 0.307580
H36   H     H_    0.056643 0.638883 0.424444 0.130235
H37   H     H_    0.943290 0.355363 0.450533 0.131973
H38   H     H_    0.938724 0.643565 0.611448 0.129781
H39   H     H_    0.061990 0.363726 0.635035 0.131482
H40   H     H_    0.218659 0.638585 0.409515 0.138874
N1    N     N_R   0.500000 0.252470 0.500000 -0.122791
N2    N     N_R   0.500000 0.747530 0.500000 -0.121062
O1    O     O_R   0.369060 0.579480 0.500010 -0.633429
O2    O     O_3   0.662484 0.939934 0.485022 -0.610642
O3    O     O_3   0.599768 0.053228 0.716593 -0.616842
O4    O     O_3   0.340949 0.948708 0.536703 -0.582568
O5    O     O_R   0.630940 0.420520 0.499990 -0.622702
O6    O     O_R   0.630940 0.579480 0.499990 -0.631981
O7    O     O_R   0.369060 0.420520 0.500010 -0.616047
O8    O     O_R   0.500000 0.579460 0.285340 -0.605563
O9    O     O_R   0.500000 0.420540 0.714660 -0.619029
O10   O     O_R   0.500000 0.579460 0.714660 -0.602572
O11   O     O_R   0.500000 0.420540 0.285340 -0.620037
O12   O     O_3   0.395498 0.056594 0.298373 -0.603738
Zn1   Zn    Zn3+2 0.500000 0.606140 0.500000 0.945003
Zn2   Zn    Zn3+2 0.500000 0.393860 0.500000 0.939908

loop_
_geom_bond_atom_site_label_1
_geom_bond_atom_site_label_2
_ccdc_geom_bond_type
C31   H26   S    
C37   H34   S    
C13   H39   S    
C30   H24   S    
C14   C18   A    
C4    C8    S    
C7    C8    T    
C28   H17   S    
C31   H27   S    
C35   H35   S    
C26   C27   S    
C3    O8    A    
C39   O2    S    
C3    C7    S    
C10   C15   A    
C5    C6    S    
C27   H15   S    
C25   H10   S    
O9    Zn2   S    
C26   O2    S    
C9    H36   S    
C14   H40   S    
C36   H23   S    
C29   O3    S    
C12   O5    A    
C32   H28   S    
C4    O9    A    
O6    Zn1   S    
C32   O4    S    
C5    C38   A    
C22   O12   S    
C2    C6    A    
C26   H14   S    
C10   H37   S    
C10   C21   A    
C29   H21   S    
C12   O6    A    
C34   C39   A    
C24   H8    S    
C36   C40   A    
C24   C25   S    
N1    Zn2   S    
C27   H16   S    
C11   C21   A    
O10   Zn1   S    
C40   O3    S    
C15   C19   A    
C9    C14   A    
C25   H11   S    
C29   C30   S    
C11   H38   S    
C11   C16   A    
C9    C20   A    
C29   H20   S    
C36   N1    A    
O1    Zn1   S    
O5    Zn2   S    
C38   O12   S    
C17   C18   A    
C1    C18   S    
C3    O11   A    
C16   H3    S    
C33   H30   S    
C22   H6    S    
C35   H32   S    
O11   Zn2   S    
C30   H22   S    
C22   C24   S    
C37   N2    A    
C26   H13   S    
C28   H19   S    
C31   H25   S    
C35   H33   S    
C1    O7    A    
N2    Zn1   S    
C23   N1    A    
C13   C20   A    
C24   H7    S    
C15   H2    S    
O8    Zn1   S    
C32   H29   S    
C28   H18   S    
C1    O1    A    
C23   C38   A    
C34   H12   S    
C23   H1    S    
C13   C17   A    
C32   C33   S    
O7    Zn2   S    
C17   H4    S    
C2    C37   A    
C30   C31   S    
C16   C19   A    
C12   C19   S    
C33   C35   S    
C2    O4    S    
C25   H9    S    
C33   H31   S    
C22   H5    S    
C20   C21   S    
C5    C40   A    
C27   C28   S    
C6    C39   A    
C34   N2    A    
C4    O10   A    
