data_mof_unit_32613.cif
_audit_creation_date              2012-12-10T16:48:06-0500
_audit_creation_method            fapswitch 2.2
_symmetry_space_group_name_H-M    P1
_symmetry_Int_Tables_number       1
_space_group_crystal_system       triclinic
_cell_length_a                    15.864858
_cell_length_b                    8.718944
_cell_length_c                    7.443358
_cell_angle_alpha                 102.409584
_cell_angle_beta                  94.954184
_cell_angle_gamma                 92.215131
_cell_volume                      1000.05595942

loop_
_atom_site_label
_atom_site_type_symbol
_atom_type_description
_atom_site_fract_x
_atom_site_fract_y
_atom_site_fract_z
_atom_type_partial_charge
C1    C     C_R   0.496072 0.200395 0.454873 0.863854
C2    C     C_R   0.503929 0.799605 0.545126 0.863853
C3    C     C_R   0.340023 0.500068 0.501021 0.815912
C4    C     C_R   0.659977 0.499932 0.498979 0.815912
C5    C     C_2   0.482457 0.035086 0.434952 0.095971
C6    C     C_2   0.517547 0.964912 0.565041 0.095964
C7    C     C_3   0.973088 0.372863 0.557927 -0.161025
C8    C     C_3   0.026912 0.627137 0.442073 -0.161024
C9    C     C_3   0.019731 0.369321 0.383651 -0.158536
C10   C     C_3   0.980269 0.630679 0.616349 -0.158537
C11   C     C_1   0.250674 0.500919 0.501678 -0.041036
C12   C     C_1   0.749326 0.499080 0.498322 -0.041033
C13   C     C_3   0.037274 0.504203 0.669267 0.341122
C14   C     C_3   0.962726 0.495797 0.330733 0.341122
C15   C     C_3   0.083565 0.500661 0.494929 0.005380
C16   C     C_3   0.916434 0.499339 0.505071 0.005380
C17   C     C_1   0.175190 0.501096 0.498211 0.194412
C18   C     C_1   0.824810 0.498903 0.501789 0.194413
Cu1   Cu    Cu3+1 0.509330 0.517380 0.684380 1.083011
Cu2   Cu    Cu3+1 0.490670 0.482620 0.315620 1.083011
H1    H     H_    0.434788 0.376962 0.948207 0.247003
H2    H     H_    0.565212 0.623038 0.051793 0.247004
N1    N     N_2   0.476600 0.456420 0.038510 -0.176685
N2    N     N_2   0.523400 0.543580 0.961490 -0.176684
O1    O     O_R   0.506070 0.286130 0.619780 -0.570496
O2    O     O_R   0.493930 0.713870 0.380220 -0.570495
O3    O     O_R   0.490300 0.256770 0.308360 -0.539128
O4    O     O_R   0.509700 0.743230 0.691640 -0.539127
O5    O     O_R   0.386960 0.514660 0.655680 -0.588516
O6    O     O_R   0.613040 0.485340 0.344320 -0.588518
O7    O     O_R   0.371190 0.485310 0.344260 -0.545267
O8    O     O_R   0.628810 0.514690 0.655740 -0.545267
C19   C     C_2   0.038872 0.222489 0.250825 0.472983
H3    H     H_    0.987399 0.139789 0.181138 0.089018
O9    O     O_2   0.111737 0.195146 0.220343 -0.484603
C20   C     C_2   0.961128 0.777511 0.749175 0.472983
H4    H     H_    0.012600 0.860211 0.818862 0.089017
O10   O     O_2   0.888262 0.804853 0.779657 -0.484602
C21   C     C_2   0.945938 0.230083 0.624938 0.497743
H5    H     H_    0.992893 0.150396 0.657280 0.059933
O11   O     O_2   0.871582 0.202690 0.643457 -0.471616
C22   C     C_2   0.054062 0.769917 0.375062 0.497741
H6    H     H_    0.007107 0.849604 0.342720 0.059933
O12   O     O_2   0.128418 0.797310 0.356543 -0.471618
Cl1   Cl    Cl    0.910084 0.489984 0.107418 -0.520211
Cl2   Cl    Cl    0.089915 0.510016 0.892581 -0.520211
Cl3   Cl    Cl    0.407898 0.940223 0.248086 -0.509220
Cl4   Cl    Cl    0.592111 0.059776 0.751897 -0.509219

loop_
_geom_bond_atom_site_label_1
_geom_bond_atom_site_label_2
_ccdc_geom_bond_type
C1    O1    A    
C9    C14   S    
C15   C17   S    
Cu2   O3    S    
C4    C12   S    
Cu1   Cu2   S    
Cu2   N1    S    
C3    O7    A    
C20   O10   D    
C19   H3    S    
C9    C15   S    
C4    O6    A    
C2    O2    A    
C10   C16   S    
Cu2   O6    S    
C9    C19   S    
Cu1   O4    S    
C5    Cl3   S    
C3    O5    A    
C4    O8    A    
C22   O12   D    
C1    C5    S    
Cu1   O8    S    
C16   C18   S    
C20   H4    S    
C19   O9    D    
C8    C22   S    
Cu1   N2    S    
C14   Cl1   S    
C14   C16   S    
C13   C15   S    
H1    N1    S    
C5    C6    D    
Cu1   O1    S    
H2    N2    S    
C3    C11   S    
C22   H6    S    
N1    N2    D    
Cu1   O5    S    
C7    C9    S    
C7    C13   S    
C21   O11   D    
C12   C18   T    
C21   H5    S    
C1    O3    A    
C7    C21   S    
C13   Cl2   S    
C7    C16   S    
C2    O4    A    
C8    C15   S    
C8    C14   S    
C10   C13   S    
C8    C10   S    
C11   C17   T    
C2    C6    S    
Cu2   O2    S    
C10   C20   S    
Cu2   O7    S    
C6    Cl4   S    
