data_mof_unit_9425.cif
_audit_creation_date              2013-03-05T15:46:44-0500
_audit_creation_method            fapswitch 2.2
_symmetry_space_group_name_H-M    P1
_symmetry_Int_Tables_number       1
_space_group_crystal_system       triclinic
_cell_length_a                    10.182351
_cell_length_b                    10.797667
_cell_length_c                    12.219728
_cell_angle_alpha                 90.691748
_cell_angle_beta                  109.168989
_cell_angle_gamma                 96.050999
_cell_volume                      1260.38394046

loop_
_atom_site_label
_atom_site_type_symbol
_atom_site_description
_atom_site_fract_x
_atom_site_fract_y
_atom_site_fract_z
_atom_type_partial_charge
O1    O     O_R   0.936910 0.692950 0.509080 -0.610298
O2    O     O_R   0.138320 0.658600 0.480130 -0.606177
C1    C     C_R   0.054138 0.732919 0.496407 0.940917
O3    O     O_R   0.002900 0.525670 0.675280 -0.603963
O4    O     O_R   0.204310 0.491320 0.646330 -0.603888
C2    C     C_R   0.132509 0.506654 0.715142 0.863565
Zn1   Zn    Zn3+2 0.865520 0.522940 0.519330 0.947117
Zn2   Zn    Zn3+2 0.134480 0.477060 0.480670 0.952943
O5    O     O_R   0.861680 0.341400 0.519870 -0.593420
O6    O     O_R   0.063090 0.307050 0.490920 -0.608133
O7    O     O_R   0.795690 0.508680 0.353670 -0.611108
O8    O     O_R   0.997100 0.474330 0.324720 -0.612699
C3    C     C_R   0.950268 0.267632 0.511218 0.938591
C4    C     C_R   0.865616 0.487300 0.285463 0.873072
C5    C     C_R   0.732998 0.337079 0.985325 -0.133095
H1    H     H_    0.933118 0.355021 0.120440 0.162394
H2    H     H_    0.769196 0.279392 0.930741 0.189838
C6    C     C_R   0.786754 0.461734 0.163239 -0.066218
C7    C     C_R   0.151124 0.563350 0.921738 0.189059
C8    C     C_R   0.231673 0.571732 0.039134 -0.136536
C9    C     C_R   0.362701 0.530377 0.075605 -0.230633
C10   C     C_R   0.413816 0.472305 0.996016 0.092503
C11   C     C_R   0.323027 0.441545 0.882926 -0.018325
C12   C     C_R   0.552694 0.443885 0.025614 0.053048
C13   C     C_R   0.592458 0.362730 0.952567 0.028521
C14   C     C_R   0.490803 0.311350 0.848867 0.278771
C15   C     C_R   0.358204 0.352386 0.814682 -0.255395
C16   C     C_R   0.654243 0.499369 0.124824 -0.223757
C17   C     C_R   0.828798 0.383559 0.092047 -0.209750
C18   C     C_R   0.199715 0.500955 0.841345 -0.116290
H3    H     H_    0.631026 0.570488 0.176385 0.152775
H4    H     H_    0.420463 0.541377 0.167390 0.140956
H5    H     H_    0.195837 0.615354 0.102830 0.148168
H6    H     H_    0.280870 0.309939 0.736013 0.199097
H7    H     H_    0.136127 0.111064 0.538308 0.214216
H8    H     H_    0.924750 0.896608 0.567568 0.189845
C19   C     C_2   0.092020 0.866201 0.506453 -0.359110
C20   C     C_2   0.013439 0.936669 0.543488 -0.139293
H9    H     H_    0.828068 0.094367 0.532060 0.171533
C21   C     C_2   0.928900 0.136421 0.529736 -0.372364
C22   C     C_2   0.035057 0.069414 0.540698 -0.140458
H10   H     H_    0.180358 0.906651 0.482250 0.167437
H11   H     H_    0.564655 0.414617 0.428234 0.167746
H12   H     H_    0.435533 0.584589 0.572545 0.164632
N1    N     N_2   0.313640 0.446500 0.454900 -0.182477
C23   C     C_2   0.432831 0.511236 0.510084 -0.090811
H13   H     H_    0.684703 0.622340 0.603640 0.165202
N2    N     N_2   0.686360 0.553430 0.545150 -0.193211
C24   C     C_2   0.567297 0.488228 0.490443 -0.100628
H14   H     H_    0.315303 0.377736 0.396281 0.170542
N3    N     N_R   0.519633 0.218920 0.776833 0.198141
O9    O     O_R   0.466406 0.220512 0.664439 -0.413818
O10   O     O_R   0.577808 0.121662 0.822511 -0.406914
C25   C     C_3   0.016373 0.622656 0.886609 -0.851016
H15   H     H_    0.998963 0.667920 0.962060 0.226243
H16   H     H_    0.019297 0.695996 0.824246 0.247785
H17   H     H_    0.925978 0.550496 0.847622 0.255126

loop_
_geom_bond_atom_site_label_1
_geom_bond_atom_site_label_2
_geom_bond_distance
_ccdc_geom_bond_type
O4    Zn2   1.910837 S    
C11   C18   1.415962 A    
C5    H2    1.080993 S    
C19   C20   1.334849 D    
C11   C15   1.414209 A    
C4    C6    1.451686 S    
H13   N2    1.030776 S    
Zn2   O8    1.956667 S    
Zn1   N2    2.009478 S    
H8    C20   1.088322 S    
O2    C1    1.292821 A    
H1    C17   1.083145 S    
C6    C17   1.398444 A    
O1    Zn1   1.923004 S    
C14   N3    1.437807 S    
C8    C9    1.384901 A    
Zn1   O7    1.910837 S    
C23   C24   1.509990 S    
C14   C15   1.397850 A    
N1    H14   1.030749 S    
O3    Zn1   1.956667 S    
C8    H5    1.083847 S    
C7    C25   1.510646 S    
C9    C10   1.412958 A    
N2    C24   1.299531 D    
C2    C18   1.472579 S    
H12   C23   1.085200 S    
C5    C17   1.396315 A    
C10   C12   1.408171 A    
C10   C11   1.399958 A    
C15   H6    1.081857 S    
O4    C2    1.301864 A    
H7    C22   1.088432 S    
O7    C4    1.294082 A    
C25   H16   1.110511 S    
C5    C13   1.412386 A    
O3    C2    1.287821 A    
Zn2   N1    2.009395 S    
N3    O9    1.301556 A    
C9    H4    1.080197 S    
C12   C16   1.387960 A    
H9    C21   1.087338 S    
C6    C16   1.382137 A    
C12   C13   1.421916 A    
C1    C19   1.443106 S    
C20   C22   1.429572 S    
Zn2   O6    1.923006 S    
O2    Zn2   1.956606 S    
C19   H10   1.087346 S    
Zn1   O5    1.956608 S    
O5    C3    1.292815 A    
C25   H15   1.111341 S    
C21   C22   1.334893 D    
C3    C21   1.442525 S    
N3    O10   1.301318 A    
C13   C14   1.409091 A    
N1    C23   1.299451 D    
C7    C18   1.427319 A    
C25   H17   1.110462 S    
C16   H3    1.080270 S    
H11   C24   1.085266 S    
C7    C8    1.395481 A    
O8    C4    1.289009 A    
O1    C1    1.284315 A    
O6    C3    1.284129 A    
