data_mof_unit_58142.cif
_audit_creation_date              2012-10-26T18:50:45-0400
_audit_creation_method            fapswitch 2.2
_symmetry_space_group_name_H-M    P1
_symmetry_Int_Tables_number       1
_space_group_crystal_system       triclinic
_cell_length_a                    12.334336
_cell_length_b                    13.28786
_cell_length_c                    17.272554
_cell_angle_alpha                 105.295469
_cell_angle_beta                  74.794565
_cell_angle_gamma                 116.935384
_cell_volume                      2400.62459017

loop_
_atom_site_label
_atom_site_type_symbol
_atom_type_description
_atom_site_fract_x
_atom_site_fract_y
_atom_site_fract_z
_atom_type_partial_charge
C1    C     C_R   0.144090 0.712829 0.508042 0.552637
C2    C     C_R   0.013484 0.488067 0.261453 0.002681
C3    C     C_R   0.698587 0.019075 0.573403 -0.129015
C4    C     C_R   0.988749 0.505365 0.652381 0.558553
C5    C     C_R   0.772948 0.166743 0.492860 -0.002019
C6    C     C_R   0.202558 0.860163 0.428949 -0.124188
C7    C     C_R   0.299761 0.932374 0.380480 -0.135525
C8    C     C_R   0.418989 0.976264 0.396446 -0.103418
C9    C     C_R   0.442284 0.963024 0.468434 0.023972
C10   C     C_R   0.342115 0.886641 0.517228 0.018105
C11   C     C_R   0.561989 0.017943 0.491767 0.018398
C12   C     C_R   0.893238 0.534045 0.797701 -0.119522
C13   C     C_R   0.581086 0.978080 0.553847 0.031142
C14   C     C_R   0.481586 0.905627 0.601702 -0.126048
C15   C     C_R   0.362368 0.866973 0.587825 -0.019452
C16   C     C_R   0.855863 0.286829 0.489331 0.552488
C17   C     C_R   0.660837 0.116824 0.462547 -0.019699
C18   C     C_R   0.794498 0.112164 0.542228 -0.140733
C19   C     C_R   0.225106 0.828778 0.492317 0.011163
C20   C     C_R   0.637010 0.666097 0.635128 -0.144499
C21   C     C_R   0.251734 0.355585 0.387293 0.055354
C22   C     C_R   0.352518 0.326956 0.361097 -0.149583
C23   C     C_R   0.915632 0.484951 0.156182 -0.102356
C24   C     C_R   0.452356 0.382429 0.402836 -0.129365
C25   C     C_R   0.451986 0.466602 0.472331 -0.002098
C26   C     C_R   0.346966 0.493751 0.496336 0.182496
C27   C     C_R   0.551411 0.525103 0.518676 -0.007228
C28   C     C_R   0.011345 0.494896 0.347660 0.549210
C29   C     C_R   0.542377 0.607793 0.588266 0.038426
C30   C     C_R   0.439138 0.632263 0.610683 -0.175168
C31   C     C_R   0.345246 0.578515 0.564660 -0.099463
C32   C     C_R   0.659616 0.504944 0.499905 0.046337
C33   C     C_R   0.740528 0.642140 0.613451 0.047371
C34   C     C_R   0.914035 0.489249 0.237418 -0.118025
C35   C     C_R   0.989830 0.518487 0.738985 0.020819
C36   C     C_R   0.091005 0.521431 0.763572 -0.116086
C37   C     C_R   0.095779 0.539662 0.845614 -0.123956
C38   C     C_R   0.998935 0.553876 0.904570 0.014411
C39   C     C_R   0.896843 0.551260 0.880399 0.002654
C40   C     C_1   0.220673 0.469381 0.061720 0.192287
C41   C     C_1   0.648677 0.177638 0.409144 0.187378
C42   C     C_1   0.262759 0.816141 0.651071 0.167916
C43   C     C_1   0.792946 0.561450 0.938873 0.200997
C44   C     C_1   0.995167 0.663123 0.047532 0.231508
C45   C     C_R   0.113327 0.479373 0.202695 -0.128629
C46   C     C_R   0.115481 0.475376 0.120727 0.005084
C47   C     C_R   0.017274 0.481056 0.097791 0.023314
C48   C     C_2   0.003146 0.563792 0.990467 -0.025324
C49   C     C_2   0.018613 0.482181 0.012935 -0.145510
Cu1   Cu    Cu3+1 0.900140 0.524980 0.518800 0.962364
Cu2   Cu    Cu3+1 0.099860 0.475020 0.481200 0.942093
H1    H     H_    0.167368 0.510938 0.719552 0.133655
H2    H     H_    0.674106 0.443459 0.448380 0.140921
H3    H     H_    0.528544 0.358252 0.379281 0.137934
H4    H     H_    0.353576 0.262016 0.308012 0.118238
H5    H     H_    0.272719 0.606358 0.584793 0.189247
H6    H     H_    0.032624 0.413177 0.967309 0.130392
H7    H     H_    0.837732 0.485633 0.138784 0.137192
H8    H     H_    0.814612 0.531978 0.779264 0.134445
H9    H     H_    0.174973 0.541880 0.863330 0.129769
H10   H     H_    0.496358 0.886455 0.654367 0.105960
H11   H     H_    0.491028 0.013368 0.348450 0.143658
H12   H     H_    0.881303 0.149620 0.564526 0.133274
H13   H     H_    0.174973 0.312636 0.354259 0.134282
H14   H     H_    0.190091 0.477250 0.220621 0.137583
H15   H     H_    0.713921 0.985060 0.618152 0.114121
H16   H     H_    0.113091 0.816410 0.409703 0.132950
H17   H     H_    0.284140 0.946485 0.326170 0.130931
H18   H     H_    0.813625 0.686315 0.649622 0.134019
H19   H     H_    0.834693 0.493457 0.281311 0.139386
H20   H     H_    0.430815 0.694129 0.664479 0.112461
H21   H     H_    0.630801 0.729686 0.688272 0.097841
N1    N     N_R   0.749710 0.562810 0.547300 -0.240076
N2    N     N_R   0.249640 0.437820 0.453210 -0.238965
N3    N     N_1   0.304960 0.464613 0.014412 -0.275646
N4    N     N_1   0.641154 0.226934 0.366082 -0.351633
N5    N     N_1   0.183413 0.776331 0.702086 -0.307549
N6    N     N_1   0.709659 0.569550 0.985694 -0.264267
N7    N     N_1   0.988834 0.742412 0.093034 -0.279354
O1    O     O_R   0.025490 0.682370 0.523640 -0.500549
O2    O     O_R   0.194150 0.640180 0.491890 -0.511042
O3    O     O_R   0.905900 0.523560 0.631310 -0.503161
O4    O     O_R   0.074570 0.481370 0.599560 -0.529577
O5    O     O_R   0.805850 0.359820 0.508110 -0.486797
O6    O     O_R   0.974510 0.317630 0.476360 -0.509684
O7    O     O_R   0.925430 0.518630 0.400440 -0.510982
O8    O     O_R   0.094100 0.476440 0.368690 -0.511227

loop_
_geom_bond_atom_site_label_1
_geom_bond_atom_site_label_2
_ccdc_geom_bond_type
C23   H7    S    
C27   C29   A    
C35   C36   A    
Cu2   N2    S    
Cu2   O6    S    
C30   H20   S    
Cu1   O5    S    
C7    C8    A    
C47   C49   S    
C45   C46   A    
C43   N6    T    
C40   C46   S    
C6    C19   A    
C29   C30   A    
C36   C37   A    
C10   C15   A    
C30   C31   A    
C18   H12   S    
C5    C17   A    
C24   H3    S    
C16   O5    A    
C49   H6    S    
C3    C18   A    
C21   H13   S    
C7    H17   S    
C12   H8    S    
C11   C17   A    
C8    C9    A    
C5    C16   S    
C31   H5    S    
C9    C10   A    
Cu2   O2    S    
C38   C48   S    
C36   H1    S    
C33   H18   S    
C2    C34   A    
C4    C35   S    
C26   C31   A    
C13   C14   A    
C20   C29   A    
C2    C45   A    
C1    C19   S    
C23   C47   A    
C24   C25   A    
Cu1   N1    S    
Cu2   O8    S    
C32   N1    A    
C39   C43   S    
C5    C18   A    
C25   C26   A    
C14   H10   S    
C21   N2    A    
Cu1   O1    S    
C37   C38   A    
C10   C19   A    
C23   C34   A    
C28   O8    A    
Cu1   Cu2   S    
C12   C35   A    
C9    C11   A    
C22   H4    S    
C20   C33   A    
C33   N1    A    
C6    H16   S    
C28   O7    A    
C16   O6    A    
C22   C24   A    
C3    H15   S    
Cu2   O4    S    
C32   H2    S    
Cu1   O3    S    
C34   H19   S    
C46   C47   A    
C48   C49   D    
C27   C32   A    
C44   N7    T    
C15   C42   S    
C3    C13   A    
C6    C7    A    
C25   C27   A    
C40   N3    T    
C12   C39   A    
C41   N4    T    
C45   H14   S    
C11   C13   A    
C38   C39   A    
C4    O4    A    
C26   N2    A    
C17   C41   S    
C37   H9    S    
Cu1   O7    S    
C4    O3    A    
C42   N5    T    
C1    O1    A    
C14   C15   A    
C20   H21   S    
C2    C28   S    
C21   C22   A    
C1    O2    A    
C44   C48   S    
C8    H11   S    
