data_mof_unit_64867.cif
_audit_creation_date              2012-12-10T19:25:14-0500
_audit_creation_method            fapswitch 2.2
_symmetry_space_group_name_H-M    P1
_symmetry_Int_Tables_number       1
_space_group_crystal_system       triclinic
_cell_length_a                    18.769142
_cell_length_b                    18.545545
_cell_length_c                    18.890799
_cell_angle_alpha                 109.382797
_cell_angle_beta                  109.569122
_cell_angle_gamma                 109.126727
_cell_volume                      5082.65065397

loop_
_atom_site_label
_atom_site_type_symbol
_atom_type_description
_atom_site_fract_x
_atom_site_fract_y
_atom_site_fract_z
_atom_type_partial_charge
C1    C     C_R   0.880604 0.379550 0.000180 0.878027
C2    C     C_R   0.814305 0.311783 0.997416 -0.072608
C3    C     C_R   0.829547 0.248498 0.014053 -0.218577
C4    C     C_R   0.764994 0.183725 0.013442 -0.214572
C5    C     C_R   0.685004 0.181557 0.993853 -0.100628
C6    C     C_R   0.667065 0.236906 0.964794 0.152941
C7    C     C_3   0.631406 0.295011 0.993529 -0.485267
C8    C     C_3   0.702576 0.366708 0.996072 -0.480688
C9    C     C_R   0.181055 0.501487 0.254968 0.019333
C10   C     C_R   0.185550 0.500048 0.183065 -0.059552
C11   C     C_R   0.256750 0.498129 0.174663 -0.212013
C12   C     C_R   0.882293 0.502536 0.880802 0.930262
C13   C     C_R   0.321705 0.499076 0.239610 -0.209886
C14   C     C_R   0.313484 0.499214 0.311018 -0.097689
C15   C     C_R   0.241594 0.499311 0.315508 0.054273
C16   C     C_3   0.198333 0.501270 0.368778 0.476061
C17   C     C_3   0.128204 0.503008 0.298697 -0.523107
C18   C     C_R   0.254608 0.758641 0.074684 0.126136
C19   C     C_R   0.183848 0.685799 0.998668 -0.095900
C20   C     C_R   0.177895 0.676566 0.919523 -0.211299
C21   C     C_R   0.242684 0.741200 0.919491 -0.213690
C22   C     C_R   0.314470 0.813242 0.998650 -0.093880
C23   C     C_R   0.119821 0.620210 0.000102 0.877891
C24   C     C_R   0.318215 0.818805 0.074705 0.129656
C25   C     C_3   0.370023 0.872971 0.170782 -0.493180
C26   C     C_3   0.297440 0.803167 0.170801 -0.473664
C27   C     C_R   0.497761 0.379390 0.378012 0.863762
C28   C     C_R   0.616101 0.497514 0.614581 0.922678
C29   C     C_R   0.496125 0.620148 0.615951 0.906696
C30   C     C_R   0.377854 0.499912 0.377420 0.901783
C31   C     C_R   0.500683 0.879740 0.880867 0.884333
C32   C     C_R   0.620085 0.119949 0.999353 0.876260
C33   C     C_R   0.498810 0.120035 0.119055 0.875958
C34   C     C_R   0.119378 0.499888 0.118878 0.882101
C35   C     C_R   0.380142 0.879908 0.000023 0.879196
C36   C     C_R   0.486674 0.315293 0.236561 -0.040258
C37   C     C_R   0.494876 0.311630 0.311121 -0.019668
C38   C     C_R   0.490958 0.236849 0.316442 -0.198497
C39   C     C_R   0.491735 0.172682 0.252696 -0.212211
C40   C     C_R   0.493471 0.182532 0.182797 -0.035653
C41   C     C_R   0.484597 0.250521 0.172301 0.034401
C42   C     C_3   0.537736 0.314228 0.154263 -0.552794
C43   C     C_3   0.540222 0.385883 0.225324 0.525885
C44   C     C_R   0.572847 0.758925 0.750804 0.124267
C45   C     C_2   0.756688 0.506287 0.680062 -0.146384
C46   C     C_R   0.495920 0.685598 0.681517 -0.110415
C47   C     C_R   0.417296 0.675038 0.679380 -0.158606
C48   C     C_R   0.418552 0.739192 0.745780 -0.211161
C49   C     C_R   0.498593 0.812110 0.815496 -0.099419
C50   C     C_R   0.574242 0.818576 0.816084 0.130640
C51   C     C_3   0.670493 0.874957 0.863704 -0.496787
C52   C     C_3   0.669076 0.805706 0.789386 -0.472393
C53   C     C_2   0.679651 0.489134 0.675081 -0.338841
C54   C     C_2   0.818151 0.494903 0.741475 -0.152892
C55   C     C_2   0.821943 0.511226 0.817506 -0.337110
C56   C     C_R   0.731376 0.301841 0.967118 0.101540
H1    H     H_    0.773135 0.524894 0.636504 0.175636
H2    H     H_    0.751264 0.423088 0.062461 0.224249
H3    H     H_    0.262656 0.497295 0.119312 0.156077
H4    H     H_    0.377000 0.498522 0.233662 0.151720
H5    H     H_    0.175447 0.440962 0.374129 0.069563
H6    H     H_    0.064020 0.441958 0.260650 0.156611
H7    H     H_    0.126322 0.565516 0.321283 0.245156
H8    H     H_    0.123321 0.620544 0.858510 0.159691
H9    H     H_    0.237441 0.734461 0.858479 0.158671
H10   H     H_    0.433239 0.874255 0.197479 0.214390
H11   H     H_    0.659256 0.460922 0.711591 0.157863
H12   H     H_    0.373536 0.938176 0.194712 0.197083
H13   H     H_    0.318547 0.763628 0.196844 0.204561
H14   H     H_    0.259498 0.828235 0.195446 0.214134
H15   H     H_    0.492072 0.230573 0.371770 0.153738
H16   H     H_    0.493220 0.117103 0.258923 0.148802
H17   H     H_    0.602191 0.318582 0.170236 0.220590
H18   H     H_    0.500072 0.304077 0.088847 0.163663
H19   H     H_    0.505998 0.419315 0.202537 0.050154
H20   H     H_    0.355597 0.618494 0.626363 0.199628
H21   H     H_    0.862643 0.476849 0.725792 0.166786
H22   H     H_    0.357814 0.731798 0.743023 0.161773
H23   H     H_    0.690768 0.939586 0.866147 0.202421
H24   H     H_    0.701708 0.877700 0.926700 0.211004
H25   H     H_    0.689412 0.830664 0.749515 0.215222
H26   H     H_    0.698737 0.767806 0.809217 0.200416
H27   H     H_    0.784566 0.538969 0.837292 0.156130
H28   H     H_    0.892305 0.252045 0.031738 0.148239
H29   H     H_    0.778359 0.137571 0.030737 0.163288
H30   H     H_    0.565037 0.271875 0.942525 0.207890
H31   H     H_    0.638985 0.309768 0.058417 0.200162
H32   H     H_    0.677346 0.384823 0.946336 0.200165
O1    O     O_R   0.908050 0.460100 0.051390 -0.622881
O2    O     O_R   0.445680 0.356610 0.405790 -0.638974
O3    O     O_R   0.639540 0.551640 0.587850 -0.613611
O4    O     O_R   0.536110 0.448210 0.587860 -0.626906
O5    O     O_R   0.547900 0.643240 0.587840 -0.619857
O6    O     O_R   0.444470 0.539800 0.587850 -0.623752
O7    O     O_R   0.457480 0.551640 0.405780 -0.618655
O8    O     O_R   0.354050 0.448210 0.405780 -0.632776
O9    O     O_R   0.449170 0.908380 0.857510 -0.618288
O10   O     O_R   0.551950 0.908320 0.960240 -0.623908
O11   O     O_R   0.540220 0.091590 0.948580 -0.619080
O12   O     O_R   0.908730 0.356680 0.948620 -0.618955
O13   O     O_R   0.643000 0.091540 0.051310 -0.623392
O14   O     O_R   0.448050 0.091580 0.039660 -0.618646
O15   O     O_R   0.550830 0.091520 0.142390 -0.621302
O16   O     O_R   0.357000 0.908370 0.948590 -0.623310
O17   O     O_R   0.459780 0.908310 0.051320 -0.623073
O18   O     O_R   0.908630 0.551710 0.960350 -0.623611
O19   O     O_R   0.909310 0.448290 0.857570 -0.615824
O20   O     O_R   0.091270 0.643320 0.051380 -0.620575
O21   O     O_R   0.091950 0.539900 0.948610 -0.628243
O22   O     O_R   0.090690 0.551710 0.142430 -0.615155
O23   O     O_R   0.091370 0.448290 0.039650 -0.629815
O24   O     O_R   0.549120 0.460050 0.405790 -0.569187
Zn1   Zn    Zn3+2 0.999540 0.569060 0.068630 0.960978
Zn2   Zn    Zn3+2 0.000460 0.430940 0.931370 0.956401
Zn3   Zn    Zn3+2 0.565860 0.568990 0.496810 1.007289
Zn4   Zn    Zn3+2 0.427730 0.430860 0.496820 0.957833
Zn5   Zn    Zn3+2 0.431370 0.999990 0.931350 0.965348
Zn6   Zn    Zn3+2 0.568630 0.999910 0.068550 0.955704
F1    F     F_    0.247114 0.579190 0.446870 -0.655338
F2    F     F_    0.623174 0.442468 0.296234 -0.628709

loop_
_geom_bond_atom_site_label_1
_geom_bond_atom_site_label_2
_ccdc_geom_bond_type
C12   O18   A    
C41   C42   S    
C54   C55   D    
C19   C20   A    
C18   C26   S    
C8    C56   S    
C7    C8    S    
C13   H4    S    
C22   C35   S    
C45   H1    S    
C37   C38   A    
C18   C24   A    
O13   Zn6   S    
C36   C37   A    
C31   C49   S    
C47   H20   S    
C18   C19   A    
C38   C39   A    
C7    H30   S    
C15   C16   S    
C27   O2    A    
C1    C2    S    
O5    Zn3   S    
C31   O10   A    
C48   H22   S    
C51   H24   S    
C30   O8    A    
C8    H2    S    
C38   H15   S    
C7    H31   S    
O7    Zn3   S    
C16   C17   S    
C39   H16   S    
O2    Zn4   S    
C28   O3    A    
C9    C10   A    
C43   F2    S    
C5    C32   S    
C44   C52   S    
C45   C53   D    
C21   C22   A    
C34   O23   A    
C36   C41   A    
C25   H12   S    
C14   C30   S    
C11   H3    S    
C1    O12   A    
C44   C46   A    
O10   Zn6   S    
C43   H19   S    
C23   O21   A    
O1    Zn1   S    
C42   H18   S    
C33   C40   S    
O18   Zn1   S    
C51   C52   S    
O12   Zn2   S    
C24   C25   S    
C10   C34   S    
C35   O16   A    
C16   F1    S    
C39   C40   A    
O6    Zn4   S    
C4    H29   S    
C25   C26   S    
C33   O14   A    
C8    H32   S    
O20   Zn1   S    
C20   H8    S    
C19   C23   S    
O19   Zn2   S    
C30   O7    A    
C35   O17   A    
C17   H6    S    
O11   Zn5   S    
C47   C48   A    
C14   C15   A    
C50   C51   S    
C28   O4    A    
C52   H26   S    
O4    Zn4   S    
O22   Zn1   S    
O14   Zn5   S    
O21   Zn2   S    
C9    C17   S    
C48   C49   A    
C45   C54   S    
C34   O22   A    
C22   C24   A    
O17   Zn6   S    
O15   Zn6   S    
C42   C43   S    
C55   H27   S    
C3    C4    A    
O16   Zn5   S    
C44   C50   A    
C46   C47   A    
C40   C41   A    
C42   H17   S    
C1    O1    A    
C21   H9    S    
C33   O15   A    
C25   H10   S    
C6    C56   A    
C4    C5    A    
C27   O24   A    
C12   O19   A    
C28   C53   S    
C6    C7    S    
C32   O11   A    
C29   C46   S    
C54   H21   S    
C2    C3    A    
C9    C15   A    
C2    C56   A    
C17   H7    S    
C29   O5    A    
C11   C13   A    
C29   O6    A    
C27   C37   S    
C26   H14   S    
C23   O20   A    
O3    Zn3   S    
O23   Zn2   S    
C31   O9    A    
O9    Zn5   S    
C52   H25   S    
C53   H11   S    
C51   H23   S    
C12   C55   S    
C10   C11   A    
C20   C21   A    
C49   C50   A    
C16   H5    S    
C3    H28   S    
C5    C6    A    
C26   H13   S    
C32   O13   A    
O8    Zn4   S    
C36   C43   S    
C13   C14   A    
O24   Zn3   S    
