data_mof_unit_31713.cif
_audit_creation_date              2013-03-05T16:49:18-0500
_audit_creation_method            fapswitch 2.2
_symmetry_space_group_name_H-M    P1
_symmetry_Int_Tables_number       1
_space_group_crystal_system       triclinic
_cell_length_a                    8.11428
_cell_length_b                    8.926442
_cell_length_c                    16.365808
_cell_angle_alpha                 89.574256
_cell_angle_beta                  95.263203
_cell_angle_gamma                 90.034746
_cell_volume                      1180.3720077

loop_
_atom_site_label
_atom_site_type_symbol
_atom_site_description
_atom_site_fract_x
_atom_site_fract_y
_atom_site_fract_z
_atom_type_partial_charge
O1    O     O_R   0.636850 0.285340 0.500000 -0.609198
O2    O     O_R   0.363150 0.714660 0.500000 -0.616126
O3    O     O_R   0.363100 0.285350 0.500000 -0.604165
O4    O     O_R   0.636900 0.714650 0.500000 -0.611503
C1    C     C_R   0.499952 0.218020 0.500050 0.948207
C2    C     C_R   0.500054 0.781977 0.500014 0.935537
O5    O     O_R   0.652140 0.498630 0.616140 -0.613398
O6    O     O_R   0.347860 0.501370 0.383860 -0.636948
O7    O     O_R   0.378390 0.498650 0.616130 -0.613900
O8    O     O_R   0.621610 0.501350 0.383870 -0.605788
C3    C     C_R   0.523150 0.505247 0.655390 0.898487
C4    C     C_R   0.476244 0.503990 0.344291 0.885305
Zn1   Zn    Zn3+2 0.682780 0.499990 0.500010 0.983066
Zn2   Zn    Zn3+2 0.317220 0.500010 0.499990 0.976837
N1    N     N_1   0.073640 0.500030 0.499990 -0.036381
N2    N     N_1   0.926360 0.499970 0.500010 -0.035244
C5    C     C_R   0.540252 0.560808 0.740329 -0.160135
C6    C     C_R   0.457291 0.510505 0.253555 -0.204642
C7    C     C_R   0.413675 0.656086 0.762047 -0.334149
C8    C     C_R   0.582922 0.443465 0.213763 -0.322722
C9    C     C_R   0.422274 0.724441 0.838471 0.269614
C10   C     C_R   0.584110 0.450746 0.129074 0.286192
C11   C     C_R   0.555938 0.689725 0.895459 0.189308
C12   C     C_R   0.469084 0.544552 0.084221 0.130515
C13   C     C_R   0.698203 0.621319 0.870026 0.149838
C14   C     C_R   0.337900 0.613281 0.122358 0.135570
C15   C     C_R   0.689074 0.546944 0.793442 0.112367
C16   C     C_R   0.320929 0.582843 0.207170 0.108666
N3    N     N_2   0.534548 0.688497 0.979979 -0.153973
N4    N     N_2   0.483357 0.562492 0.999411 -0.137118
C17   C     C_1   0.499944 0.065199 0.500064 -0.184106
C18   C     C_1   0.500055 0.934779 0.500053 -0.182620
H1    H     H_    0.678886 0.380456 0.249360 0.215218
H2    H     H_    0.309323 0.681199 0.718002 0.218240
N5    N     N_R   0.706550 0.366600 0.089746 0.201628
O9    O     O_R   0.680387 0.327877 0.013142 -0.375027
O10   O     O_R   0.835939 0.312193 0.132813 -0.421102
N6    N     N_R   0.302768 0.836205 0.855829 0.192495
O11   O     O_R   0.338977 0.932772 0.913910 -0.390683
O12   O     O_R   0.175363 0.862878 0.803525 -0.433563
C19   C     C_3   0.858258 0.647612 0.923359 -0.422346
C20   C     C_3   0.895318 0.816212 0.923932 -0.744453
H3    H     H_    0.878550 0.863229 0.860656 0.292676
H4    H     H_    0.811510 0.876108 0.962614 0.267172
H5    H     H_    0.023549 0.839106 0.948432 0.276561
H6    H     H_    0.846255 0.607625 0.986963 0.235319
H7    H     H_    0.965407 0.587651 0.902483 0.223107
C21   C     C_3   0.230041 0.726552 0.073091 -0.380016
C22   C     C_3   0.267410 0.886146 0.102780 -0.722584
H8    H     H_    0.255137 0.896848 0.169419 0.243765
H9    H     H_    0.395805 0.917298 0.091190 0.282419
H10   H     H_    0.180463 0.965849 0.069042 0.271054
H11   H     H_    0.248540 0.723000 0.007453 0.240817
H12   H     H_    0.098323 0.699032 0.070641 0.207042
C23   C     C_3   0.829107 0.444748 0.772507 -0.368998
C24   C     C_3   0.964587 0.529266 0.731757 -0.754573
H13   H     H_    0.911999 0.601992 0.680669 0.276188
H14   H     H_    0.037737 0.600936 0.776363 0.267606
H15   H     H_    0.050374 0.447578 0.707185 0.248699
H16   H     H_    0.884262 0.385930 0.828496 0.221767
H17   H     H_    0.780639 0.352658 0.731904 0.214291
C25   C     C_3   0.168048 0.623671 0.252447 -0.334458
C26   C     C_3   0.001055 0.665563 0.207190 -0.862554
H18   H     H_    0.000346 0.781666 0.182875 0.270780
H19   H     H_    0.962858 0.582125 0.159301 0.287814
H20   H     H_    0.905140 0.663153 0.251530 0.253985
H21   H     H_    0.134176 0.520394 0.285071 0.246823
H22   H     H_    0.203088 0.712301 0.298143 0.207499

loop_
_geom_bond_atom_site_label_1
_geom_bond_atom_site_label_2
_geom_bond_distance
_ccdc_geom_bond_type
C19   H6    1.110615 S    
N6    O12   1.301179 A    
O7    Zn2   1.919855 S    
C26   H19   1.108545 S    
N3    N4    1.247865 D    
C25   H22   1.111562 S    
C13   C15   1.418621 A    
C19   C20   1.534497 S    
C14   C16   1.431354 A    
C17   C18   1.164189 T    
C24   H15   1.110989 S    
C14   C21   1.515897 S    
O6    C4    1.276180 A    
C22   H10   1.110010 S    
C23   C24   1.532468 S    
C11   C13   1.404088 A    
C7    H2    1.082897 S    
C19   H7    1.103141 S    
C26   H20   1.111816 S    
C6    C16   1.434234 A    
O2    C2    1.262650 A    
C23   H16   1.110632 S    
C21   H12   1.093729 S    
C10   N5    1.446001 S    
O7    C3    1.287658 A    
C12   C14   1.423874 A    
C25   C26   1.528692 S    
O3    Zn2   1.952198 S    
C20   H4    1.110649 S    
C25   H21   1.108966 S    
O1    C1    1.262697 A    
C8    H1    1.083746 S    
O8    C4    1.292702 A    
C21   C22   1.529795 S    
N5    O10   1.301807 A    
C8    C10   1.387968 A    
O5    C3    1.278909 A    
C15   C23   1.522492 S    
C9    C11   1.397401 A    
C21   H11   1.098895 S    
O2    Zn2   1.951747 S    
C10   C12   1.406151 A    
C1    C17   1.364152 S    
C12   N4    1.411281 S    
O1    Zn1   1.951745 S    
C20   H3    1.111218 S    
C23   H17   1.109847 S    
C4    C6    1.479523 S    
C26   H18   1.107220 S    
C5    C15   1.426586 A    
C11   N3    1.409763 S    
O5    Zn1   1.939186 S    
N6    O11   1.301365 A    
C24   H13   1.108793 S    
C6    C8    1.396322 A    
O4    C2    1.262949 A    
C2    C18   1.363981 S    
Zn1   N2    1.976476 S    
C13   C19   1.516019 S    
O4    Zn1   1.952197 S    
C22   H8    1.109026 S    
Zn2   N1    1.976476 S    
C3    C5    1.473896 S    
O6    Zn2   1.939186 S    
N5    O9    1.301465 A    
C5    C7    1.406088 A    
C7    C9    1.391691 A    
C20   H5    1.099817 S    
N1    N2    1.195101 T    
C9    N6    1.439544 S    
C22   H9    1.110782 S    
C24   H14   1.105213 S    
O3    C1    1.262918 A    
O8    Zn1   1.919855 S    
C16   C25   1.547241 S    
