data_mof_unit_54549.cif
_audit_creation_date              2012-12-10T17:57:49-0500
_audit_creation_method            fapswitch 2.2
_symmetry_space_group_name_H-M    P1
_symmetry_Int_Tables_number       1
_space_group_crystal_system       triclinic
_cell_length_a                    10.827388
_cell_length_b                    9.531501
_cell_length_c                    15.057982
_cell_angle_alpha                 90.000652
_cell_angle_beta                  90.548142
_cell_angle_gamma                 89.963768
_cell_volume                      1553.93128325

loop_
_atom_site_label
_atom_site_type_symbol
_atom_type_description
_atom_site_fract_x
_atom_site_fract_y
_atom_site_fract_z
_atom_type_partial_charge
C1    C     C_R   0.262193 0.500081 0.500036 0.956244
C2    C     C_R   0.737815 0.500059 0.500620 0.957462
C3    C     C_R   0.307480 0.626425 0.049128 0.690925
C4    C     C_R   0.696046 0.376404 0.950529 0.694591
C5    C     C_R   0.064616 0.385937 0.536801 0.495637
C6    C     C_R   0.935508 0.615770 0.466458 0.489992
C7    C     C_R   0.936795 0.386003 0.537090 0.551516
C8    C     C_R   0.063228 0.615476 0.465903 0.520941
C9    C     C_R   0.871639 0.500614 0.501541 -0.512412
C10   C     C_R   0.128394 0.500424 0.500841 -0.518315
C11   C     C_R   0.425360 0.074408 0.442895 0.535506
C12   C     C_R   0.574387 0.925576 0.557272 0.522015
C13   C     C_R   0.574241 0.074216 0.557363 0.563991
C14   C     C_R   0.425522 0.925764 0.442798 0.560954
C15   C     C_R   0.504400 0.499925 0.329161 0.854321
C16   C     C_R   0.497848 0.500078 0.670846 0.864271
C17   C     C_R   0.592067 0.437717 0.812374 0.626697
C18   C     C_R   0.410227 0.561978 0.187458 0.623916
C19   C     C_R   0.493504 0.500237 0.767131 -0.214995
C20   C     C_R   0.509092 0.499726 0.232796 -0.207546
C21   C     C_R   0.394385 0.563102 0.812936 0.007902
C22   C     C_R   0.609491 0.439559 0.186770 0.011612
C23   C     C_R   0.398294 0.564536 0.907122 0.043015
C24   C     C_R   0.605545 0.439006 0.092528 0.044074
C25   C     C_R   0.499516 0.501414 0.952870 -0.073771
C26   C     C_R   0.503951 0.501362 0.046857 -0.074007
C27   C     C_R   0.596286 0.437886 0.904943 -0.148162
C28   C     C_R   0.406776 0.563845 0.094811 -0.145972
C29   C     C_R   0.303729 0.626927 0.957032 -0.269283
C30   C     C_R   0.700457 0.377326 0.042499 -0.276660
Cu1   Cu    Cu3+1 0.500000 0.640660 0.500000 1.125160
Cu2   Cu    Cu3+1 0.500000 0.359340 0.500000 1.132351
H1    H     H_    0.225253 0.677797 0.926214 0.182429
H2    H     H_    0.780186 0.328652 0.073091 0.186946
N1    N     N_R   0.500000 0.852070 0.500000 -0.362612
N2    N     N_R   0.500000 0.147930 0.500000 -0.362443
O1    O     O_R   0.319640 0.618740 0.499990 -0.526520
O2    O     O_R   0.680360 0.381260 0.500010 -0.523252
O3    O     O_R   0.680360 0.618740 0.500010 -0.499313
O4    O     O_R   0.319640 0.381260 0.499990 -0.500720
O5    O     O_R   0.499970 0.618800 0.370260 -0.510725
O6    O     O_R   0.500030 0.381200 0.629740 -0.515766
O7    O     O_R   0.500030 0.618800 0.629740 -0.571253
O8    O     O_R   0.499970 0.381200 0.370260 -0.567528
F1    F     F_    0.685356 0.379389 0.764890 -0.532030
F2    F     F_    0.315978 0.618356 0.234905 -0.543472
C31   C     C_3   0.284160 0.622274 0.760951 -0.367419
C32   C     C_3   0.294182 0.782069 0.749957 -0.381221
C33   C     C_3   0.189000 0.839207 0.692226 -0.672912
H3    H     H_    0.192175 0.792284 0.624766 0.266280
H4    H     H_    0.098457 0.815130 0.722748 0.272076
H5    H     H_    0.198215 0.954797 0.685912 0.276786
H6    H     H_    0.291637 0.834427 0.815771 0.238605
H7    H     H_    0.383323 0.809471 0.718464 0.258134
H8    H     H_    0.276331 0.573107 0.694345 0.179478
H9    H     H_    0.196028 0.593314 0.793194 0.215477
C34   C     C_3   0.721520 0.381296 0.237417 -0.410427
C35   C     C_3   0.831096 0.483440 0.234050 -0.368804
C36   C     C_3   0.949949 0.413817 0.267062 -0.681678
H10   H     H_    0.937388 0.370172 0.334694 0.229184
H11   H     H_    0.976762 0.327690 0.221439 0.270840
H12   H     H_    0.025646 0.492345 0.269289 0.292504
H13   H     H_    0.846088 0.521953 0.165397 0.255005
H14   H     H_    0.810701 0.575895 0.276453 0.259610
H15   H     H_    0.702385 0.360971 0.308213 0.203923
H16   H     H_    0.746512 0.276427 0.211007 0.224422
F3    F     F_    0.212857 0.688182 0.093034 -0.570016
F4    F     F_    0.790766 0.314781 0.906654 -0.562322
F5    F     F_    0.125633 0.275318 0.573526 -0.573347
F6    F     F_    0.874713 0.726771 0.430024 -0.570396
F7    F     F_    0.877248 0.275327 0.573891 -0.491852
F8    F     F_    0.122618 0.726033 0.428823 -0.502178
F9    F     F_    0.349968 0.144112 0.385648 -0.551700
F10   F     F_    0.649521 0.855862 0.614686 -0.555206
F11   F     F_    0.648509 0.143676 0.615357 -0.484497
F12   F     F_    0.351068 0.856280 0.384936 -0.484060

loop_
_geom_bond_atom_site_label_1
_geom_bond_atom_site_label_2
_ccdc_geom_bond_type
C12   F10   S    
C34   H16   S    
C6    C9    A    
C32   H7    S    
Cu1   O7    S    
Cu2   N2    S    
C22   C24   A    
C3    C28   A    
C19   C21   A    
C24   C26   A    
C15   O8    A    
C7    F7    S    
C11   C14   A    
C29   H1    S    
C7    C9    A    
C3    C29   A    
C5    F5    S    
C1    O4    A    
C2    O3    A    
Cu1   Cu2   S    
C33   H4    S    
Cu2   O2    S    
C1    O1    A    
C23   C25   A    
C36   H10   S    
C32   H6    S    
C22   C34   S    
C18   F2    S    
C35   H14   S    
C15   C20   S    
C8    F8    S    
C36   H11   S    
C30   H2    S    
C17   C27   A    
C13   F11   S    
C18   C28   A    
C15   O5    A    
C13   N2    A    
C11   F9    S    
C34   H15   S    
C14   N1    A    
C5    C7    A    
C6    C8    A    
C35   C36   S    
C4    F4    S    
Cu1   O1    S    
C14   F12   S    
C2    O2    A    
C31   C32   S    
C33   H5    S    
Cu2   O8    S    
C12   N1    A    
C16   O7    A    
C32   C33   S    
C20   C22   A    
C21   C23   A    
Cu1   N1    S    
C23   C29   A    
C4    C27   A    
C31   H8    S    
C35   H13   S    
C6    F6    S    
C11   N2    A    
C36   H12   S    
Cu1   O5    S    
C16   O6    A    
C3    F3    S    
C1    C10   S    
C17   F1    S    
C25   C27   A    
C26   C28   A    
C25   C26   A    
C5    C10   A    
C34   C35   S    
C16   C19   S    
C17   C19   A    
Cu1   O3    S    
C18   C20   A    
Cu2   O4    S    
C24   C30   A    
C12   C13   A    
C8    C10   A    
C33   H3    S    
Cu2   O6    S    
C2    C9    S    
C4    C30   A    
C31   H9    S    
C21   C31   S    
