data_mof_unit_11930.cif
_audit_creation_date              2012-12-10T17:00:03-0500
_audit_creation_method            fapswitch 2.2
_symmetry_space_group_name_H-M    P1
_symmetry_Int_Tables_number       1
_space_group_crystal_system       triclinic
_cell_length_a                    15.045262
_cell_length_b                    15.210757
_cell_length_c                    10.038431
_cell_angle_alpha                 89.042415
_cell_angle_beta                  87.16723
_cell_angle_gamma                 90.171582
_cell_volume                      2294.14872212

loop_
_atom_site_label
_atom_site_type_symbol
_atom_type_description
_atom_site_fract_x
_atom_site_fract_y
_atom_site_fract_z
_atom_type_partial_charge
C1    C     C_R   0.385182 0.876942 0.503167 0.870198
C2    C     C_2   0.747073 0.188196 0.399454 -0.187474
C3    C     C_2   0.236054 0.301621 0.389656 -0.180889
C4    C     C_2   0.247074 0.688195 0.399455 -0.187474
C5    C     C_2   0.678772 0.809711 0.494128 -0.295446
C6    C     C_2   0.677760 0.191172 0.487046 -0.286882
C7    C     C_2   0.178772 0.309711 0.494128 -0.295445
C8    C     C_2   0.177760 0.691172 0.487045 -0.286881
C9    C     C_2   0.298715 0.230125 0.389624 -0.228221
C10   C     C_2   0.313018 0.757533 0.398777 -0.219150
C11   C     C_2   0.798715 0.730124 0.389624 -0.228221
C12   C     C_R   0.385014 0.122566 0.500926 0.869584
C13   C     C_2   0.813017 0.257534 0.398776 -0.219149
C14   C     C_2   0.337344 0.204322 0.501738 -0.158728
C15   C     C_2   0.335804 0.795484 0.512491 -0.171354
C16   C     C_2   0.837344 0.704322 0.501738 -0.158728
C17   C     C_2   0.835804 0.295483 0.512490 -0.171353
C18   C     C_2   0.571731 0.993076 0.920944 0.045048
C19   C     C_2   0.071731 0.493075 0.920944 0.045048
C20   C     C_2   0.568716 0.978178 0.070225 -0.105259
C21   C     C_2   0.068715 0.478178 0.070225 -0.105259
C22   C     C_R   0.346058 0.262484 0.618470 0.168186
C23   C     C_R   0.885182 0.376942 0.503167 0.870198
C24   C     C_R   0.307803 0.238306 0.744314 -0.160846
C25   C     C_R   0.319509 0.291395 0.854460 -0.143205
C26   C     C_R   0.370128 0.368443 0.839934 -0.120787
C27   C     C_R   0.408555 0.392808 0.715017 -0.158083
C28   C     C_R   0.396251 0.340331 0.604433 -0.133293
C29   C     C_R   0.319408 0.753397 0.647598 0.160945
C30   C     C_R   0.350345 0.668034 0.673890 -0.120707
C31   C     C_R   0.332005 0.627933 0.798663 -0.151838
C32   C     C_R   0.282545 0.672216 0.897773 -0.113992
C33   C     C_R   0.251797 0.757105 0.872780 -0.109046
C34   C     C_R   0.885014 0.622566 0.500926 0.869584
C35   C     C_R   0.270650 0.797973 0.748751 -0.117950
C36   C     C_R   0.846059 0.762485 0.618469 0.168185
C37   C     C_R   0.807805 0.738309 0.744314 -0.160844
C38   C     C_R   0.819513 0.791398 0.854459 -0.143203
C39   C     C_R   0.870134 0.868444 0.839931 -0.120788
C40   C     C_R   0.908560 0.892809 0.715013 -0.158084
C41   C     C_R   0.896254 0.840331 0.604430 -0.133293
C42   C     C_R   0.819410 0.253396 0.647597 0.160942
C43   C     C_R   0.850347 0.168032 0.673887 -0.120708
C44   C     C_R   0.832009 0.127930 0.798659 -0.151838
C45   C     C_R   0.616930 0.120302 0.496779 0.919867
C46   C     C_R   0.782550 0.172212 0.897772 -0.113994
C47   C     C_R   0.751801 0.257102 0.872781 -0.109045
C48   C     C_R   0.770653 0.297970 0.748753 -0.117947
C49   C     C_3   0.354963 0.019469 0.880976 0.217647
C50   C     C_3   0.279342 0.007810 0.986278 -0.966046
C51   C     C_3   0.854963 0.519469 0.880976 0.217647
C52   C     C_3   0.779342 0.507811 0.986278 -0.966048
C53   C     C_R   0.617531 0.880208 0.498507 0.919410
C54   C     C_R   0.116930 0.620302 0.496779 0.919867
C55   C     C_R   0.117531 0.380208 0.498507 0.919409
C56   C     C_2   0.736053 0.801621 0.389655 -0.180888
H1    H     H_    0.734226 0.844382 0.301994 0.161876
H2    H     H_    0.337102 0.782378 0.301464 0.188875
H3    H     H_    0.805729 0.692962 0.298208 0.172292
H4    H     H_    0.837100 0.282379 0.301463 0.188875
H5    H     H_    0.636560 0.997419 0.868867 0.095625
H6    H     H_    0.136560 0.497418 0.868867 0.095625
H7    H     H_    0.627232 0.951148 0.114484 0.125269
H8    H     H_    0.127231 0.451148 0.114484 0.125269
H9    H     H_    0.454629 0.039999 0.107145 0.211606
H10   H     H_    0.954629 0.539999 0.107145 0.211606
H11   H     H_    0.268226 0.178878 0.756402 0.107781
H12   H     H_    0.754573 0.136007 0.327096 0.158943
H13   H     H_    0.289691 0.272590 0.951136 0.124947
H14   H     H_    0.379698 0.409135 0.925516 0.113881
H15   H     H_    0.448365 0.452084 0.703852 0.119496
H16   H     H_    0.426953 0.359494 0.508415 0.124131
H17   H     H_    0.388176 0.632563 0.597676 0.125413
H18   H     H_    0.355750 0.562384 0.818669 0.125387
H19   H     H_    0.267825 0.640634 0.993812 0.115754
H20   H     H_    0.212589 0.790806 0.949228 0.121418
H21   H     H_    0.244989 0.863205 0.730015 0.107941
H22   H     H_    0.768228 0.678881 0.756403 0.107780
H23   H     H_    0.234227 0.344383 0.301995 0.161876
H24   H     H_    0.789696 0.772594 0.951136 0.124946
H25   H     H_    0.879706 0.909137 0.925512 0.113881
H26   H     H_    0.948372 0.952083 0.703846 0.119496
H27   H     H_    0.926956 0.859493 0.508411 0.124131
H28   H     H_    0.888177 0.132561 0.597671 0.125414
H29   H     H_    0.855753 0.062381 0.818664 0.125389
H30   H     H_    0.767831 0.140630 0.993811 0.115753
H31   H     H_    0.712595 0.290801 0.949232 0.121419
H32   H     H_    0.744992 0.363202 0.730019 0.107942
H33   H     H_    0.329593 0.999635 0.784325 0.181005
H34   H     H_    0.254574 0.636005 0.327099 0.158942
H35   H     H_    0.373863 0.090369 0.877524 0.130667
H36   H     H_    0.299480 0.032114 0.083996 0.256576
H37   H     H_    0.220450 0.045716 0.956046 0.213944
H38   H     H_    0.260685 0.937413 0.997310 0.270197
H39   H     H_    0.829593 0.499636 0.784324 0.181005
H40   H     H_    0.873864 0.590369 0.877523 0.130667
H41   H     H_    0.799480 0.532114 0.083996 0.256577
H42   H     H_    0.720451 0.545717 0.956046 0.213944
H43   H     H_    0.760684 0.437414 0.997309 0.270196
H44   H     H_    0.676416 0.763740 0.577964 0.151787
H45   H     H_    0.665932 0.245464 0.554129 0.145234
H46   H     H_    0.176415 0.263739 0.577963 0.151787
H47   H     H_    0.165931 0.745465 0.554127 0.145234
H48   H     H_    0.305731 0.192963 0.298207 0.172292
N1    N     N_2   0.501330 0.000000 0.852150 0.056023
N2    N     N_2   0.001330 0.500000 0.852150 0.056024
N3    N     N_2   0.501360 0.000000 0.147810 -0.168907
N4    N     N_2   0.001360 0.500000 0.147810 -0.168907
O1    O     O_R   0.409520 0.909540 0.613040 -0.609057
O2    O     O_R   0.590440 0.909540 0.613100 -0.610310
O3    O     O_R   0.090440 0.590460 0.613100 -0.619005
O4    O     O_R   0.090440 0.409540 0.613100 -0.610310
O5    O     O_R   0.590480 0.090460 0.386960 -0.618792
O6    O     O_R   0.590480 0.909540 0.386960 -0.619466
O7    O     O_R   0.090480 0.590460 0.386960 -0.618792
O8    O     O_R   0.090480 0.409540 0.386960 -0.619465
O9    O     O_3   0.426936 0.965793 0.913901 -0.532530
O10   O     O_3   0.926936 0.465794 0.913901 -0.532530
O11   O     O_R   0.409520 0.090460 0.613040 -0.654634
O12   O     O_R   0.909520 0.409540 0.613040 -0.609057
O13   O     O_R   0.909520 0.590460 0.613040 -0.654634
O14   O     O_R   0.409560 0.909540 0.386900 -0.601429
O15   O     O_R   0.409560 0.090460 0.386900 -0.623443
O16   O     O_R   0.909560 0.409540 0.386900 -0.601429
O17   O     O_R   0.909560 0.590460 0.386900 -0.623443
O18   O     O_R   0.590440 0.090460 0.613100 -0.619005
Zn1   Zn    Zn3+2 0.499970 0.000000 0.650990 0.972799
Zn2   Zn    Zn3+2 0.999970 0.500000 0.650990 0.972799
Zn3   Zn    Zn3+2 0.500030 0.000000 0.349010 0.937012
Zn4   Zn    Zn3+2 0.000030 0.500000 0.349010 0.937012

loop_
_geom_bond_atom_site_label_1
_geom_bond_atom_site_label_2
_ccdc_geom_bond_type
C53   O2    A    
O18   Zn1   S    
C6    C45   S    
C55   O4    A    
C5    C56   D    
C7    C55   S    
N3    Zn3   S    
C3    H23   S    
C32   H19   S    
C13   H4    S    
C2    C6    D    
C26   C27   A    
C29   C30   A    
O5    Zn3   S    
C5    C53   S    
C36   C37   A    
C10   H2    S    
C3    C7    D    
C10   C15   D    
C9    H48   S    
C30   C31   A    
C55   O8    A    
C19   H6    S    
C41   H27   S    
N2    Zn2   S    
C52   H41   S    
C51   O10   S    
C56   H1    S    
C6    H45   S    
C2    C13   S    
C1    O14   A    
C21   H8    S    
C24   H11   S    
C16   C34   S    
C17   C42   S    
O17   Zn4   S    
O1    Zn1   S    
C49   O9    S    
C47   C48   A    
C7    H46   S    
C48   H32   S    
C1    C15   S    
O14   Zn3   S    
N4    Zn4   S    
C4    C8    D    
C51   H40   S    
C20   N3    D    
C1    O1    A    
C22   C28   A    
N2    O10   S    
C43   H28   S    
N1    O9    S    
C36   C41   A    
C28   H16   S    
C49   H35   S    
C11   H3    S    
C44   C46   A    
C15   C29   S    
C4    H34   S    
N1    Zn1   S    
C51   C52   S    
C40   H26   S    
C24   C25   A    
C39   H25   S    
O13   Zn2   S    
C8    C54   S    
C23   O12   A    
C30   H17   S    
C50   H38   S    
C31   H18   S    
C42   C48   A    
C25   C26   A    
C35   H21   S    
C47   H31   S    
C9    C14   D    
C37   C38   A    
C3    C9    S    
C12   O11   A    
C11   C16   D    
C33   H20   S    
C31   C32   A    
C5    H44   S    
C45   O18   A    
H10   N4    S    
C54   O7    A    
O16   Zn4   S    
C18   H5    S    
C17   C23   S    
C50   H36   S    
C40   C41   A    
C12   C14   S    
C34   O13   A    
C43   C44   A    
C26   H14   S    
O6    Zn3   S    
C22   C24   A    
C25   H13   S    
C42   C43   A    
C4    C10   S    
C44   H29   S    
C39   C40   A    
C27   H15   S    
C53   O6    A    
C29   C35   A    
C46   C47   A    
C19   C21   S    
C49   H33   S    
O12   Zn2   S    
C50   H37   S    
C23   O16   A    
C37   H22   S    
O2    Zn1   S    
C52   H43   S    
C2    H12   S    
C13   C17   D    
C32   C33   A    
C14   C22   S    
C20   H7    S    
C18   N1    D    
C16   C36   S    
C38   C39   A    
C12   O15   A    
C38   H24   S    
C34   O17   A    
C52   H42   S    
C33   C35   A    
C54   O3    A    
C18   C20   S    
C8    H47   S    
O4    Zn2   S    
C21   N4    D    
C19   N2    D    
C45   O5    A    
O8    Zn4   S    
C49   C50   S    
O3    Zn2   S    
C46   H30   S    
H9    N3    S    
O15   Zn3   S    
C11   C56   S    
C51   H39   S    
C27   C28   A    
O7    Zn4   S    
O11   Zn1   S    
