data_mof_unit_67334.cif
_audit_creation_date              2012-12-11T18:55:32-0500
_audit_creation_method            fapswitch 2.2
_symmetry_space_group_name_H-M    P1
_symmetry_Int_Tables_number       1
_space_group_crystal_system       triclinic
_cell_length_a                    8.647052
_cell_length_b                    15.398222
_cell_length_c                    16.429848
_cell_angle_alpha                 111.688866
_cell_angle_beta                  97.930191
_cell_angle_gamma                 80.069389
_cell_volume                      1995.69538566

loop_
_atom_site_label
_atom_site_type_symbol
_atom_type_description
_atom_site_fract_x
_atom_site_fract_y
_atom_site_fract_z
_atom_type_partial_charge
Ba1   Ba    Ba6+2 0.364200 0.465260 0.540910 1.637811
Ba2   Ba    Ba6+2 0.825640 0.534660 0.459080 1.632744
C1    C     C_3   0.278062 0.200674 0.793104 0.186846
C2    C     C_R   0.887609 0.527391 0.751733 -0.263059
C3    C     C_2   0.467301 0.385760 0.133360 -0.128323
C4    C     C_3   0.730600 0.301857 0.766381 0.613664
C5    C     C_2   0.434329 0.402371 0.215559 0.058108
C6    C     C_2   0.147722 0.453447 0.183027 0.034929
C7    C     C_3   0.174202 0.416986 0.085038 -0.014951
C8    C     C_3   0.347187 0.412155 0.068137 -0.075458
C9    C     C_2   0.053838 0.458834 0.026976 -0.078501
C10   C     C_2   0.089516 0.475280 0.956328 -0.092706
C11   C     C_R   0.819964 0.548091 0.919075 -0.029141
C12   C     C_3   0.250156 0.270655 0.744040 0.492364
C13   C     C_R   0.969217 0.504572 0.892740 -0.065446
C14   C     C_R   0.705113 0.580773 0.864062 0.047369
C15   C     C_R   0.738207 0.571669 0.778817 0.066416
C16   C     C_3   0.860213 0.252673 0.813772 -0.086418
C17   C     C_R   0.002726 0.494253 0.807202 0.000167
C18   C     C_R   0.865116 0.190465 0.553992 0.007881
C19   C     C_R   0.081128 0.208733 0.483798 0.095100
C20   C     C_R   0.272319 0.776848 0.504351 -0.112239
C21   C     C_R   0.352128 0.823980 0.468482 0.006672
C22   C     C_R   0.294821 0.916525 0.475458 -0.191673
C23   C     C_3   0.944815 0.781836 0.745553 0.530445
C24   C     C_R   0.144977 0.961562 0.505603 -0.010100
C25   C     C_R   0.058988 0.909841 0.538243 -0.041126
C26   C     C_R   0.078945 0.056573 0.506711 0.002507
C27   C     C_R   0.932561 0.096958 0.544331 -0.084012
C28   C     C_3   0.739998 0.236355 0.337817 0.279565
C29   C     C_R   0.854071 0.044520 0.573998 -0.129840
C30   C     C_R   0.916585 0.956729 0.576015 0.141519
C31   C     C_R   0.143733 0.112775 0.469006 0.056733
C32   C     C_R   0.945363 0.247642 0.530200 -0.143238
C33   C     C_R   0.122152 0.815115 0.534751 0.056037
C34   C     C_3   0.036734 0.735583 0.810100 -0.027795
C35   C     C_3   0.803727 0.130576 0.304129 -0.038852
C36   C     C_3   0.493422 0.807527 0.781695 0.621931
C37   C     C_3   0.551890 0.814166 0.876216 -0.321073
C38   C     C_3   0.159077 0.245105 0.249210 0.403700
C39   C     C_3   0.085955 0.192129 0.154482 0.106536
C40   C     C_3   0.574391 0.071717 0.327156 -0.215620
C41   C     C_3   0.453133 0.910394 0.691495 -0.255070
C42   C     C_3   0.495445 0.135170 0.879529 -0.207059
C43   C     C_3   0.957803 0.949208 0.842643 -0.259950
C44   C     C_3   0.931580 0.818516 0.956046 -0.275251
C45   C     C_3   0.458355 0.744794 0.233297 0.618041
C46   C     C_3   0.332436 0.615627 0.239383 -0.175512
C47   C     C_3   0.246054 0.704607 0.050179 -0.194714
C48   C     C_3   0.612837 0.383982 0.914996 -0.163281
C49   C     C_3   0.386187 0.814691 0.182997 0.201764
C50   C     C_3   0.936735 0.729060 0.279426 0.413090
C51   C     C_3   0.911435 0.822610 0.259038 0.316554
C52   C     C_2   0.266754 0.435500 0.240844 -0.089208
H1    H     H_    0.316700 0.241413 0.684345 0.029462
H2    H     H_    0.225418 0.135976 0.750591 0.003090
H3    H     H_    0.859636 0.734640 0.703534 0.041274
H4    H     H_    0.141724 0.768706 0.844579 0.109154
H5    H     H_    0.081020 0.661843 0.770386 0.056366
H6    H     H_    0.916604 0.307117 0.869428 0.092206
H7    H     H_    0.351236 0.882947 0.235848 0.063258
H8    H     H_    0.033341 0.733151 0.332184 -0.062060
H9    H     H_    0.829021 0.724241 0.306307 0.076015
H10   H     H_    0.587256 0.361041 0.114928 0.086495
H11   H     H_    0.918221 0.524879 0.689350 0.057182
H12   H     H_    0.886469 0.115332 0.253250 0.095518
H13   H     H_    0.931496 0.468069 0.039530 0.095629
H14   H     H_    0.211790 0.464857 0.943638 0.113367
H15   H     H_    0.742680 0.072600 0.601984 0.104353
H16   H     H_    0.794672 0.343199 0.741942 -0.106748
H17   H     H_    0.374653 0.950317 0.457600 0.091327
H18   H     H_    0.948837 0.211199 0.766360 0.052232
H19   H     H_    0.841589 0.275966 0.353725 0.009712
H20   H     H_    0.675810 0.253750 0.397058 0.021871
H21   H     H_    0.625506 0.074904 0.207429 0.216009
H22   H     H_    0.494740 0.017739 0.293568 0.093876
H23   H     H_    0.871323 0.110733 0.358316 0.053920
H24   H     H_    0.501847 0.140500 0.350984 0.157043
H25   H     H_    0.641085 0.057464 0.384616 0.135988
H26   H     H_    0.314172 0.762579 0.694991 0.207151
H27   H     H_    0.262149 0.846364 0.792555 0.150727
H28   H     H_    0.431798 0.953221 0.824222 0.160308
H29   H     H_    0.325323 0.908734 0.672904 0.097030
H30   H     H_    0.523471 0.855038 0.640931 0.138627
H31   H     H_    0.481233 0.979290 0.695310 0.091366
H32   H     H_    0.371452 0.163234 0.225852 0.171170
H33   H     H_    0.378872 0.265387 0.309559 0.188685
H34   H     H_    0.457772 0.804392 0.910526 0.088318
H35   H     H_    0.503464 0.139385 0.754335 0.210363
H36   H     H_    0.599989 0.081016 0.861718 0.113366
H37   H     H_    0.400969 0.102318 0.891408 0.082331
H38   H     H_    0.526971 0.191482 0.942087 0.121392
H39   H     H_    0.109817 0.172583 0.025983 0.178382
H40   H     H_    0.277700 0.148174 0.080374 0.163288
H41   H     H_    0.859146 0.228236 0.188484 0.201836
H42   H     H_    0.917722 0.301877 0.147614 0.194137
H43   H     H_    0.766310 0.894268 0.759774 0.220169
H44   H     H_    0.017034 0.968895 0.797482 0.123557
H45   H     H_    0.588010 0.884239 0.916616 0.074616
H46   H     H_    0.880848 0.011806 0.882148 0.094523
H47   H     H_    0.050144 0.928992 0.888524 0.100186
H48   H     H_    0.974734 0.676903 0.892265 0.194391
H49   H     H_    0.877306 0.802811 0.005239 0.101983
H50   H     H_    0.854206 0.878723 0.945355 0.153963
H51   H     H_    0.049903 0.839187 0.983029 0.102138
H52   H     H_    0.273355 0.284473 0.923819 0.220017
H53   H     H_    0.171349 0.191510 0.894135 0.155559
H54   H     H_    0.524088 0.633975 0.116998 0.130865
H55   H     H_    0.670745 0.691438 0.177145 0.198845
H56   H     H_    0.654215 0.761483 0.876167 0.125458
H57   H     H_    0.266710 0.756857 0.303191 0.166878
H58   H     H_    0.278605 0.581753 0.173099 0.109830
H59   H     H_    0.266407 0.612619 0.290687 0.044306
H60   H     H_    0.453829 0.580842 0.246103 0.135622
H61   H     H_    0.561223 0.772849 0.094963 0.178042
H62   H     H_    0.561582 0.884312 0.171375 0.185296
H63   H     H_    0.172530 0.845642 0.117305 0.193589
H64   H     H_    0.124874 0.694662 0.020682 0.102667
H65   H     H_    0.289447 0.640463 0.065456 0.105096
H66   H     H_    0.315392 0.711189 0.001404 0.120287
H67   H     H_    0.105623 0.319489 0.269259 0.043157
H68   H     H_    0.037737 0.920389 0.252200 0.185979
H69   H     H_    0.095839 0.883850 0.335658 0.150951
H70   H     H_    0.826479 0.889819 0.382795 0.170949
H71   H     H_    0.691746 0.890559 0.297733 0.224520
H72   H     H_    0.566156 0.424424 0.803071 0.219245
H73   H     H_    0.513006 0.438139 0.942788 0.098269
H74   H     H_    0.722674 0.408722 0.952197 0.067346
H75   H     H_    0.595307 0.318987 0.923878 0.163241
H76   H     H_    0.922458 0.758088 0.125404 0.218408
H77   H     H_    0.826800 0.867976 0.156194 0.176164
H78   H     H_    0.088763 0.116574 0.145785 0.089907
H79   H     H_    0.579127 0.681608 0.954369 0.145967
H80   H     H_    0.514312 0.578426 0.919466 0.191399
H81   H     H_    0.270152 0.410982 0.355693 0.188981
H82   H     H_    0.301500 0.518922 0.366983 0.169428
H83   H     H_    0.964673 0.387749 0.581797 0.206317
H84   H     H_    0.829620 0.358201 0.494446 0.184953
H85   H     H_    0.232344 0.007151 0.360394 0.160104
H86   H     H_    0.369129 0.073148 0.435948 0.202741
H87   H     H_    0.363894 0.640407 0.462123 0.183466
H88   H     H_    0.464677 0.708023 0.551803 0.196338
H89   H     H_    0.122427 0.279377 0.722504 -0.172911
H90   H     H_    0.720472 0.923006 0.604164 0.190980
H91   H     H_    0.838921 0.974546 0.689519 0.134595
H92   H     H_    0.886865 0.172917 0.890923 0.167263
H93   H     H_    0.789860 0.126027 0.792711 0.181739
N1    N     N_2   0.679850 0.071600 0.266340 -0.423814
N2    N     N_3   0.198931 0.243893 0.874555 -0.508435
N3    N     N_3   0.569347 0.666335 0.181219 -0.465697
N4    N     N_2   0.325240 0.711718 0.250740 -0.408160
N5    N     N_3   0.492114 0.833576 0.131108 -0.528017
N6    N     N_2   0.241222 0.788738 0.128395 -0.394254
N7    N     N_3   0.059103 0.859936 0.269128 -0.489327
N8    N     N_3   0.808405 0.895590 0.320659 -0.505753
N9    N     N_2   0.614651 0.368740 0.822592 -0.382420
N10   N     N_3   0.842499 0.805032 0.168742 -0.511351
N11   N     N_3   0.556553 0.624633 0.897445 -0.469227
N12   N     N_3   0.335884 0.784094 0.763073 -0.471901
N13   N     N_3   0.236001 0.465103 0.331288 -0.450675
N14   N     N_3   0.879800 0.344410 0.550269 -0.481576
N15   N     N_3   0.256133 0.072916 0.404706 -0.492609
N16   N     N_3   0.352488 0.695266 0.521384 -0.472758
N17   N     N_3   0.839014 0.922929 0.627052 -0.455994
N18   N     N_3   0.800876 0.189080 0.845499 -0.491208
N19   N     N_2   0.492416 0.900165 0.776213 -0.439497
N20   N     N_3   0.328711 0.235034 0.246350 -0.495124
N21   N     N_2   0.446075 0.174668 0.810696 -0.390369
N22   N     N_3   0.175251 0.196675 0.086614 -0.495561
N23   N     N_3   0.922370 0.231175 0.140626 -0.509996
N24   N     N_2   0.863191 0.873381 0.794660 -0.409158
N25   N     N_2   0.941126 0.735966 0.876159 -0.454693
O1    O     O_2   0.428380 0.595290 0.716080 -0.428664
O2    O     O_2   0.670468 0.809596 0.465554 -0.483132
O3    O     O_3   0.540587 0.794277 0.314090 -0.653695
O4    O     O_3   0.649320 0.571640 0.606850 -0.474904
O5    O     O_3   0.067570 0.379360 0.450830 -0.507416
O6    O     O_2   0.850910 0.734710 0.551660 -0.440985
O7    O     O_3   0.051090 0.795794 0.695707 -0.670589
O8    O     O_2   0.813337 0.510037 0.196193 -0.485402
O9    O     O_3   0.968759 0.647203 0.203939 -0.626569
O10   O     O_3   0.202060 0.415890 0.655600 -0.486532
O11   O     O_2   0.303048 0.529510 0.808635 -0.483617
O12   O     O_3   0.126178 0.205314 0.308383 -0.667652
O13   O     O_3   0.589414 0.740150 0.718326 -0.642324
O14   O     O_3   0.301563 0.356565 0.799979 -0.592177
O15   O     O_2   0.338780 0.265250 0.448290 -0.470945
O16   O     O_3   0.612600 0.359160 0.609560 -0.444374
O17   O     O_2   0.535848 0.186780 0.536829 -0.505173
O18   O     O_3   0.651461 0.233273 0.698846 -0.611096
O19   O     O_2   0.761310 0.404670 0.283870 -0.478626
O20   O     O_3   0.540390 0.428280 0.393140 -0.512911
O21   O     O_3   0.987650 0.584030 0.344390 -0.459517
O22   O     O_3   0.638092 0.257932 0.272354 -0.638864
O23   O     O_3   0.122140 0.620560 0.549160 -0.447313
O24   O     O_3   0.577110 0.640760 0.390430 -0.477970
P1    P     P_3+3 0.592580 0.619730 0.703530 1.009914
P2    P     P_3+3 0.156500 0.273340 0.422460 0.954666
P3    P     P_3+3 0.667115 0.241387 0.597010 0.954464
P4    P     P_3+3 0.597130 0.380190 0.296460 0.955765
P5    P     P_3+3 0.530928 0.763249 0.407724 0.929677
P6    P     P_3+3 0.200416 0.449156 0.768272 0.944172
P7    P     P_3+3 0.032095 0.740848 0.580967 0.993748
P8    P     P_3+3 0.976348 0.544589 0.229851 0.964340

loop_
_geom_bond_atom_site_label_1
_geom_bond_atom_site_label_2
_ccdc_geom_bond_type
C33   P7    S    
Ba1   O4    S    
H27   N12   S    
C41   H29   S    
Ba1   P2    S    
C49   H7    S    
C19   P2    S    
C32   N14   S    
C40   N1    S    
C18   P3    S    
C47   H65   S    
C13   C17   A    
C38   H67   S    
C10   H14   S    
Ba1   O1    S    
C24   C25   A    
O21   P8    S    
C21   P5    S    
H76   N10   S    
Ba2   P4    S    
C47   N6    S    
C26   C27   A    
Ba1   O23   S    
Ba2   O20   S    
C36   N12   S    
Ba1   Ba2   S    
C34   H4    S    
C43   H44   S    
H40   N22   S    
C2    H11   S    
C28   H20   S    
C41   N19   S    
C47   H66   S    
O23   P7    S    
H86   N15   S    
C44   H51   S    
O14   P6    S    
C36   N19   S    
Ba2   O23   S    
C42   N21   S    
C5    P4    S    
H77   N10   S    
C38   N20   S    
H93   N18   S    
Ba2   O4    S    
C34   H5    S    
Ba1   O5    S    
C37   H56   S    
H33   N20   S    
C29   C30   A    
C48   N9    S    
C6    C7    S    
C51   N8    S    
H61   N5    S    
O18   P3    S    
C21   C22   A    
C10   C13   S    
C15   P1    S    
Ba2   O5    S    
C2    C17   A    
C7    C8    S    
O4    P1    S    
C42   H38   S    
C18   C32   A    
C23   N24   S    
O20   P4    S    
C12   H1    S    
C40   H25   S    
H52   N2    S    
H42   N23   S    
O6    P7    D    
H90   N17   S    
C16   H18   S    
C41   H30   S    
H68   N7    S    
C23   H3    S    
C37   H34   S    
C43   N24   S    
C16   N18   S    
C9    H13   S    
C1    N21   S    
C18   C27   A    
Ba1   O15   S    
H48   N25   S    
C36   C37   S    
C4    C16   S    
O22   P4    S    
C34   N25   S    
C1    N2    S    
O15   P2    D    
O1    P1    D    
C41   H31   S    
C6    P8    S    
Ba2   O19   S    
O3    P5    S    
C6    C52   D    
H88   N16   S    
C3    C5    D    
C28   H19   S    
C44   H50   S    
C14   C15   A    
H26   N12   S    
C45   C49   S    
C19   C32   A    
O16   P3    S    
C25   C33   A    
C14   N11   S    
C43   H46   S    
O2    P5    D    
C28   C35   S    
H53   N2    S    
H35   N21   S    
C20   C33   A    
C48   H75   S    
C1    H2    S    
C37   H45   S    
C47   H64   S    
C45   N3    S    
C29   H15   S    
C9    C10   D    
H39   N22   S    
C35   H12   S    
C4    O18   S    
C50   O9    S    
C7    C9    S    
C42   H37   S    
C43   H47   S    
H54   N3    S    
C2    C15   A    
C16   H6    S    
C38   C39   S    
H80   N11   S    
H92   N18   S    
O7    P7    S    
C26   C31   A    
H87   N16   S    
O12   P2    S    
O5    P2    S    
C11   C13   A    
H63   N6    S    
C11   C14   A    
O9    P8    S    
C48   H74   S    
H62   N5    S    
C42   H36   S    
C50   C51   S    
C46   H60   S    
H28   N19   S    
Ba1   O16   S    
C4    H16   S    
C35   H23   S    
C12   H89   S    
C49   N6    S    
H81   N13   S    
C46   H58   S    
C25   C30   A    
O10   P6    S    
O11   P6    D    
C40   H22   S    
H85   N15   S    
Ba1   P1    S    
H32   N20   S    
C22   C24   A    
C51   N10   S    
O8    P8    D    
C50   H9    S    
H57   N4    S    
C49   N5    S    
C39   H78   S    
Ba1   O10   S    
C23   O7    S    
C40   H24   S    
H91   N17   S    
C1    C12   S    
H21   N1    S    
C36   O13   S    
C39   N23   S    
C24   C26   A    
H43   N24   S    
Ba2   O21   S    
C31   N15   S    
O19   P4    D    
C27   C29   A    
C50   H8    S    
H83   N14   S    
C20   N16   S    
O17   P3    D    
C28   O22   S    
C46   N4    S    
C39   N22   S    
C12   O14   S    
C30   N17   S    
C44   N25   S    
H55   N3    S    
H84   N14   S    
Ba2   O24   S    
C17   P6    S    
C35   N1    S    
H79   N11   S    
H41   N23   S    
C45   O3    S    
C44   H49   S    
C45   N4    S    
C23   C34   S    
C52   N13   S    
H82   N13   S    
Ba1   O20   S    
C3    C8    S    
C19   C31   A    
C3    H10   S    
H70   N8    S    
C20   C21   A    
C48   H73   S    
Ba2   O6    S    
C5    C52   S    
O13   P1    S    
O24   P5    S    
C51   N7    S    
C4    N9    S    
H71   N8    S    
C22   H17   S    
C46   H59   S    
C38   O12   S    
H69   N7    S    
H72   N9    S    
