data_mof_unit_10873.cif
_audit_creation_date              2013-03-05T16:06:01-0500
_audit_creation_method            fapswitch 2.2
_symmetry_space_group_name_H-M    P1
_symmetry_Int_Tables_number       1
_space_group_crystal_system       triclinic
_cell_length_a                    10.969542
_cell_length_b                    9.696482
_cell_length_c                    23.604078
_cell_angle_alpha                 91.424067
_cell_angle_beta                  94.762194
_cell_angle_gamma                 90.195375
_cell_volume                      2501.19285736

loop_
_atom_site_label
_atom_site_type_symbol
_atom_site_description
_atom_site_fract_x
_atom_site_fract_y
_atom_site_fract_z
_atom_type_partial_charge
O1    O     O_R   0.319640 0.618740 0.500000 -0.554250
O2    O     O_R   0.680360 0.381260 0.500000 -0.555422
O3    O     O_R   0.680360 0.618740 0.500000 -0.550982
O4    O     O_R   0.319640 0.381260 0.500000 -0.558198
C1    C     C_R   0.263154 0.499408 0.501833 0.840161
C2    C     C_R   0.737675 0.500175 0.500293 0.835493
O5    O     O_R   0.499960 0.618810 0.417880 -0.572716
O6    O     O_R   0.500040 0.381190 0.582120 -0.598313
O7    O     O_R   0.500040 0.618810 0.582120 -0.573622
O8    O     O_R   0.499960 0.381190 0.417880 -0.595337
C3    C     C_R   0.496181 0.497921 0.391195 0.812982
C4    C     C_R   0.500417 0.500791 0.608702 0.816890
Cu1   Cu    Cu3+1 0.500000 0.640660 0.500000 1.004695
Cu2   Cu    Cu3+1 0.500000 0.359340 0.500000 0.981711
C5    C     C_R   0.590472 0.480716 0.884896 0.612728
C6    C     C_R   0.375209 0.471326 0.113497 0.615604
N1    N     N_R   0.483743 0.499573 0.851622 -0.442361
N2    N     N_R   0.481083 0.497593 0.147092 -0.441332
C7    C     C_R   0.375277 0.519487 0.875688 0.590902
C8    C     C_R   0.587723 0.527882 0.123341 0.588080
C9    C     C_R   0.369301 0.506171 0.935067 -0.033284
C10   C     C_R   0.594226 0.515337 0.063782 -0.033577
C11   C     C_R   0.481370 0.501083 0.969453 -0.045271
C12   C     C_R   0.482629 0.501229 0.029281 -0.046091
C13   C     C_R   0.592571 0.493984 0.944100 -0.044112
C14   C     C_R   0.372102 0.485333 0.054499 -0.047794
C15   C     C_R   0.257397 0.496498 0.961457 0.127871
C16   C     C_R   0.706438 0.514217 0.037358 0.125366
C17   C     C_R   0.261084 0.481441 0.020529 -0.116914
C18   C     C_R   0.703558 0.498772 0.978060 -0.116000
O9    O     O_2   0.694552 0.449719 0.860697 -0.508320
O10   O     O_2   0.273238 0.431484 0.137071 -0.503992
O11   O     O_2   0.274887 0.552630 0.842083 -0.517577
O12   O     O_2   0.686014 0.569899 0.157529 -0.520373
H1    H     H_    0.176048 0.470185 0.040344 0.185266
H2    H     H_    0.789037 0.494185 0.958123 0.185863
C19   C     C_R   0.563040 0.403548 0.239555 0.161886
C20   C     C_R   0.413162 0.405866 0.755207 0.150264
C21   C     C_R   0.575740 0.415640 0.299576 0.033550
C22   C     C_R   0.408280 0.417632 0.695440 0.061000
C23   C     C_R   0.488071 0.491257 0.328194 -0.104740
C24   C     C_R   0.496909 0.499892 0.671252 -0.097172
C25   C     C_R   0.390359 0.555478 0.296103 -0.034288
C26   C     C_R   0.584449 0.574732 0.707339 -0.055710
C27   C     C_R   0.397620 0.572109 0.237320 0.355992
C28   C     C_R   0.567082 0.589824 0.765628 0.361604
C29   C     C_R   0.481302 0.491928 0.208394 0.171013
C30   C     C_R   0.486216 0.499816 0.790343 0.174968
C31   C     C_R   0.062521 0.373539 0.494345 0.231944
C32   C     C_R   0.940816 0.622694 0.514760 0.233618
C33   C     C_R   0.935328 0.374554 0.492644 0.227359
C34   C     C_R   0.068545 0.619969 0.518777 0.230873
C35   C     C_R   0.872474 0.499893 0.501369 -0.381273
C36   C     C_R   0.130034 0.497186 0.505632 -0.381682
C37   C     C_R   0.432135 0.072023 0.458428 0.258221
C38   C     C_R   0.566814 0.929079 0.541750 0.263603
C39   C     C_R   0.570346 0.076976 0.540801 0.268757
C40   C     C_R   0.428449 0.924231 0.459842 0.274022
N3    N     N_R   0.500000 0.852070 0.500000 -0.186402
N4    N     N_R   0.500000 0.147930 0.500000 -0.191164
C41   C     C_3   0.133274 0.493953 0.928494 -0.687153
H3    H     H_    0.129109 0.409627 0.895678 0.250253
H4    H     H_    0.058255 0.475160 0.956260 0.195332
H5    H     H_    0.114989 0.594917 0.908428 0.276406
C42   C     C_3   0.830454 0.520880 0.070384 -0.683572
H6    H     H_    0.838612 0.437155 0.101709 0.248997
H7    H     H_    0.906282 0.507435 0.042355 0.195688
H8    H     H_    0.843879 0.623102 0.092254 0.276506
C43   C     C_3   0.632798 0.293433 0.209214 -0.738708
H9    H     H_    0.628492 0.194362 0.231609 0.237273
H10   H     H_    0.592818 0.272032 0.165151 0.223173
H11   H     H_    0.729841 0.325029 0.207883 0.251988
C44   C     C_3   0.345502 0.289473 0.780929 -0.728103
H12   H     H_    0.357218 0.191866 0.756393 0.237092
H13   H     H_    0.381666 0.269148 0.825186 0.224637
H14   H     H_    0.246619 0.313660 0.780527 0.252926
C45   C     C_3   0.680272 0.345875 0.333264 -0.655018
H15   H     H_    0.720923 0.417263 0.367293 0.229102
H16   H     H_    0.645771 0.251266 0.352208 0.258259
H17   H     H_    0.756090 0.316896 0.307180 0.239016
C46   C     C_3   0.310840 0.340670 0.657449 -0.670185
H18   H     H_    0.272258 0.408500 0.623320 0.227932
H19   H     H_    0.350675 0.247275 0.638230 0.253612
H20   H     H_    0.232093 0.308490 0.680603 0.234312
C47   C     C_3   0.273332 0.593421 0.322055 -0.723590
H21   H     H_    0.272429 0.562076 0.366784 0.183966
H22   H     H_    0.255727 0.705402 0.318686 0.256779
H23   H     H_    0.195941 0.536502 0.298745 0.268044
C48   C     C_3   0.702005 0.626720 0.686223 -0.698850
H24   H     H_    0.780677 0.579328 0.711072 0.269261
H25   H     H_    0.712653 0.596063 0.641468 0.191052
H26   H     H_    0.708877 0.740321 0.691873 0.260073
N5    N     N_R   0.322758 0.672316 0.206975 0.145479
O13   O     O_R   0.372986 0.760535 0.175251 -0.337849
O14   O     O_R   0.204316 0.670819 0.207794 -0.313779
N6    N     N_R   0.630138 0.696742 0.800121 0.142512
O15   O     O_R   0.569017 0.776893 0.832405 -0.337888
O16   O     O_R   0.748707 0.708183 0.802966 -0.313547
N7    N     N_R   0.121157 0.244222 0.484057 0.171825
O17   O     O_R   0.172185 0.177489 0.526868 -0.280296
O18   O     O_R   0.097172 0.179025 0.435545 -0.320972
N8    N     N_R   0.882669 0.750744 0.527321 0.159345
O19   O     O_R   0.838590 0.825990 0.485632 -0.260972
O20   O     O_R   0.902562 0.807220 0.577848 -0.326611
N9    N     N_R   0.872188 0.245077 0.482661 0.183857
O21   O     O_R   0.816335 0.217197 0.432994 -0.330991
O22   O     O_R   0.896673 0.144374 0.517096 -0.255722
N10   N     N_R   0.135008 0.742247 0.538614 0.185501
O23   O     O_R   0.202866 0.741717 0.586530 -0.318353
O24   O     O_R   0.119496 0.857042 0.511615 -0.238440
C49   C     C_3   0.369484 0.144104 0.407605 -0.651102
H27   H     H_    0.326579 0.240949 0.419908 0.272674
H28   H     H_    0.436993 0.161328 0.376010 0.208087
H29   H     H_    0.292843 0.087185 0.384474 0.217795
C50   C     C_3   0.626096 0.857826 0.592633 -0.681962
H30   H     H_    0.671079 0.763717 0.579142 0.276963
H31   H     H_    0.699720 0.914716 0.617836 0.215759
H32   H     H_    0.555410 0.837891 0.622430 0.231819
C51   C     C_3   0.653668 0.152187 0.586054 -0.685261
H33   H     H_    0.671909 0.260023 0.578889 0.260846
H34   H     H_    0.616301 0.143862 0.628164 0.198154
H35   H     H_    0.746802 0.108414 0.587866 0.251184
C52   C     C_3   0.340520 0.851346 0.416810 -0.724475
H36   H     H_    0.329407 0.742842 0.423169 0.266298
H37   H     H_    0.246754 0.892122 0.419563 0.253381
H38   H     H_    0.370993 0.865217 0.373623 0.206227

loop_
_geom_bond_atom_site_label_1
_geom_bond_atom_site_label_2
_geom_bond_distance
_ccdc_geom_bond_type
N5    O13   1.301227 A    
C19   C43   1.515605 S    
C15   C17   1.402825 A    
C23   C25   1.415495 A    
C44   H12   1.110682 S    
C49   H27   1.095364 S    
N1    C30   1.448995 S    
O3    C2    1.312123 A    
C27   N5    1.440094 S    
N2    C29   1.449175 S    
C31   C33   1.392568 A    
C46   H18   1.110090 S    
C52   H36   1.074395 S    
C21   C23   1.416609 A    
C47   H21   1.106724 S    
N10   O23   1.301487 A    
O5    C3    1.315727 A    
N9    O22   1.300478 A    
C40   C52   1.502825 S    
O1    C1    1.314050 A    
C21   C45   1.511757 S    
C7    C9    1.417592 A    
C12   C14   1.403991 A    
C47   H23   1.110055 S    
C50   H30   1.091926 S    
C38   C39   1.435259 A    
C41   H4    1.111035 S    
C27   C29   1.412749 A    
C43   H10   1.109066 S    
O7    Cu1   1.955103 S    
C4    C24   1.480372 S    
C15   C41   1.510883 S    
C52   H37   1.109548 S    
N1    C7    1.372577 A    
C34   C36   1.410865 A    
C50   H31   1.100602 S    
N6    O16   1.301018 A    
C32   C34   1.396846 A    
C11   C12   1.411068 A    
C19   C29   1.416480 A    
C20   C30   1.416701 A    
C41   H3    1.110438 S    
O3    Cu1   1.990570 S    
C33   N9    1.436561 S    
C39   C51   1.517524 S    
C8    O12   1.347561 S    
C42   H8    1.109763 S    
C51   H34   1.110813 S    
C9    C15   1.425739 A    
N5    O14   1.301043 A    
C10   C16   1.425311 A    
Cu1   Cu2   2.727814 S    
C44   H13   1.108820 S    
O2    C2    1.311039 A    
C24   C26   1.415266 A    
C46   H19   1.109984 S    
C26   C28   1.408701 A    
C45   H16   1.109447 S    
C6    C14   1.400180 A    
C28   C30   1.412392 A    
C32   C35   1.419728 A    
C47   H22   1.107162 S    
N8    O19   1.301371 A    
C25   C47   1.510347 S    
C1    C36   1.470546 S    
C7    O11   1.347303 S    
C39   N4    1.381830 A    
C42   H7    1.111053 S    
C40   N3    1.384672 A    
C45   H15   1.110827 S    
C33   C35   1.418353 A    
C41   H5    1.109782 S    
C31   N7    1.435722 S    
N7    O17   1.301630 A    
O6    C4    1.304604 A    
C50   H32   1.108853 S    
N6    O15   1.301242 A    
C49   H28   1.108836 S    
C48   H26   1.107835 S    
N8    O20   1.301294 A    
C25   C27   1.409589 A    
N7    O18   1.301129 A    
C8    C10   1.415788 A    
C32   N8    1.433502 S    
C9    C11   1.417479 A    
O8    Cu2   1.955103 S    
C44   H14   1.109860 S    
C10   C12   1.417138 A    
O1    Cu1   1.989130 S    
C42   H6    1.110468 S    
C2    C35   1.476804 S    
C46   H20   1.107803 S    
C45   H17   1.108034 S    
C13   C18   1.400946 A    
C5    N1    1.370002 A    
O6    Cu2   1.944634 S    
C37   C49   1.519217 S    
C22   C46   1.518449 S    
C43   H11   1.109893 S    
O4    C1    1.305791 A    
C52   H38   1.109976 S    
C51   H33   1.083959 S    
C5    O9    1.349878 S    
Cu1   N3    2.049933 S    
C6    O10   1.349494 S    
Cu2   N4    2.049934 S    
N9    O21   1.298737 A    
C17   H1    1.084024 S    
C38   N3    1.380463 A    
C18   H2    1.084047 S    
C16   C18   1.401694 A    
C16   C42   1.511079 S    
C19   C21   1.413931 A    
C20   C22   1.414778 A    
C22   C24   1.420177 A    
C51   H35   1.105590 S    
C38   C50   1.502452 S    
N10   O24   1.301008 A    
C3    C23   1.482133 S    
C49   H29   1.102334 S    
N2    C8    1.372486 A    
C11   C13   1.403775 A    
O4    Cu2   1.990571 S    
C43   H9    1.110664 S    
O2    Cu2   1.989129 S    
O7    C4    1.318555 A    
C5    C13   1.398465 A    
O8    C3    1.308071 A    
O5    Cu1   1.944634 S    
C28   N6    1.440750 S    
C34   N10   1.437500 S    
C14   C17   1.401244 A    
C6    N2    1.370230 A    
C48   H25   1.105935 S    
C37   C40   1.434794 A    
C48   H24   1.109964 S    
C37   N4    1.377642 A    
C26   C48   1.510036 S    
C31   C36   1.414998 A    
C20   C44   1.515384 S    
