data_mof_unit_17167.cif
_audit_creation_date              2013-03-05T16:11:05-0500
_audit_creation_method            fapswitch 2.2
_symmetry_space_group_name_H-M    P1
_symmetry_Int_Tables_number       1
_space_group_crystal_system       triclinic
_cell_length_a                    10.733166
_cell_length_b                    9.557698
_cell_length_c                    10.619204
_cell_angle_alpha                 89.999704
_cell_angle_beta                  85.031544
_cell_angle_gamma                 90.016004
_cell_volume                      1085.27094189

loop_
_atom_site_label
_atom_site_type_symbol
_atom_site_description
_atom_site_fract_x
_atom_site_fract_y
_atom_site_fract_z
_atom_type_partial_charge
O1    O     O_R   0.317570 0.620260 0.500070 -0.600411
O2    O     O_R   0.317570 0.379740 0.500070 -0.609363
C1    C     C_R   0.260218 0.500188 0.499970 0.869950
O3    O     O_R   0.499850 0.620240 0.316900 -0.599116
O4    O     O_R   0.499850 0.379760 0.316900 -0.595351
C2    C     C_R   0.500259 0.499851 0.259715 0.817106
Cu1   Cu    Cu3+1 0.499860 0.642410 0.500060 0.892162
Cu2   Cu    Cu3+1 0.499860 0.357590 0.500060 0.897357
O5    O     O_R   0.682190 0.620260 0.500030 -0.598924
O6    O     O_R   0.682190 0.379740 0.500030 -0.597088
O7    O     O_R   0.499910 0.620280 0.683200 -0.593150
O8    O     O_R   0.499910 0.379720 0.683200 -0.591921
C3    C     C_R   0.739713 0.500191 0.498706 0.781240
C4    C     C_R   0.499387 0.500035 0.740268 0.803850
C5    C     C_3   0.423120 0.600587 0.048444 -0.173638
C6    C     C_3   0.460219 0.374162 0.044405 -0.164381
C7    C     C_3   0.383123 0.475664 0.968278 -0.140816
H1    H     H_    0.287662 0.456225 0.939400 0.175082
H2    H     H_    0.360030 0.682995 0.091289 0.136337
H3    H     H_    0.427529 0.271509 0.083527 0.141835
C8    C     C_3   0.499787 0.500134 0.877057 -0.028411
C9    C     C_3   0.539907 0.625302 0.954675 -0.165267
C10   C     C_3   0.576831 0.398267 0.950512 -0.178741
C11   C     C_3   0.615337 0.522962 0.030171 0.210434
C12   C     C_3   0.500258 0.499151 0.122589 0.023668
H4    H     H_    0.573187 0.727849 0.915774 0.125500
H5    H     H_    0.640195 0.316078 0.907664 0.129012
C13   C     C_3   0.060629 0.430446 0.622219 0.177722
C14   C     C_3   0.082002 0.414512 0.384515 0.205922
H6    H     H_    0.089156 0.318572 0.621768 0.122845
H7    H     H_    0.111248 0.303792 0.396110 0.122823
C15   C     C_3   0.915986 0.434278 0.622931 -0.429677
C16   C     C_3   0.937418 0.415943 0.383969 -0.463047
H8    H     H_    0.878767 0.325700 0.632855 0.142410
H9    H     H_    0.902453 0.306334 0.388527 0.147361
H10   H     H_    0.873280 0.494508 0.705438 0.169564
H11   H     H_    0.908745 0.461787 0.294725 0.174299
H12   H     H_    0.097496 0.717089 0.571555 0.172248
H13   H     H_    0.114601 0.706685 0.404446 0.169419
H14   H     H_    0.887609 0.716890 0.569172 0.169498
H15   H     H_    0.904008 0.702069 0.399718 0.168479
C17   C     C_3   0.071743 0.653107 0.490526 -0.412153
C18   C     C_3   0.122132 0.500787 0.499285 0.037397
C19   C     C_3   0.877816 0.500617 0.498585 0.084973
C20   C     C_3   0.929384 0.652550 0.488856 -0.408397
C21   C     C_3   0.588313 0.082934 0.590154 -0.199542
C22   C     C_3   0.588501 0.917145 0.589961 -0.197646
H16   H     H_    0.565879 0.121095 0.688001 0.149337
H17   H     H_    0.566671 0.878572 0.687742 0.146654
H18   H     H_    0.684802 0.121438 0.566058 0.146688
H19   H     H_    0.685016 0.879126 0.565337 0.146144
C23   C     C_3   0.373183 0.084068 0.544558 0.104907
C24   C     C_3   0.373236 0.915773 0.544777 0.115091
C25   C     C_3   0.539584 0.084267 0.373870 0.122526
C26   C     C_3   0.539445 0.916101 0.373903 0.124370
N1    N     N_3   0.500250 0.143650 0.502780 -0.141841
N2    N     N_3   0.500250 0.856350 0.502780 -0.142101
H20   H     H_    0.468951 0.117273 0.308975 0.105151
H21   H     H_    0.468807 0.883034 0.309004 0.104562
H22   H     H_    0.307755 0.116827 0.474227 0.099971
H23   H     H_    0.307643 0.882790 0.474697 0.100530
C27   C     C_3   0.315462 0.146332 0.673105 -0.741846
H24   H     H_    0.365648 0.113041 0.754700 0.204464
H25   H     H_    0.312160 0.260079 0.679455 0.277511
H26   H     H_    0.215928 0.115105 0.689820 0.179253
C28   C     C_3   0.315974 0.853600 0.673636 -0.754904
H27   H     H_    0.367178 0.886002 0.754819 0.204312
H28   H     H_    0.216847 0.885883 0.691507 0.175210
H29   H     H_    0.311412 0.739807 0.679590 0.273940
C29   C     C_3   0.666434 0.146161 0.313416 -0.755571
H30   H     H_    0.681177 0.114983 0.212628 0.186087
H31   H     H_    0.674693 0.259632 0.310072 0.262834
H32   H     H_    0.747780 0.112729 0.362950 0.195082
C30   C     C_3   0.666147 0.854577 0.313648 -0.769625
H33   H     H_    0.679893 0.883696 0.212287 0.186305
H34   H     H_    0.747761 0.889704 0.361921 0.195620
H35   H     H_    0.674484 0.741321 0.313111 0.266563
C31   C     C_3   0.748419 0.546077 0.064106 -0.941518
H36   H     H_    0.754341 0.644702 0.117880 0.225815
H37   H     H_    0.777049 0.457032 0.122023 0.226845
H38   H     H_    0.812299 0.552751 0.976349 0.246594
O9    O     O_3   0.102181 0.490120 0.732547 -0.762402
H39   H     H_    0.063673 0.583918 0.744905 0.328232
O10   O     O_3   0.142041 0.461041 0.268696 -0.741711
H40   H     H_    0.104315 0.551372 0.246316 0.329466

loop_
_geom_bond_atom_site_label_1
_geom_bond_atom_site_label_2
_geom_bond_distance
_ccdc_geom_bond_type
C28   H28   1.108331 S    
C26   H21   1.113581 S    
Cu2   N1    2.044988 S    
Cu1   Cu2   2.722223 S    
C22   H17   1.107611 S    
C19   C20   1.554145 S    
Cu1   O7    1.956315 S    
C1    C18   1.482760 S    
C30   H34   1.104738 S    
C15   H10   1.113427 S    
C4    C8    1.452972 S    
H12   C17   1.109894 S    
O4    C2    1.298361 A    
O7    C4    1.299035 A    
C31   H37   1.108995 S    
C5    C12   1.535801 S    
C28   H29   1.090268 S    
C14   C16   1.552419 S    
C5    C7    1.548426 S    
O5    C3    1.302778 A    
C27   H25   1.089648 S    
C23   H22   1.113534 S    
C25   C26   1.607279 S    
C26   C30   1.566614 S    
C24   H23   1.113316 S    
C5    C9    1.549904 S    
C6    C7    1.547810 S    
C30   H35   1.086155 S    
C10   C11   1.538530 S    
C29   H30   1.109073 S    
C10   H5    1.110550 S    
Cu2   O8    1.956317 S    
C28   H27   1.105958 S    
C8    C9    1.535308 S    
C14   C18   1.562561 S    
O3    Cu1   1.956532 S    
H13   C17   1.111956 S    
C21   H16   1.107871 S    
H14   C20   1.113794 S    
C25   N1    1.508097 S    
C30   H33   1.109176 S    
C13   O9    1.409679 S    
C13   C15   1.552286 S    
C11   C12   1.526585 S    
C14   O10   1.410057 S    
O3    C2    1.300880 A    
C24   N2    1.508335 S    
C31   H36   1.106766 S    
C22   H19   1.107617 S    
C16   H11   1.111499 S    
O1    C1    1.302178 A    
C17   C20   1.529616 S    
C15   H8    1.113592 S    
C5    H2    1.110331 S    
C27   H24   1.105947 S    
C22   N2    1.497839 S    
C25   C29   1.569687 S    
C6    H3    1.110340 S    
C29   H32   1.104892 S    
C7    H1    1.110257 S    
C15   C19   1.551553 S    
O10   H40   0.991306 S    
C24   C28   1.567618 S    
C11   C31   1.519194 S    
O8    C4    1.299637 A    
C6    C10   1.548372 S    
C26   N2    1.508718 S    
C9    C11   1.538763 S    
C17   C18   1.558765 S    
C23   C24   1.608514 S    
C25   H20   1.113458 S    
C6    C12   1.537081 S    
Cu1   O5    1.968427 S    
C21   C22   1.584568 S    
C27   H26   1.108543 S    
O1    Cu1   1.967900 S    
C16   C19   1.552743 S    
O2    Cu2   1.968017 S    
O6    C3    1.305692 A    
O4    Cu2   1.956530 S    
C21   H18   1.107843 S    
C13   C18   1.562825 S    
C8    C10   1.533740 S    
O2    C1    1.305641 A    
C14   H7    1.113735 S    
C23   C27   1.566873 S    
C31   H38   1.109920 S    
C13   H6    1.112209 S    
C16   H9    1.112338 S    
C7    C8    1.533212 S    
C2    C12   1.456191 S    
Cu2   O6    1.968310 S    
O9    H39   0.991243 S    
C9    H4    1.110452 S    
C21   N1    1.497746 S    
H15   C20   1.113063 S    
C29   H31   1.088437 S    
Cu1   N2    2.044986 S    
C3    C19   1.482168 S    
C23   N1    1.508607 S    
