data_mof_unit_52143.cif
_audit_creation_date              2013-03-05T16:12:27-0500
_audit_creation_method            fapswitch 2.2
_symmetry_space_group_name_H-M    P1
_symmetry_Int_Tables_number       1
_space_group_crystal_system       triclinic
_cell_length_a                    10.707631
_cell_length_b                    9.90819
_cell_length_c                    22.939065
_cell_angle_alpha                 90.929408
_cell_angle_beta                  90.871453
_cell_angle_gamma                 89.942653
_cell_volume                      2433.07745707

loop_
_atom_site_label
_atom_site_type_symbol
_atom_site_description
_atom_site_fract_x
_atom_site_fract_y
_atom_site_fract_z
_atom_type_partial_charge
O1    O     O_R   0.316770 0.614620 0.500000 -0.597086
O2    O     O_R   0.683230 0.385380 0.500000 -0.604621
O3    O     O_R   0.683230 0.614620 0.500000 -0.605397
O4    O     O_R   0.316770 0.385380 0.500000 -0.614162
C1    C     C_R   0.260086 0.500056 0.499953 0.929234
C2    C     C_R   0.739901 0.499959 0.499664 0.923733
O5    O     O_R   0.499970 0.614690 0.416160 -0.580203
O6    O     O_R   0.500030 0.385310 0.583840 -0.574372
O7    O     O_R   0.500030 0.614690 0.583840 -0.578666
O8    O     O_R   0.499970 0.385310 0.416160 -0.575393
C3    C     C_R   0.498369 0.499290 0.389101 0.980779
C4    C     C_R   0.499738 0.501644 0.611007 0.966465
Zn1   Zn    Zn3+2 0.500000 0.653120 0.500000 1.096371
Zn2   Zn    Zn3+2 0.500000 0.346880 0.500000 1.086917
C5    C     C_R   0.514747 0.693108 0.881042 0.648154
C6    C     C_R   0.317571 0.583496 0.123405 0.613223
N1    N     N_R   0.437572 0.602465 0.853026 -0.339773
N2    N     N_R   0.430433 0.604140 0.151065 -0.326859
C7    C     C_R   0.342784 0.540031 0.881234 0.641168
C8    C     C_R   0.508625 0.695966 0.126392 0.660796
C9    C     C_R   0.321177 0.569385 0.940227 -0.141211
C10   C     C_R   0.507355 0.711267 0.065346 -0.151093
C11   C     C_R   0.413316 0.643151 0.971731 -0.056621
C12   C     C_R   0.410911 0.646299 0.032973 -0.053828
C13   C     C_R   0.509330 0.710333 0.942100 -0.159000
C14   C     C_R   0.310203 0.587364 0.062324 -0.157149
C15   C     C_R   0.213869 0.522724 0.969026 0.231714
C16   C     C_R   0.599320 0.785351 0.035831 0.229159
C17   C     C_R   0.207811 0.533366 0.030019 0.223311
C18   C     C_R   0.598602 0.787357 0.974544 0.227412
O9    O     O_2   0.598326 0.761968 0.849745 -0.429836
O10   O     O_2   0.213290 0.567636 0.154644 -0.438572
O11   O     O_2   0.272834 0.446582 0.852434 -0.446217
O12   O     O_2   0.582334 0.774697 0.160748 -0.437917
C19   C     C_R   0.583420 0.548215 0.232458 0.237933
C20   C     C_R   0.358965 0.608509 0.752132 0.262036
C21   C     C_R   0.596215 0.533183 0.293361 0.187879
C22   C     C_R   0.370305 0.570872 0.693442 0.195524
C23   C     C_R   0.490914 0.498872 0.325855 -0.257435
C24   C     C_R   0.481349 0.510355 0.673745 -0.265549
C25   C     C_R   0.379099 0.462329 0.297337 0.101274
C26   C     C_R   0.579546 0.482022 0.713044 0.107971
C27   C     C_R   0.372863 0.464226 0.236823 0.207880
C28   C     C_R   0.562720 0.506000 0.772956 0.164294
C29   C     C_R   0.461842 0.539938 0.206567 -0.019265
C30   C     C_R   0.454316 0.573786 0.792108 0.014661
C31   C     C_R   0.063911 0.377002 0.498675 -0.092927
C32   C     C_R   0.935997 0.623058 0.500003 -0.088569
C33   C     C_R   0.936165 0.376942 0.497941 -0.086149
C34   C     C_R   0.063742 0.623116 0.500791 -0.061535
H1    H     H_    0.112283 0.281023 0.498381 0.210435
H2    H     H_    0.887677 0.719076 0.500248 0.210505
H3    H     H_    0.887960 0.280925 0.496524 0.209833
H4    H     H_    0.111942 0.719130 0.502348 0.212496
C35   C     C_R   0.872432 0.499968 0.499055 -0.036214
C36   C     C_R   0.127473 0.500089 0.499846 -0.021533
C37   C     C_R   0.562191 0.072980 0.542662 0.222450
C38   C     C_R   0.438153 0.926527 0.457206 0.230270
C39   C     C_R   0.437547 0.070059 0.457454 0.224511
C40   C     C_R   0.561365 0.929402 0.542928 0.223967
N3    N     N_R   0.500000 0.857200 0.500000 -0.223062
N4    N     N_R   0.500000 0.142800 0.500000 -0.225174
N5    N     N_R   0.107974 0.470818 0.936664 0.266813
O13   O     O_R   0.062025 0.352977 0.948363 -0.235237
O14   O     O_R   0.052215 0.545438 0.898010 -0.230255
N6    N     N_R   0.697913 0.853952 0.067143 0.268582
O15   O     O_R   0.789609 0.784903 0.089623 -0.194316
O16   O     O_R   0.706306 0.984761 0.065161 -0.246094
N7    N     N_R   0.098715 0.485259 0.058445 0.275134
O17   O     O_R   0.096606 0.363169 0.078408 -0.246251
O18   O     O_R   0.995997 0.555506 0.056423 -0.212525
N8    N     N_R   0.693928 0.862098 0.946102 0.272025
O19   O     O_R   0.809589 0.821916 0.948945 -0.230449
O20   O     O_R   0.667436 0.978561 0.923576 -0.238401
N9    N     N_R   0.692563 0.549451 0.196415 0.260968
O21   O     O_R   0.693029 0.480658 0.147591 -0.299868
O22   O     O_R   0.793338 0.613664 0.212819 -0.186494
N10   N     N_R   0.250009 0.680437 0.771513 0.260723
O23   O     O_R   0.138770 0.639275 0.756104 -0.216179
O24   O     O_R   0.261533 0.786018 0.805642 -0.294697
N11   N     N_R   0.714825 0.551488 0.322219 0.237158
O25   O     O_R   0.765981 0.451794 0.350063 -0.361371
O26   O     O_R   0.760135 0.672488 0.329394 -0.273720
N12   N     N_R   0.270715 0.599010 0.653016 0.227754
O27   O     O_R   0.205068 0.500064 0.630767 -0.370161
O28   O     O_R   0.238529 0.723019 0.642527 -0.299140
I1    I     I_    0.211980 0.423296 0.343111 -0.006110
I2    I     I_    0.757955 0.422065 0.681026 0.046594
I3    I     I_    0.287807 0.291206 0.195762 0.063899
I4    I     I_    0.697395 0.435084 0.835191 0.062525
N13   N     N_R   0.630319 0.144274 0.587179 0.258292
O29   O     O_R   0.586912 0.148254 0.639834 -0.291388
O30   O     O_R   0.747600 0.170789 0.579172 -0.353583
N14   N     N_R   0.372943 0.854549 0.411709 0.262878
O31   O     O_R   0.416726 0.854030 0.359115 -0.291577
O32   O     O_R   0.258625 0.815907 0.419699 -0.349953
N15   N     N_R   0.367232 0.138136 0.413680 0.255196
O33   O     O_R   0.414907 0.150768 0.362237 -0.304658
O34   O     O_R   0.246813 0.146475 0.419148 -0.352837
N16   N     N_R   0.625907 0.860206 0.588460 0.262759
O35   O     O_R   0.577531 0.856242 0.640081 -0.288035
O36   O     O_R   0.742531 0.827579 0.582033 -0.344966

loop_
_geom_bond_atom_site_label_1
_geom_bond_atom_site_label_2
_geom_bond_distance
_ccdc_geom_bond_type
C32   C35   1.396963 A    
N6    O16   1.300861 A    
N5    O14   1.301386 A    
C15   C17   1.403862 A    
C1    C36   1.419935 S    
C2    C35   1.419375 S    
O3    C2    1.287416 A    
N11   O25   1.300939 A    
C37   N4    1.371473 A    
C23   C25   1.400674 A    
O5    C3    1.292146 A    
C19   N9    1.441948 S    
C34   H4    1.082582 S    
O1    C1    1.287717 A    
C19   C21   1.411962 A    
C12   C14   1.411825 A    
N7    O17   1.300737 A    
N10   O24   1.301244 A    
C5    C13   1.410296 A    
Zn2   N4    2.022063 S    
N7    O18   1.301638 A    
O7    Zn1   1.966588 S    
C6    O10   1.346619 S    
N15   O34   1.299801 A    
C11   C12   1.405286 A    
C20   C30   1.408108 A    
O3    Zn1   1.998324 S    
N14   O32   1.299459 A    
C8    O12   1.347178 S    
C38   N3    1.369387 A    
C24   C26   1.405630 A    
N6    O15   1.301040 A    
C9    C15   1.415785 A    
C10   C16   1.415886 A    
C25   C27   1.389163 A    
C21   N11   1.433562 S    
O2    C2    1.287991 A    
C26   C28   1.405182 A    
N11   O26   1.300823 A    
C28   C30   1.412734 A    
N15   O33   1.300772 A    
C17   N7    1.432253 S    
C6    C14   1.403293 A    
C25   I1    2.127428 S    
N12   O27   1.299977 A    
N8    O20   1.301261 A    
O8    Zn2   1.966590 S    
N13   O29   1.300769 A    
N10   O23   1.301346 A    
N8    O19   1.301510 A    
C37   C40   1.422746 A    
C31   H1    1.082404 S    
C38   C39   1.422069 A    
C33   C35   1.396465 A    
C34   C36   1.396416 A    
C40   N3    1.368081 A    
C4    C24   1.456687 S    
C16   N6    1.433517 S    
N9    O21   1.301685 A    
N13   O30   1.299619 A    
C27   C29   1.410890 A    
C32   H2    1.082477 S    
O6    C4    1.301442 A    
N16   O36   1.299578 A    
C27   I3    2.140126 S    
N1    C30   1.435359 S    
C3    C23   1.451706 S    
N9    O22   1.300780 A    
C15   N5    1.436809 S    
C8    C10   1.410838 A    
C26   I2    2.137287 S    
C9    C11   1.411545 A    
C7    O11   1.349540 S    
C39   N15   1.424102 S    
C10   C12   1.412364 A    
O1    Zn1   1.999074 S    
C19   C29   1.424538 A    
N2    C29   1.466802 S    
C28   I4    2.139899 S    
C13   C18   1.418247 A    
C5    N1    1.367148 A    
C39   N4    1.370204 A    
O6    Zn2   1.954470 S    
C37   N13   1.424400 S    
C22   N12   1.432672 S    
N12   O28   1.301003 A    
O4    C1    1.287650 A    
C40   N16   1.427898 S    
C18   N8    1.432974 S    
C5    O9    1.348506 S    
C31   C33   1.367700 A    
C20   C22   1.398175 A    
C38   N14   1.428323 S    
C16   C18   1.406224 A    
C21   C23   1.406070 A    
C20   N10   1.438921 S    
C22   C24   1.408396 A    
C33   H3    1.082598 S    
C32   C34   1.367689 A    
N16   O35   1.300866 A    
N1    C7    1.365911 A    
N2    C8    1.371771 A    
C11   C13   1.413984 A    
O4    Zn2   1.998325 S    
N14   O31   1.300905 A    
O2    Zn2   1.999073 S    
O7    C4    1.290603 A    
O8    C3    1.297447 A    
N5    O13   1.301028 A    
O5    Zn1   1.954472 S    
Zn1   N3    2.022063 S    
C14   C17   1.414586 A    
C6    N2    1.370334 A    
C31   C36   1.396907 A    
C7    C9    1.402150 A    
