data_mof_unit_9621.cif
_audit_creation_date              2013-03-05T15:41:00-0500
_audit_creation_method            fapswitch 2.2
_symmetry_space_group_name_H-M    P1
_symmetry_Int_Tables_number       1
_space_group_crystal_system       triclinic
_cell_length_a                    28.100964
_cell_length_b                    7.193391
_cell_length_c                    17.182826
_cell_angle_alpha                 89.9956
_cell_angle_beta                  101.812627
_cell_angle_gamma                 90.236588
_cell_volume                      3399.76967462

loop_
_atom_site_label
_atom_site_type_symbol
_atom_site_description
_atom_site_fract_x
_atom_site_fract_y
_atom_site_fract_z
_atom_type_partial_charge
O1    O     O_R   0.000700 0.436510 0.857920 -0.562245
O2    O     O_R   0.999300 0.563490 0.142080 -0.556898
O3    O     O_R   0.999300 0.936510 0.642080 -0.548920
O4    O     O_R   0.000700 0.063490 0.357920 -0.547751
O5    O     O_R   0.930080 0.766380 0.721890 -0.548662
O6    O     O_R   0.069920 0.233620 0.278110 -0.534476
O7    O     O_R   0.069920 0.266380 0.778110 -0.509401
O8    O     O_R   0.930080 0.733620 0.221890 -0.510231
C1    C     C_R   0.910629 0.597163 0.710534 0.946269
C2    C     C_R   0.089083 0.402485 0.291948 0.970147
C3    C     C_R   0.089479 0.097807 0.788415 0.930737
C4    C     C_R   0.910714 0.901727 0.208006 0.939667
O9    O     O_R   0.996180 0.766230 0.862310 -0.546037
O10   O     O_R   0.003820 0.233770 0.137690 -0.551882
O11   O     O_R   0.003820 0.266230 0.637690 -0.551657
O12   O     O_R   0.996180 0.733770 0.362310 -0.551277
O13   O     O_R   0.065870 0.936460 0.783500 -0.544347
O14   O     O_R   0.934130 0.063540 0.216500 -0.544299
O15   O     O_R   0.934130 0.436460 0.716500 -0.528291
O16   O     O_R   0.065870 0.563540 0.283500 -0.553703
C5    C     C_R   0.998645 0.596478 0.894541 0.893610
C6    C     C_R   0.001513 0.403542 0.105515 0.886683
C7    C     C_R   0.001467 0.096495 0.605484 0.882492
C8    C     C_R   0.998505 0.903527 0.394503 0.873958
O17   O     O_3   0.022790 0.603020 0.723980 -0.262934
O18   O     O_3   0.977210 0.396980 0.276020 -0.263888
O19   O     O_3   0.977210 0.103020 0.776020 -0.286109
O20   O     O_3   0.022790 0.896980 0.223980 -0.292094
V1    V     V_3+5 0.995770 0.877900 0.754830 1.254964
V2    V     V_3+5 0.004230 0.122100 0.245170 1.253428
V3    V     V_3+5 0.004230 0.377900 0.745170 1.267774
V4    V     V_3+5 0.995770 0.622100 0.254830 1.259768
C9    C     C_2   0.001682 0.082732 0.519530 -0.165268
C10   C     C_2   0.998345 0.917309 0.480475 -0.175790
C11   C     C_2   0.998398 0.582658 0.980490 -0.166392
C12   C     C_2   0.001791 0.417369 0.019582 -0.180875
H1    H     H_    0.004427 0.211649 0.487788 0.121365
H2    H     H_    0.995636 0.788392 0.512234 0.116446
H3    H     H_    0.995513 0.711438 0.012171 0.112446
H4    H     H_    0.004656 0.288588 0.987890 0.109953
C13   C     C_R   0.687314 0.034378 0.013138 0.676962
C14   C     C_R   0.316224 0.933992 0.930124 0.666847
C15   C     C_R   0.317113 0.327034 0.474585 0.668544
C16   C     C_R   0.676958 0.705358 0.589313 0.647664
O21   O     O_2   0.719251 0.113972 0.974308 -0.408125
O22   O     O_2   0.284917 0.854374 0.970227 -0.417058
O23   O     O_2   0.292149 0.172557 0.486341 -0.419173
O24   O     O_2   0.702708 0.849343 0.568762 -0.413015
N1    N     N_R   0.704669 0.942318 0.082842 -0.439788
N2    N     N_R   0.298162 0.040697 0.864974 -0.443516
N3    N     N_R   0.293046 0.468645 0.429843 -0.440614
N4    N     N_R   0.701400 0.559179 0.629850 -0.445154
C17   C     C_R   0.673797 0.860932 0.124712 0.623354
C18   C     C_R   0.328320 0.121378 0.821488 0.645183
C19   C     C_R   0.317144 0.626367 0.415448 0.634496
C20   C     C_R   0.676837 0.411757 0.653217 0.667268
C21   C     C_R   0.778333 0.052460 0.173478 -0.076962
C22   C     C_R   0.218866 0.941852 0.788544 -0.061112
C23   C     C_R   0.226439 0.425374 0.313854 -0.080811
C24   C     C_R   0.777129 0.661059 0.717363 -0.056407
C25   C     C_R   0.828210 0.043159 0.206453 0.243723
C26   C     C_R   0.168043 0.951735 0.769366 0.249556
C27   C     C_R   0.177054 0.404353 0.278055 0.233115
C28   C     C_R   0.827963 0.674104 0.738173 0.248237
C29   C     C_R   0.835199 0.783549 0.117243 0.295693
C30   C     C_R   0.171208 0.218877 0.858617 0.303542
C31   C     C_R   0.156508 0.441511 0.409051 0.257158
C32   C     C_R   0.833644 0.485177 0.622055 0.275020
C33   C     C_R   0.784641 0.796200 0.084156 0.325373
C34   C     C_R   0.222781 0.205694 0.877747 0.314463
C35   C     C_R   0.206723 0.457919 0.444420 0.332278
C36   C     C_R   0.781984 0.477959 0.600522 0.320297
C37   C     C_R   0.756386 0.930496 0.113319 0.112116
C38   C     C_R   0.246291 0.066601 0.841992 0.112443
C39   C     C_R   0.241622 0.451003 0.396029 0.108328
C40   C     C_R   0.753934 0.563145 0.649851 0.104036
C41   C     C_R   0.604132 0.959746 0.024291 -0.135339
C42   C     C_R   0.398875 0.998245 0.913495 -0.137025
C43   C     C_R   0.393358 0.500914 0.490561 -0.143396
C44   C     C_R   0.599487 0.550803 0.590126 -0.141602
C45   C     C_R   0.636491 0.046026 0.982163 -0.062420
C46   C     C_R   0.367000 0.908387 0.955573 -0.059096
C47   C     C_R   0.367721 0.341142 0.507312 -0.063998
C48   C     C_R   0.625368 0.705490 0.568852 -0.067293
C49   C     C_R   0.617353 0.141612 0.911048 0.439817
C50   C     C_R   0.386520 0.795367 0.021259 0.451018
C51   C     C_R   0.393148 0.200626 0.555802 0.421812
C52   C     C_R   0.599254 0.854925 0.527788 0.428337
C53   C     C_R   0.623279 0.867541 0.096303 -0.030782
C54   C     C_R   0.379101 0.102960 0.845195 -0.032025
C55   C     C_R   0.367467 0.644786 0.444889 -0.017608
C56   C     C_R   0.625709 0.403775 0.633050 -0.024165
C57   C     C_R   0.857196 0.908767 0.177841 -0.209825
C58   C     C_R   0.143616 0.088892 0.805719 -0.209505
C59   C     C_R   0.141819 0.411988 0.326278 -0.203333
C60   C     C_R   0.856647 0.585843 0.690178 -0.213014
C61   C     C_R   0.481952 0.074799 0.896328 0.054103
C62   C     C_R   0.521039 0.876986 0.038482 0.052083
C63   C     C_R   0.522346 0.383312 0.589119 0.048801
C64   C     C_R   0.469829 0.678477 0.500291 0.044345
C65   C     C_R   0.469782 0.880491 0.008926 -0.019206
C66   C     C_R   0.533523 0.063241 0.923769 -0.016927
C67   C     C_R   0.521520 0.690712 0.525179 -0.018717
C68   C     C_R   0.470602 0.371327 0.564403 -0.017732
C69   C     C_R   0.450386 0.984265 0.939624 0.049580
C70   C     C_R   0.552729 0.966455 0.995231 0.048583
C71   C     C_R   0.547583 0.541890 0.568212 0.048259
C72   C     C_R   0.444772 0.517014 0.518724 0.046455
C73   C     C_R   0.460478 0.174901 0.827003 -0.104500
C74   C     C_R   0.541857 0.790420 0.111460 -0.093775
C75   C     C_R   0.550191 0.240153 0.633110 -0.127513
C76   C     C_R   0.442039 0.821513 0.456132 -0.111439
C77   C     C_R   0.410305 0.188436 0.802272 -0.049293
C78   C     C_R   0.591751 0.784953 0.139226 -0.043274
C79   C     C_R   0.600541 0.250688 0.654463 -0.051886
C80   C     C_R   0.392188 0.804454 0.429099 -0.011711
O25   O     O_2   0.309242 0.221131 0.756085 -0.470835
O26   O     O_2   0.692047 0.772396 0.193571 -0.501601
O27   O     O_2   0.701880 0.272263 0.695270 -0.473107
O28   O     O_2   0.292412 0.765441 0.372584 -0.504652
C81   C     C_R   0.566750 0.147918 0.882741 -0.165969
C82   C     C_R   0.437105 0.781456 0.046326 -0.162427
C83   C     C_R   0.443633 0.217263 0.583479 -0.182040
C84   C     C_R   0.548298 0.846365 0.507184 -0.166458
H5    H     H_    0.237518 0.835983 0.761481 0.170716
H6    H     H_    0.755935 0.153501 0.195768 0.162723
H7    H     H_    0.755127 0.726633 0.754420 0.172031
H8    H     H_    0.253766 0.419424 0.277699 0.157989
H9    H     H_    0.396031 0.268284 0.749174 0.134573
H10   H     H_    0.605527 0.716157 0.195386 0.137959
H11   H     H_    0.619823 0.135549 0.687181 0.136898
H12   H     H_    0.373033 0.918166 0.395117 0.127601
H13   H     H_    0.481170 0.247187 0.790176 0.069979
H14   H     H_    0.520704 0.728587 0.150323 0.074289
H15   H     H_    0.534610 0.115097 0.651608 0.070845
H16   H     H_    0.457329 0.949982 0.440483 0.069496
H17   H     H_    0.554624 0.220686 0.827697 0.054438
H18   H     H_    0.449793 0.688258 0.094991 0.059738
H19   H     H_    0.460712 0.105463 0.620133 0.059154
H20   H     H_    0.530760 0.965209 0.476269 0.062465
O29   O     O_3   0.864222 0.652331 0.091123 -0.672181
H21   H     H_    0.843739 0.549474 0.064344 0.356502
O30   O     O_3   0.146711 0.354890 0.891392 -0.664746
H22   H     H_    0.169196 0.458863 0.910712 0.361586
O31   O     O_3   0.120613 0.457367 0.453044 -0.698740
H23   H     H_    0.134044 0.519264 0.504277 0.369736
O32   O     O_3   0.862726 0.397456 0.577493 -0.681996
H24   H     H_    0.843546 0.300914 0.543683 0.363438
N5    N     N_R   0.762318 0.677817 0.019462 0.096912
O33   O     O_R   0.779774 0.670673 0.954986 -0.266549
O34   O     O_R   0.722797 0.585854 0.022658 -0.329304
N6    N     N_R   0.251070 0.326127 0.936364 0.097270
O35   O     O_R   0.288895 0.413189 0.921518 -0.321250
O36   O     O_R   0.240995 0.339374 0.006759 -0.244499
N7    N     N_R   0.222320 0.479220 0.528969 0.109477
O37   O     O_R   0.253523 0.608139 0.558114 -0.294370
O38   O     O_R   0.207892 0.361707 0.576988 -0.263408
N8    N     N_R   0.758248 0.395499 0.526491 0.095080
O39   O     O_R   0.770128 0.447016 0.460375 -0.269526
O40   O     O_R   0.723483 0.274476 0.524228 -0.265731
O41   O     O_3   0.648434 0.229635 0.869822 -0.623811
H25   H     H_    0.629340 0.299156 0.824230 0.298538
O42   O     O_3   0.355844 0.697695 0.060200 -0.611255
H26   H     H_    0.375213 0.626058 0.104941 0.308225
O43   O     O_3   0.368259 0.047849 0.576296 -0.642652
H27   H     H_    0.391242 0.962053 0.609972 0.300520
O44   O     O_3   0.623900 0.008945 0.507831 -0.630245
H28   H     H_    0.600429 0.102035 0.480297 0.306094
N9    N     N_R   0.142092 0.825953 0.710510 0.117198
O45   O     O_R   0.156755 0.655142 0.707704 -0.302107
O46   O     O_R   0.109196 0.888926 0.652016 -0.357652
N10   N     N_R   0.848270 0.166187 0.270960 0.119955
O47   O     O_R   0.831134 0.333528 0.273059 -0.295357
O48   O     O_R   0.878581 0.103805 0.332977 -0.347112
N11   N     N_R   0.849692 0.771594 0.809780 0.119934
O49   O     O_R   0.828397 0.917038 0.831816 -0.272126
O50   O     O_R   0.886492 0.700428 0.858952 -0.363152
N12   N     N_R   0.163679 0.381308 0.192962 0.103561
O51   O     O_R   0.192357 0.441988 0.147845 -0.257513
O52   O     O_R   0.124983 0.288087 0.160241 -0.359584

loop_
_geom_bond_atom_site_label_1
_geom_bond_atom_site_label_2
_geom_bond_distance
_ccdc_geom_bond_type
O17   V3    1.760015 S    
C35   C39   1.410635 A    
N1    C17   1.365389 A    
C22   C26   1.400544 A    
O43   H27   0.991506 S    
C62   C74   1.415974 A    
C83   H19   1.073836 S    
O19   V1    1.764025 S    
O13   V1    1.973937 S    
N9    O45   1.301604 A    
O3    C7    1.318533 A    
C11   C12   1.359629 D    
C14   C46   1.416975 A    
C76   C80   1.387597 A    
C52   C84   1.404020 A    
O15   V3    1.977389 S    
O31   H23   0.989099 S    
O4    V2    2.004789 S    
N11   O50   1.300735 A    
C68   C83   1.415864 A    
C79   H11   1.083764 S    
C42   C54   1.410591 A    
O1    C5    1.318703 A    
C51   C83   1.405545 A    
C44   C71   1.430969 A    
C41   C53   1.410943 A    
C32   C60   1.413811 A    
C27   N12   1.442601 S    
C77   H9    1.084077 S    
C42   C69   1.429021 A    
O9    V1    2.011777 S    
C41   C70   1.429483 A    
N3    C39   1.447983 S    
C18   C54   1.408311 A    
N2    C38   1.442862 S    
C11   H3    1.086200 S    
O4    C8    1.318402 A    
C25   C57   1.417846 A    
C31   C35   1.421966 A    
N7    O38   1.301457 A    
C21   C37   1.397584 A    
O30   H22   0.989489 S    
C27   C59   1.416458 A    
C15   C47   1.421407 A    
O1    V3    2.005025 S    
C36   N8    1.436795 S    
C55   C80   1.394959 A    
O2    V4    2.005024 S    
C14   O22   1.349359 S    
C54   C77   1.396844 A    
C81   H17   1.074291 S    
O3    V1    2.004789 S    
C34   C38   1.409533 A    
C19   C55   1.406697 A    
C1    O15   1.327223 A    
O32   H24   0.989461 S    
C2    O16   1.325227 A    
C7    C9    1.481507 S    
O2    C6    1.318756 A    
C33   C37   1.408567 A    
O14   V2    1.973937 S    
C66   C81   1.415814 A    
C74   C78   1.386193 A    
C43   C55   1.410188 A    
C61   C66   1.432020 A    
C73   C77   1.390589 A    
C30   C58   1.416767 A    
C61   C69   1.424680 A    
C16   N4    1.368433 A    
O11   C7    1.336349 A    
C63   C68   1.431172 A    
C13   C45   1.421168 A    
O12   C8    1.336438 A    
C10   H2    1.086241 S    
C31   C59   1.413265 A    
N9    O46   1.301122 A    
O10   V2    2.011777 S    
C67   C84   1.415543 A    
C13   N1    1.369046 A    
O44   H28   0.991501 S    
N10   O48   1.301516 A    
N12   O51   1.301470 A    
O5    V1    1.982800 S    
C19   O28   1.349947 S    
C65   C69   1.417684 A    
C64   C72   1.424637 A    
O7    V3    1.988926 S    
C76   H16   1.074667 S    
C73   H13   1.075655 S    
C44   C48   1.415193 A    
O8    V4    1.988923 S    
C35   N7    1.436987 S    
C12   H4    1.086194 S    
C34   N6    1.436509 S    
C28   C60   1.417532 A    
C21   H6    1.083343 S    
O18   V4    1.760016 S    
C30   O30   1.382988 S    
N4    C40   1.445741 S    
C23   H8    1.083088 S    
C46   C50   1.409186 A    
C24   C40   1.397639 A    
C64   C67   1.430115 A    
C8    C10   1.481489 S    
C31   O31   1.383836 S    
C32   C36   1.423548 A    
C44   C56   1.410441 A    
O7    C3    1.330224 A    
O5    C1    1.330185 A    
C29   O29   1.383417 S    
C42   C46   1.415329 A    
N11   O49   1.301555 A    
C80   H12   1.083803 S    
C41   C45   1.414504 A    
O8    C4    1.329512 A    
C52   O44   1.384039 S    
C63   C75   1.417210 A    
C9    C10   1.359620 D    
O9    C5    1.336967 A    
C36   C40   1.411696 A    
C25   N10   1.438659 S    
N2    C18   1.366930 A    
C28   N11   1.437900 S    
O11   V3    2.011851 S    
C1    C60   1.487242 S    
C82   H18   1.074995 S    
C32   O32   1.383055 S    
C14   N2    1.367638 A    
C3    C58   1.490795 S    
O6    V2    1.982800 S    
N6    O36   1.301076 A    
C64   C76   1.417095 A    
C26   C58   1.419861 A    
C17   C53   1.404499 A    
N8    O39   1.301381 A    
C20   O27   1.349737 S    
N1    C37   1.443243 S    
C4    C57   1.488116 S    
C74   H14   1.075823 S    
C23   C39   1.400887 A    
C68   C72   1.419185 A    
C63   C71   1.425046 A    
N10   O47   1.301574 A    
C22   C38   1.395440 A    
C67   C71   1.419089 A    
O16   V4    1.977389 S    
C26   N9    1.437349 S    
C53   C78   1.394625 A    
C3    O13   1.328565 A    
C49   O41   1.383541 S    
C17   O26   1.350080 S    
C84   H20   1.073369 S    
C24   H7    1.083432 S    
C48   C52   1.409348 A    
C16   C48   1.420094 A    
C47   C51   1.410149 A    
O6    C2    1.328255 A    
N12   O52   1.300743 A    
C21   C25   1.401997 A    
C5    C11   1.481599 S    
O12   V4    2.011852 S    
C62   C65   1.426200 A    
C6    C12   1.481521 S    
C78   H10   1.083757 S    
C23   C27   1.405676 A    
C65   C82   1.414138 A    
C62   C70   1.423273 A    
C24   C28   1.402501 A    
C33   N5    1.436889 S    
C49   C81   1.406459 A    
O10   C6    1.336847 A    
N5    O34   1.301113 A    
C61   C73   1.418009 A    
O41   H25   0.990843 S    
O29   H21   0.989230 S    
C43   C47   1.414488 A    
N8    O40   1.300485 A    
C15   N3    1.370694 A    
C30   C34   1.422476 A    
C2    C59   1.479863 S    
C29   C33   1.421402 A    
O20   V2    1.764026 S    
C29   C57   1.417617 A    
C43   C72   1.430855 A    
C66   C70   1.419659 A    
N3    C19   1.367162 A    
C50   C82   1.402377 A    
C75   H15   1.075016 S    
C56   C79   1.395807 A    
C9    H1    1.086263 S    
O42   H26   0.991851 S    
C51   O43   1.383967 S    
N4    C20   1.367329 A    
C20   C56   1.408226 A    
N6    O35   1.301000 A    
C22   H5    1.083537 S    
C18   O25   1.349694 S    
C4    O14   1.327968 A    
N7    O37   1.301235 A    
C13   O21   1.348815 S    
C75   C79   1.388829 A    
C50   O42   1.384037 S    
N5    O33   1.301290 A    
C15   O23   1.348801 S    
C45   C49   1.410330 A    
C16   O24   1.348866 S    
