data_mof_unit_65247.cif
_audit_creation_date              2012-12-10T17:33:09-0500
_audit_creation_method            fapswitch 2.2
_symmetry_space_group_name_H-M    P1
_symmetry_Int_Tables_number       1
_space_group_crystal_system       triclinic
_cell_length_a                    21.41293
_cell_length_b                    25.058883
_cell_length_c                    25.07547
_cell_angle_alpha                 100.51677
_cell_angle_beta                  115.270446
_cell_angle_gamma                 64.677025
_cell_volume                      10998.324233

loop_
_atom_site_label
_atom_site_type_symbol
_atom_type_description
_atom_site_fract_x
_atom_site_fract_y
_atom_site_fract_z
_atom_type_partial_charge
C1    C     C_R   0.000022 0.919892 0.419916 0.830071
C2    C     C_3   0.748684 0.015402 0.553946 -0.202497
C3    C     C_3   0.750341 0.054426 0.513609 -0.156899
C4    C     C_3   0.811064 0.999964 0.500025 -0.014544
C5    C     C_3   0.071074 0.734388 0.315294 -0.416466
C6    C     C_3   0.997106 0.811111 0.237001 -0.435840
C7    C     C_3   0.993240 0.763773 0.187666 -0.456076
C8    C     C_1   0.000032 0.624551 0.124945 -0.177652
C9    C     C_3   0.997357 0.790524 0.292023 0.291776
C10   C     C_3   0.073821 0.685584 0.266789 0.032140
C11   C     C_3   0.999717 0.707030 0.210040 0.257417
C12   C     C_R   0.879382 0.000005 0.500005 0.795307
C13   C     C_3   0.930644 0.723780 0.225505 -0.350671
C14   C     C_3   0.926684 0.774264 0.273135 0.399803
C15   C     C_1   0.999992 0.661731 0.163082 -0.084679
C16   C     C_1   0.998690 0.837140 0.337742 -0.089377
C17   C     C_1   0.999453 0.875006 0.375178 -0.188659
C18   C     C_3   0.210682 0.053562 0.516600 -0.156369
C19   C     C_3   0.231662 0.040125 0.462599 0.236453
C20   C     C_3   0.311433 0.999646 0.500391 0.014327
C21   C     C_3   0.291733 0.012449 0.554829 -0.201843
C22   C     C_3   0.268997 0.958880 0.538436 -0.161580
C23   C     C_R   0.999994 0.080107 0.580077 0.831359
C24   C     C_3   0.289496 0.946133 0.483937 -0.203235
C25   C     C_3   0.208464 0.987075 0.445545 -0.157659
C26   C     C_3   0.189072 0.999900 0.500124 -0.013464
C27   C     C_3   0.033691 0.182108 0.769588 -0.408850
C28   C     C_3   0.914254 0.256458 0.695995 0.359456
C29   C     C_3   0.916699 0.304157 0.746456 -0.371744
C30   C     C_1   0.999681 0.375540 0.874936 -0.174891
C31   C     C_3   0.997986 0.210131 0.707446 0.309984
C32   C     C_3   0.034188 0.230479 0.817962 -0.395965
C33   C     C_3   0.998476 0.292555 0.790436 0.230576
C34   C     C_R   0.120642 0.999973 0.500025 0.795053
C35   C     C_3   0.043353 0.293478 0.756024 -0.381002
C36   C     C_3   0.046089 0.243734 0.708426 -0.000232
C37   C     C_1   0.999281 0.338139 0.837007 -0.089230
C38   C     C_1   0.999191 0.163067 0.662038 -0.089096
C39   C     C_1   0.999765 0.125025 0.624772 -0.192502
C40   C     C_R   0.419918 0.080102 0.419953 0.837201
C41   C     C_R   0.620881 0.999702 0.500275 0.801648
C42   C     C_R   0.580099 0.919828 0.580127 0.827785
C43   C     C_R   0.379738 0.999678 0.500344 0.801069
C44   C     C_R   0.079903 0.420139 0.079828 0.822183
C45   C     C_3   0.751777 0.984258 0.446177 -0.155973
C46   C     C_R   0.999864 0.580046 0.079802 0.822074
C47   C     C_R   0.919948 0.580072 0.919996 0.823582
C48   C     C_R   0.999877 0.420194 0.919949 0.820520
C49   C     C_3   0.227198 0.256384 0.305183 -0.442126
C50   C     C_3   0.262510 0.182501 0.230276 -0.374469
C51   C     C_3   0.215863 0.231061 0.182045 -0.444197
C52   C     C_1   0.125046 0.375525 0.124943 -0.177784
C53   C     C_3   0.294740 0.209142 0.291748 0.289769
C54   C     C_3   0.177156 0.304175 0.256180 -0.375346
C55   C     C_3   0.211513 0.292634 0.209726 0.289914
C56   C     C_3   0.690653 0.038129 0.460368 0.237184
C57   C     C_3   0.293722 0.289958 0.240708 0.031274
C58   C     C_3   0.342654 0.241265 0.290156 0.029101
C59   C     C_1   0.163623 0.338199 0.162982 -0.092292
C60   C     C_1   0.339071 0.162782 0.337649 -0.090224
C61   C     C_1   0.375744 0.124994 0.375188 -0.183198
C62   C     C_3   0.727137 0.820644 0.770894 -0.362223
C63   C     C_3   0.790398 0.752879 0.703469 0.038184
C64   C     C_3   0.836934 0.700899 0.749791 0.052742
C65   C     C_1   0.875523 0.624949 0.875343 -0.184182
C66   C     C_3   0.713247 0.791725 0.708916 0.250294
C67   C     C_3   0.689210 0.999706 0.500256 0.013568
C68   C     C_3   0.776443 0.772624 0.820169 0.041864
C69   C     C_3   0.796374 0.709212 0.792144 0.280685
C70   C     C_3   0.720062 0.703952 0.752723 -0.515019
C71   C     C_3   0.672882 0.750776 0.702809 -0.465100
C72   C     C_1   0.839414 0.662747 0.837900 -0.084737
C73   C     C_1   0.664724 0.837550 0.662606 -0.085390
C74   C     C_1   0.625747 0.875068 0.624886 -0.185478
C75   C     C_3   0.750113 0.945400 0.486684 -0.201840
C76   C     C_3   0.810498 0.961031 0.540435 -0.161423
Cu1   Cu    Cu3+1 0.041320 0.958650 0.541310 0.935150
Cu2   Cu    Cu3+1 0.958680 0.041350 0.458690 0.939093
Cu3   Cu    Cu3+1 0.500040 0.041270 0.541360 0.936743
Cu4   Cu    Cu3+1 0.500060 0.958620 0.458750 0.936324
Cu5   Cu    Cu3+1 0.062630 0.500130 0.999860 0.945047
Cu6   Cu    Cu3+1 0.937130 0.500110 0.999890 0.945255
H1    H     H_    0.049234 0.818622 0.249404 0.172571
H2    H     H_    0.939318 0.782012 0.148913 0.180549
H3    H     H_    0.932419 0.683812 0.240387 0.161529
H4    H     H_    0.177031 0.097611 0.529595 0.128918
H5    H     H_    0.327042 0.022640 0.599580 0.144054
H6    H     H_    0.002691 0.228965 0.842917 0.167803
H7    H     H_    0.003553 0.156505 0.771863 0.165381
H8    H     H_    0.749014 0.900749 0.475857 0.144867
H9    H     H_    0.889883 0.349505 0.728064 0.157267
H10   H     H_    0.021737 0.264413 0.664676 0.156058
H11   H     H_    0.100916 0.288943 0.787706 0.185185
H12   H     H_    0.091904 0.149048 0.778994 0.178579
H13   H     H_    0.016481 0.337090 0.734091 0.141558
H14   H     H_    0.120048 0.303445 0.234323 0.169249
H15   H     H_    0.225902 0.161986 0.230999 0.168229
H16   H     H_    0.241890 0.220295 0.149298 0.161356
H17   H     H_    0.360499 0.262489 0.334089 0.164933
H18   H     H_    0.169993 0.348741 0.276042 0.170864
H19   H     H_    0.746440 0.027953 0.598098 0.145405
H20   H     H_    0.752622 0.852702 0.776169 0.179045
H21   H     H_    0.777536 0.732397 0.658768 0.123375
H22   H     H_    0.834426 0.660168 0.723758 0.118698
H23   H     H_    0.616733 0.777339 0.704522 0.187786
H24   H     H_    0.663371 0.728145 0.659247 0.173687
H25   H     H_    0.672250 0.847095 0.774873 0.140365
H26   H     H_    0.751386 0.099108 0.524259 0.130259
H27   H     H_    0.120406 0.745974 0.328247 0.146359
H28   H     H_    0.949883 0.854174 0.220169 0.180144
O1    O     O_R   0.034890 0.904800 0.474600 -0.582289
O2    O     O_R   0.439770 0.025360 0.404880 -0.581144
O3    O     O_R   0.591620 0.034840 0.534930 -0.591176
O4    O     O_R   0.591640 0.965040 0.465170 -0.590795
O5    O     O_R   0.560340 0.974530 0.595230 -0.584420
O6    O     O_R   0.560360 0.904730 0.525470 -0.584886
O7    O     O_R   0.408470 0.034850 0.534940 -0.590891
O8    O     O_R   0.408490 0.965050 0.465180 -0.591760
O9    O     O_R   0.113190 0.439800 0.060140 -0.581716
O10   O     O_R   0.007210 0.439780 0.060160 -0.581267
O11   O     O_R   0.052870 0.560410 0.060140 -0.581513
O12   O     O_R   0.965100 0.974640 0.404830 -0.583164
O13   O     O_R   0.946890 0.560400 0.060170 -0.581272
O14   O     O_R   0.992540 0.560460 0.939590 -0.582521
O15   O     O_R   0.886560 0.560450 0.939620 -0.581607
O16   O     O_R   0.052860 0.439850 0.939580 -0.581735
O17   O     O_R   0.946880 0.439830 0.939610 -0.581875
O18   O     O_R   0.943320 0.965090 0.534890 -0.591469
O19   O     O_R   0.873530 0.034930 0.465120 -0.588931
O20   O     O_R   0.034900 0.025360 0.595170 -0.581801
O21   O     O_R   0.965110 0.095200 0.525400 -0.583596
O22   O     O_R   0.126470 0.965070 0.534880 -0.591711
O23   O     O_R   0.056680 0.034910 0.465110 -0.589110
O24   O     O_R   0.439750 0.095160 0.474640 -0.581789
C77   C     C_3   0.621502 0.081789 0.415027 -0.915240
H29   H     H_    0.639007 0.103613 0.392411 0.241359
H30   H     H_    0.587850 0.058185 0.381969 0.233935
H31   H     H_    0.586634 0.115736 0.437289 0.233045
H32   H     H_    0.039350 0.753175 0.172774 0.172739
C78   C     C_3   0.924461 0.753235 0.326613 -0.874228
H33   H     H_    0.972925 0.711668 0.345814 0.216043
H34   H     H_    0.923639 0.787336 0.361773 0.237462
H35   H     H_    0.873129 0.744298 0.312816 0.228388
C79   C     C_3   0.851941 0.828617 0.246749 -0.865833
H36   H     H_    0.848872 0.866314 0.278060 0.235623
H37   H     H_    0.844916 0.843186 0.204626 0.216056
H38   H     H_    0.803032 0.817561 0.236807 0.227717
H39   H     H_    0.077520 0.718161 0.356451 0.183514
C80   C     C_3   0.092587 0.625863 0.290892 -0.902990
H40   H     H_    0.049367 0.628242 0.305477 0.239935
H41   H     H_    0.097764 0.590753 0.257025 0.242626
H42   H     H_    0.147373 0.612645 0.329343 0.234218
H43   H     H_    0.878832 0.737517 0.184310 0.151956
C81   C     C_3   0.211758 0.086129 0.419647 -0.913917
H44   H     H_    0.149792 0.109052 0.398190 0.238763
H45   H     H_    0.236315 0.118884 0.443705 0.234069
H46   H     H_    0.234566 0.064319 0.385427 0.232269
H47   H     H_    0.753999 0.971877 0.401998 0.129658
H48   H     H_    0.283409 0.925305 0.569764 0.147519
H49   H     H_    0.322967 0.902113 0.470768 0.144625
H50   H     H_    0.173006 0.977080 0.400756 0.129262
C82   C     C_3   0.875620 0.287856 0.635412 -0.887899
H51   H     H_    0.815530 0.316123 0.626044 0.236146
H52   H     H_    0.901265 0.317657 0.634431 0.205868
H53   H     H_    0.877933 0.255358 0.598979 0.241608
C83   C     C_3   0.863931 0.226089 0.695240 -0.854755
H54   H     H_    0.882024 0.207956 0.738987 0.212563
H55   H     H_    0.804920 0.258485 0.683725 0.228850
H56   H     H_    0.863720 0.189972 0.662177 0.234138
H57   H     H_    0.883932 0.304706 0.771265 0.163618
C84   C     C_3   0.128223 0.203466 0.717599 -0.899153
H58   H     H_    0.161712 0.185064 0.762906 0.242954
H59   H     H_    0.130938 0.166694 0.685273 0.241278
H60   H     H_    0.155154 0.229554 0.710862 0.232437
H61   H     H_    0.093053 0.221241 0.849827 0.172812
H62   H     H_    0.192776 0.235158 0.308596 0.178245
H63   H     H_    0.308296 0.146696 0.219122 0.171478
H64   H     H_    0.861017 0.929180 0.573519 0.148575
H65   H     H_    0.158336 0.231432 0.157903 0.177239
C85   C     C_3   0.415960 0.198980 0.282639 -0.935053
H66   H     H_    0.451562 0.165465 0.318343 0.251818
H67   H     H_    0.404289 0.176174 0.239366 0.239488
H68   H     H_    0.448758 0.224412 0.285139 0.240201
C86   C     C_3   0.298050 0.349800 0.265829 -0.935027
H69   H     H_    0.357359 0.345244 0.284094 0.239414
H70   H     H_    0.265095 0.383979 0.230796 0.250422
H71   H     H_    0.277191 0.365134 0.301788 0.238791
H72   H     H_    0.247822 0.277718 0.348445 0.162972
H73   H     H_    0.317158 0.278086 0.206109 0.165123
C87   C     C_3   0.843595 0.785670 0.867001 -0.889348
H74   H     H_    0.822963 0.823786 0.894290 0.224234
H75   H     H_    0.884715 0.747569 0.897003 0.247480
H76   H     H_    0.872425 0.798155 0.846885 0.237518
C88   C     C_3   0.833537 0.789796 0.705096 -0.867821
H77   H     H_    0.853629 0.809726 0.749002 0.240185
H78   H     H_    0.882545 0.761776 0.693608 0.232822
H79   H     H_    0.797510 0.825769 0.671915 0.230099
C89   C     C_3   0.922357 0.685759 0.780491 -0.857264
H80   H     H_    0.951178 0.646957 0.809918 0.236499
H81   H     H_    0.947078 0.673332 0.746856 0.223060
H82   H     H_    0.935919 0.722656 0.806661 0.252243
H83   H     H_    0.687661 0.710026 0.779806 0.185186
H84   H     H_    0.741483 0.776035 0.844227 0.145614
H85   H     H_    0.729516 0.659055 0.732950 0.179104
H86   H     H_    0.121151 0.678825 0.254760 0.156081

loop_
_geom_bond_atom_site_label_1
_geom_bond_atom_site_label_2
_ccdc_geom_bond_type
C70   H83   S    
C77   H31   S    
C88   H78   S    
C84   H58   S    
C21   H5    S    
C87   H74   S    
C64   C89   S    
Cu5   O16   S    
C18   C21   S    
C11   C13   S    
C73   C74   T    
C35   C36   S    
C18   C26   S    
C78   H35   S    
Cu6   O10   S    
C41   O4    A    
Cu2   O21   S    
C56   C77   S    
C6    C9    S    
Cu5   Cu6   S    
C57   C58   S    
C28   C82   S    
C77   H29   S    
C41   C67   S    
Cu1   Cu2   S    
C7    C11   S    
C84   H59   S    
C18   H4    S    
C30   C48   S    
C28   C29   S    
C9    C16   S    
C78   H34   S    
Cu3   O5    S    
C80   H41   S    
C10   C80   S    
C38   C39   T    
C23   C39   S    
C88   H79   S    
C22   H48   S    
C44   O10   A    
C49   C54   S    
C32   H6    S    
C29   C33   S    
C86   H69   S    
C77   H30   S    
C18   C19   S    
Cu1   O1    S    
C1    O12   A    
C87   H76   S    
C11   C15   S    
C26   C34   S    
Cu4   O6    S    
C45   C56   S    
C25   H50   S    
C16   C17   T    
C36   C84   S    
C46   O11   A    
C70   C71   S    
C29   H57   S    
C4    C12   S    
C54   H14   S    
C75   H8    S    
C85   H68   S    
C28   C83   S    
C36   H10   S    
C51   H16   S    
C88   H77   S    
C57   H73   S    
C63   C66   S    
C34   O22   A    
C5    H39   S    
C21   C22   S    
C68   H84   S    
C83   H55   S    
C6    H28   S    
C54   H18   S    
C79   H38   S    
C51   H65   S    
C32   H61   S    
C53   C60   S    
C85   H67   S    
C47   O15   A    
C14   C79   S    
C4    C45   S    
C35   H11   S    
C70   H85   S    
C84   H60   S    
Cu4   O8    S    
C42   C74   S    
C50   C53   S    
C12   O19   A    
C62   C66   S    
Cu5   O14   S    
C27   C31   S    
C20   C24   S    
C50   H63   S    
C78   H33   S    
C81   H46   S    
C79   H37   S    
C2    C67   S    
C80   H42   S    
C41   O3    A    
C9    C14   S    
C68   C69   S    
C62   H25   S    
C44   O9    A    
C25   C26   S    
C66   C73   S    
C40   O24   A    
C33   C37   S    
C40   C61   S    
C63   C64   S    
C30   C37   T    
Cu5   O11   S    
C60   C61   T    
Cu1   O22   S    
C69   C72   S    
C75   C76   S    
Cu6   O15   S    
C5    C9    S    
C52   C59   T    
C82   H53   S    
C3    C56   S    
C45   H47   S    
C66   C71   S    
C68   C87   S    
Cu4   O2    S    
C89   H82   S    
C50   C51   S    
C63   C88   S    
C23   O21   A    
C64   C69   S    
C24   C25   S    
C13   H43   S    
C81   H44   S    
C89   H80   S    
Cu1   O18   S    
C43   O7    A    
C63   H21   S    
Cu4   O4    S    
C8    C15   T    
C7    H2    S    
C55   C57   S    
C83   H54   S    
C22   C24   S    
C46   O13   A    
C67   C75   S    
C3    C4    S    
C65   C72   T    
C55   C59   S    
Cu6   O13   S    
C29   H9    S    
C20   C43   S    
C2    C76   S    
C85   H66   S    
C82   H51   S    
C71   H23   S    
C42   O6    A    
C64   H22   S    
Cu3   O24   S    
C54   C55   S    
C50   H15   S    
C87   H75   S    
C6    H1    S    
C27   C32   S    
C81   H45   S    
Cu2   O19   S    
C28   C31   S    
C58   H17   S    
C14   C78   S    
C79   H36   S    
C89   H81   S    
C53   C58   S    
C24   H49   S    
C31   C38   S    
C6    C7    S    
C12   O18   A    
C35   H13   S    
C3    H26   S    
C56   C67   S    
Cu5   O9    S    
C76   H64   S    
C2    H19   S    
C86   H71   S    
C62   C68   S    
C45   C75   S    
C32   C33   S    
C19   C20   S    
Cu3   O3    S    
C2    C3    S    
C34   O23   A    
C5    C10   S    
C82   H52   S    
C80   H40   S    
C1    O1    A    
C48   O17   A    
C7    H32   S    
C19   C25   S    
C40   O2    A    
C44   C52   S    
C47   O14   A    
C49   H72   S    
C5    H27   S    
C49   C53   S    
Cu3   O7    S    
C33   C35   S    
C86   H70   S    
C27   H7    S    
C51   C55   S    
Cu1   O20   S    
C57   C86   S    
C69   C70   S    
Cu2   O12   S    
Cu2   O23   S    
C10   H86   S    
Cu6   O17   S    
C4    C76   S    
C10   C11   S    
C43   O8    A    
C48   O16   A    
Cu3   Cu4   S    
C42   O5    A    
C1    C17   S    
C23   O20   A    
C83   H56   S    
C20   C21   S    
C22   C26   S    
C71   H24   S    
C13   H3    S    
C19   C81   S    
C31   C36   S    
C27   H12   S    
C58   C85   S    
C8    C46   S    
C13   C14   S    
C47   C65   S    
C49   H62   S    
C62   H20   S    
