data_mof_unit_24700.cif
_audit_creation_date              2012-12-11T15:52:28-0500
_audit_creation_method            fapswitch 2.2
_symmetry_space_group_name_H-M    P1
_symmetry_Int_Tables_number       1
_space_group_crystal_system       triclinic
_cell_length_a                    11.758773
_cell_length_b                    11.610918
_cell_length_c                    18.769707
_cell_angle_alpha                 90.358827
_cell_angle_beta                  89.811315
_cell_angle_gamma                 120.297031
_cell_volume                      2212.58768925

loop_
_atom_site_label
_atom_site_type_symbol
_atom_type_description
_atom_site_fract_x
_atom_site_fract_y
_atom_site_fract_z
_atom_type_partial_charge
C1    C     C_R   0.522091 0.454978 0.147611 0.539057
C2    C     C_3   0.949347 0.661033 0.464995 0.059959
C3    C     C_3   0.701372 0.017253 0.445724 0.053823
C4    C     C_3   0.282770 0.419622 0.435410 0.037283
C5    C     C_R   0.527980 0.458704 0.355874 0.516366
C6    C     C_R   0.539375 0.058779 0.349944 0.525423
C7    C     C_R   0.929053 0.473301 0.355172 0.540196
C8    C     C_R   0.452938 0.528336 0.644915 0.543719
C9    C     C_R   0.062583 0.539200 0.648697 0.543099
C10   C     C_R   0.470350 0.920070 0.642875 0.533188
C11   C     C_R   0.497772 0.971508 0.927343 0.027517
C12   C     C_R   0.546037 0.068014 0.147629 0.530842
C13   C     C_R   0.043308 0.529983 0.930612 0.025557
C14   C     C_R   0.469476 0.513957 0.930726 0.020971
C15   C     C_R   0.998999 0.500251 0.078790 0.015301
C16   C     C_R   0.511385 0.017066 0.075384 0.017504
C17   C     C_R   0.501256 0.499122 0.078645 0.014317
C18   C     C_R   0.458950 0.057018 0.956166 -0.006657
C19   C     C_R   0.999615 0.406571 0.962580 0.005584
C20   C     C_R   0.593120 0.589569 0.962162 0.005727
C21   C     C_R   0.975758 0.391547 0.035304 0.008964
C22   C     C_R   0.465788 0.079197 0.028836 0.019753
C23   C     C_R   0.933286 0.478429 0.147654 0.533416
C24   C     C_R   0.608982 0.580544 0.034686 0.011890
C25   C     C_R   0.562098 0.941105 0.046119 -0.165733
C26   C     C_R   0.063558 0.627973 0.048675 -0.163699
C27   C     C_R   0.374413 0.440709 0.049208 -0.169188
C28   C     C_R   0.084798 0.642439 0.975269 -0.148481
C29   C     C_R   0.554960 0.918165 0.972976 -0.145704
C30   C     C_R   0.358726 0.447688 0.975871 -0.154484
C31   C     C_3   0.335016 0.061209 0.948602 -0.281278
C32   C     C_3   0.879626 0.276022 0.945845 -0.281024
C33   C     C_3   0.718485 0.592628 0.944527 -0.281047
C34   C     C_R   0.448901 0.524736 0.854970 0.540991
C35   C     C_3   0.852925 0.259513 0.025308 -0.240259
C36   C     C_3   0.340134 0.082133 0.028852 -0.258868
C37   C     C_3   0.736027 0.582462 0.023849 -0.240561
C38   C     C_R   0.464435 0.947378 0.566574 0.024235
C39   C     C_R   0.008383 0.487635 0.578465 0.005255
C40   C     C_R   0.493169 0.546762 0.570510 -0.002164
C41   C     C_R   0.977423 0.471564 0.428323 -0.014266
C42   C     C_R   0.482262 0.981743 0.415815 -0.018395
C43   C     C_R   0.530118 0.530149 0.424896 -0.054935
C44   C     C_R   0.553692 0.934696 0.525136 -0.041275
C45   C     C_R   0.074902 0.550397 0.854817 0.537615
C46   C     C_R   0.026412 0.588355 0.537606 -0.018202
C47   C     C_R   0.397822 0.517148 0.521868 -0.022349
C48   C     C_R   0.005565 0.576990 0.467634 -0.087210
C49   C     C_R   0.558936 0.948967 0.452748 -0.017782
C50   C     C_R   0.417163 0.515616 0.450242 -0.019409
C51   C     C_R   0.379673 0.983691 0.453349 0.089070
C52   C     C_R   0.979826 0.363207 0.464737 0.170831
C53   C     C_R   0.641560 0.626139 0.469050 0.118648
C54   C     C_R   0.984357 0.366020 0.544040 0.158795
C55   C     C_R   0.365388 0.962989 0.529730 0.134109
C56   C     C_R   0.477339 0.928571 0.853415 0.541385
C57   C     C_R   0.620204 0.637077 0.544826 0.163631
C58   C     C_3   0.279418 0.114026 0.414419 -0.266026
C59   C     C_3   0.006531 0.161068 0.442061 -0.346608
C60   C     C_3   0.858804 0.843655 0.473044 -0.222151
C61   C     C_3   0.920841 0.223432 0.658259 -0.257857
C62   C     C_3   0.241567 0.006952 0.630657 -0.273635
C63   C     C_3   0.775270 0.794417 0.643667 -0.242355
C64   C     C_3   0.674431 0.234187 0.511915 -0.312531
C65   C     C_3   0.745754 0.487347 0.593887 -0.312312
C66   C     C_3   0.391546 0.277774 0.552143 -0.321152
C67   C     C_3   0.697597 0.027045 0.526608 -0.001610
C68   C     C_3   0.028750 0.818337 0.354338 -0.243066
C69   C     C_3   0.790020 0.964647 0.332470 -0.263846
C70   C     C_3   0.256745 0.524874 0.328414 -0.305856
C71   C     C_3   0.968552 0.672410 0.546059 0.029222
C72   C     C_3   0.269486 0.402252 0.517342 0.030414
Cr1   Cr    Cr6+3 0.769160 0.541570 0.250690 0.962377
Cr2   Cr    Cr6+3 0.458430 0.227590 0.250690 0.968691
Cr3   Cr    Cr6+3 0.772410 0.230840 0.250690 0.962239
Cr4   Cr    Cr6+3 0.541570 0.769160 0.749310 0.960331
Cr5   Cr    Cr6+3 0.227590 0.458430 0.749310 0.976344
Cr6   Cr    Cr6+3 0.230840 0.772410 0.749310 0.970699
H1    H     H_    0.250048 0.965206 0.930620 0.144516
H2    H     H_    0.861597 0.176291 0.048311 0.150469
H3    H     H_    0.259501 0.996408 0.057854 0.128948
H4    H     H_    0.821273 0.673758 0.046574 0.148721
H5    H     H_    0.757077 0.998928 0.558614 0.141468
H6    H     H_    0.040283 0.769746 0.564885 0.173622
H7    H     H_    0.206501 0.429022 0.546459 0.167708
H8    H     H_    0.848608 0.598630 0.445143 0.209080
H9    H     H_    0.761749 0.120631 0.429157 0.247175
H10   H     H_    0.264131 0.331509 0.404258 0.173940
H11   H     H_    0.606955 0.899351 0.079685 0.132484
H12   H     H_    0.904513 0.202838 0.923098 0.140675
H13   H     H_    0.087782 0.715473 0.080586 0.128439
H14   H     H_    0.288004 0.380947 0.081606 0.134641
H15   H     H_    0.130519 0.741682 0.953375 0.136022
H16   H     H_    0.589287 0.853475 0.952645 0.150103
H17   H     H_    0.259699 0.397854 0.954408 0.148806
H18   H     H_    0.273252 0.954384 0.361440 0.264764
H19   H     H_    0.241795 0.128139 0.363066 0.148017
H20   H     H_    0.378311 0.198553 0.424659 0.203698
H21   H     H_    0.208249 0.102384 0.455358 0.151476
H22   H     H_    0.025560 0.297774 0.369389 0.290200
H23   H     H_    0.793409 0.689893 0.921655 0.139336
H24   H     H_    0.017098 0.108952 0.395353 0.104813
H25   H     H_    0.930417 0.097423 0.478144 0.167948
H26   H     H_    0.094666 0.195231 0.470322 0.163591
H27   H     H_    0.752135 0.730839 0.382070 0.266897
H28   H     H_    0.935450 0.911682 0.437408 0.152708
H29   H     H_    0.903112 0.826477 0.518150 0.181805
H30   H     H_    0.819732 0.898506 0.496524 0.176799
H31   H     H_    0.018763 0.205586 0.571060 0.228717
H32   H     H_    0.845936 0.116059 0.661029 0.121893
H33   H     H_    0.875177 0.282461 0.675629 0.145791
H34   H     H_    0.762798 0.261834 0.040857 0.148456
H35   H     H_    0.998754 0.236980 0.696346 0.156180
H36   H     H_    0.183130 0.949958 0.527930 0.264823
H37   H     H_    0.183736 0.057112 0.624523 0.081844
H38   H     H_    0.340649 0.079543 0.651754 0.157169
H39   H     H_    0.183361 0.927389 0.669817 0.189443
H40   H     H_    0.628602 0.799026 0.586423 0.280905
H41   H     H_    0.880777 0.847393 0.629189 0.095839
H42   H     H_    0.749352 0.706104 0.676698 0.173582
H43   H     H_    0.764179 0.865442 0.678745 0.143499
H44   H     H_    0.699512 0.157473 0.604526 0.258916
H45   H     H_    0.355757 0.181553 0.044284 0.164251
H46   H     H_    0.757684 0.333761 0.503204 0.144031
H47   H     H_    0.593634 0.235371 0.541260 0.105909
H48   H     H_    0.642905 0.204291 0.457515 0.144562
H49   H     H_    0.888202 0.647546 0.646607 0.262457
H50   H     H_    0.671227 0.480415 0.632607 0.130231
H51   H     H_    0.773442 0.415172 0.613218 0.142067
H52   H     H_    0.700011 0.465841 0.540808 0.141571
H53   H     H_    0.209542 0.241571 0.587400 0.263962
H54   H     H_    0.430698 0.300875 0.607155 0.144117
H55   H     H_    0.468357 0.339142 0.513265 0.119799
H56   H     H_    0.729954 0.487056 0.039056 0.145696
H57   H     H_    0.372497 0.179483 0.540759 0.174837
H58   H     H_    0.135246 0.792963 0.433736 0.286846
H59   H     H_    0.084784 0.793401 0.315459 0.148911
H60   H     H_    0.066519 0.926148 0.350336 0.095979
H61   H     H_    0.926880 0.773030 0.336332 0.179468
H62   H     H_    0.642583 0.830096 0.397129 0.271344
H63   H     H_    0.716790 0.923633 0.288461 0.161195
H64   H     H_    0.855686 0.923569 0.325055 0.076201
H65   H     H_    0.851495 0.073864 0.326138 0.192306
H66   H     H_    0.242171 0.577505 0.432772 0.255887
H67   H     H_    0.350770 0.149972 0.918188 0.143685
H68   H     H_    0.199256 0.569441 0.307785 0.146588
H69   H     H_    0.228462 0.432064 0.297782 0.156660
H70   H     H_    0.363146 0.597210 0.320234 0.147469
H71   H     H_    0.804598 0.287051 0.915484 0.132846
H72   H     H_    0.702382 0.503294 0.913884 0.132510
N1    N     N_2   0.286283 0.995438 0.411629 -0.543518
N2    N     N_2   0.044100 0.781606 0.427008 -0.517373
N3    N     N_2   0.723021 0.925479 0.401434 -0.527498
N4    N     N_2   0.228969 0.495818 0.403571 -0.539015
N5    N     N_2   0.986661 0.266543 0.419357 -0.498864
N6    N     N_2   0.758894 0.724442 0.435888 -0.500909
N7    N     N_2   0.975075 0.257624 0.586470 -0.495867
N8    N     N_2   0.248141 0.947703 0.563221 -0.519336
N9    N     N_2   0.690691 0.762808 0.580981 -0.501678
N10   N     N_2   0.719643 0.157082 0.551163 -0.502039
N11   N     N_2   0.856885 0.620312 0.594916 -0.520966
N12   N     N_2   0.271020 0.284115 0.544770 -0.551943
O1    O     O_R   0.911480 0.572650 0.170990 -0.539053
O2    O     O_R   0.528970 0.640340 0.824320 -0.509195
O3    O     O_R   0.111370 0.471030 0.824320 -0.513911
O4    O     O_R   0.359660 0.888630 0.824320 -0.513669
O5    O     O_R   0.909980 0.572450 0.331530 -0.537175
O6    O     O_R   0.427550 0.337530 0.331530 -0.556442
O7    O     O_R   0.662470 0.090020 0.331530 -0.544250
O8    O     O_R   0.572450 0.909980 0.668470 -0.566401
O9    O     O_R   0.337530 0.427550 0.668470 -0.522770
O10   O     O_R   0.090020 0.662470 0.668470 -0.538373
O11   O     O_R   0.638950 0.528780 0.324500 -0.523891
O12   O     O_R   0.427350 0.338830 0.170990 -0.531141
O13   O     O_R   0.471220 0.110170 0.324500 -0.509702
O14   O     O_R   0.889830 0.361050 0.324500 -0.519905
O15   O     O_R   0.528780 0.638950 0.675500 -0.522522
O16   O     O_R   0.110170 0.471220 0.675500 -0.511598
O17   O     O_R   0.361050 0.889830 0.675500 -0.496621
O18   O     O_3   0.666667 0.333333 0.250560 -0.274563
O19   O     O_3   0.333333 0.666667 0.749440 -0.284369
O20   O     O_R   0.661170 0.088520 0.170990 -0.539297
O21   O     O_R   0.572650 0.911480 0.829010 -0.531953
O22   O     O_R   0.338830 0.427350 0.829010 -0.533502
O23   O     O_R   0.088520 0.661170 0.829010 -0.539374
O24   O     O_R   0.640340 0.528970 0.175680 -0.507172
O25   O     O_R   0.471030 0.111370 0.175680 -0.506698
O26   O     O_R   0.888630 0.359660 0.175680 -0.507127

loop_
_geom_bond_atom_site_label_1
_geom_bond_atom_site_label_2
_ccdc_geom_bond_type
C44   C49   A    
C40   C47   A    
C4    N4    S    
C11   C18   A    
C67   H5    S    
C68   H60   S    
Cr3   O26   S    
C58   H20   S    
C63   N9    S    
Cr1   O5    S    
H31   N7    S    
Cr2   O6    S    
Cr1   O24   S    
C3    C49   S    
C1    O24   A    
C52   N5    S    
C62   H38   S    
C33   H23   S    
C59   H26   S    
C19   C21   A    
Cr2   O12   S    
C34   O2    A    
C33   H72   S    
C29   H16   S    
C68   H61   S    
C39   C54   A    
C6    O13   A    
C19   C32   S    
Cr5   O3    S    
C37   H56   S    
C35   H2    S    
C3    N3    S    
Cr5   O22   S    
C66   N12   S    
C5    O6    A    
C20   C24   A    
H36   N8    S    
C62   H39   S    
H58   N2    S    
Cr1   O18   S    
C8    O15   A    
C43   C53   A    
C9    C39   S    
C32   H12   S    
C38   C55   A    
C12   C16   S    
Cr3   O7    S    
Cr5   O19   S    
C62   N8    S    
C13   C28   A    
C34   O22   A    
C67   N10   S    
C70   H68   S    
Cr4   O21   S    
C41   C52   A    
C23   O1    A    
C60   H30   S    
C8    O9    A    
H62   N3    S    
C15   C23   S    
C5    C43   S    
C51   N1    S    
H49   N11   S    
C70   N4    S    
C57   N9    S    
C27   C30   A    
C25   C29   A    
H40   N9    S    
C58   H19   S    
C14   C30   A    
C61   H32   S    
C26   C28   A    
C63   H43   S    
C52   C54   A    
C72   H7    S    
C47   C50   A    
C66   H54   S    
C55   N8    S    
C2    N2    S    
C68   H59   S    
C1    O12   A    
Cr6   O4    S    
C17   C24   A    
C32   H71   S    
C3    H9    S    
Cr6   O17   S    
C17   C27   A    
C32   C35   S    
C14   C20   A    
C36   H45   S    
C72   N12   S    
Cr4   O15   S    
C53   C57   A    
C15   C26   A    
H53   N12   S    
C2    C48   S    
C26   H13   S    
C64   H46   S    
C12   O25   A    
C69   N3    S    
C18   C31   S    
C4    C50   S    
C28   H15   S    
C65   H50   S    
C38   C44   A    
C30   H17   S    
C68   N2    S    
C61   N7    S    
C66   H55   S    
C63   H41   S    
Cr1   O11   S    
C15   C21   A    
C36   H3    S    
Cr5   O9    S    
C7    O14   A    
C64   N10   S    
Cr6   O10   S    
C24   C37   S    
C27   H14   S    
Cr6   O23   S    
C12   O20   A    
Cr4   O8    S    
Cr3   O18   S    
C9    O16   A    
C46   C71   S    
C60   H29   S    
C35   H34   S    
C39   C46   A    
C21   C35   S    
C20   C33   S    
H22   N5    S    
C64   H48   S    
C61   H35   S    
C37   H4    S    
Cr4   O2    S    
C70   H70   S    
C10   O17   A    
C56   O4    A    
Cr4   O19   S    
C61   H33   S    
C4    C72   S    
C60   H28   S    
C58   N1    S    
C71   H6    S    
C16   C25   A    
C7    O5    A    
C16   C22   A    
C40   C57   A    
C71   N11   S    
Cr3   O14   S    
C18   C22   A    
C59   H24   S    
C5    O11   A    
C3    C67   S    
C58   H21   S    
C9    O10   A    
C14   C34   S    
C65   H51   S    
C43   C50   A    
C31   H1    S    
C4    H10   S    
C56   O21   A    
C69   H65   S    
C22   C36   S    
C42   C51   A    
C25   H11   S    
Cr5   O16   S    
C59   N5    S    
C65   H52   S    
C10   C38   S    
Cr6   O19   S    
C59   H25   S    
C69   H64   S    
Cr2   O13   S    
Cr1   O1    S    
C54   N7    S    
C13   C45   S    
C63   H42   S    
H18   N1    S    
C45   O23   A    
C23   O26   A    
C45   O3    A    
C10   O8    A    
C41   C48   A    
C2    H8    S    
C51   C55   A    
C60   N6    S    
C7    C41   S    
H66   N4    S    
C33   C37   S    
C47   C72   S    
Cr2   O25   S    
C42   C49   A    
C66   H57   S    
C31   H67   S    
C46   C48   A    
C62   H37   S    
H27   N6    S    
Cr2   O18   S    
C1    C17   S    
C11   C29   A    
C53   N6    S    
C64   H47   S    
C6    C42   S    
C65   N11   S    
C13   C19   A    
H44   N10   S    
C31   C36   S    
C44   C67   S    
C70   H69   S    
C8    C40   S    
Cr3   O20   S    
C69   H63   S    
C11   C56   S    
C2    C71   S    
C6    O7    A    
