data_mof_unit_64734.cif
_audit_creation_date              2012-12-10T21:00:18-0500
_audit_creation_method            fapswitch 2.2
_symmetry_space_group_name_H-M    P1
_symmetry_Int_Tables_number       1
_space_group_crystal_system       triclinic
_cell_length_a                    15.849794
_cell_length_b                    15.079458
_cell_length_c                    15.793006
_cell_angle_alpha                 89.950081
_cell_angle_beta                  89.955453
_cell_angle_gamma                 90.000079
_cell_volume                      3774.62540274

loop_
_atom_site_label
_atom_site_type_symbol
_atom_type_description
_atom_site_fract_x
_atom_site_fract_y
_atom_site_fract_z
_atom_type_partial_charge
C1    C     C_R   0.338868 0.500001 0.499946 0.915830
C2    C     C_3   0.581226 0.499023 0.953075 -0.296860
C3    C     C_3   0.577910 0.512446 0.049361 -0.384911
C4    C     C_1   0.494359 0.498936 0.825503 -0.026668
C5    C     C_1   0.490792 0.500048 0.174690 0.062489
C6    C     C_1   0.495605 0.500112 0.249571 -0.060711
C7    C     C_R   0.956254 0.580126 0.508605 -0.170722
C8    C     C_R   0.956266 0.420078 0.488436 -0.171881
C9    C     C_R   0.913150 0.500090 0.498622 0.164808
C10   C     C_R   0.043756 0.420082 0.488392 -0.168686
C11   C     C_R   0.043742 0.580130 0.508561 -0.172416
C12   C     C_R   0.086857 0.500098 0.498534 0.164863
C13   C     C_1   0.824365 0.500036 0.499091 -0.060834
C14   C     C_R   0.499919 0.500038 0.337943 0.902277
C15   C     C_1   0.175638 0.500042 0.498996 -0.058808
C16   C     C_1   0.250474 0.500010 0.499468 -0.156615
C17   C     C_1   0.749526 0.500008 0.499524 -0.162160
C18   C     C_R   0.471905 0.953202 0.428972 -0.144658
C19   C     C_R   0.471905 0.046929 0.428973 -0.153687
C20   C     C_R   0.500008 0.905038 0.499973 0.068263
C21   C     C_R   0.500006 0.094963 0.499974 0.067495
C22   C     C_R   0.528104 0.953073 0.570975 -0.156543
C23   C     C_R   0.528103 0.046799 0.570975 -0.147454
C24   C     C_1   0.500015 0.807157 0.499975 0.067244
C25   C     C_1   0.500014 0.192843 0.499976 0.068219
C26   C     C_R   0.661125 0.500000 0.499934 0.904025
C27   C     C_R   0.499989 0.499948 0.662052 0.900686
C28   C     C_3   0.429792 0.580434 0.048503 -0.125398
C29   C     C_3   0.451845 0.405646 0.050034 -0.152932
C30   C     C_3   0.442727 0.413633 0.950176 -0.228300
C31   C     C_3   0.440843 0.582393 0.947978 -0.302206
C32   C     C_1   0.497339 0.499677 0.750532 -0.139399
C33   C     C_3   0.485674 0.499677 0.083035 0.094576
C34   C     C_3   0.490643 0.498179 0.917061 0.194545
H1    H     H_    0.378083 0.578721 0.917015 0.150577
H2    H     H_    0.375745 0.427250 0.934058 0.165289
H3    H     H_    0.550132 0.918056 0.626640 0.145679
H4    H     H_    0.550129 0.081714 0.626641 0.151863
H5    H     H_    0.602339 0.579545 0.064333 0.248692
H6    H     H_    0.622750 0.465848 0.080317 0.192270
H7    H     H_    0.620374 0.551748 0.923480 0.208006
H8    H     H_    0.613692 0.435671 0.938116 0.243803
H9    H     H_    0.077648 0.641995 0.516415 0.148620
H10   H     H_    0.077673 0.358200 0.480654 0.150280
H11   H     H_    0.922340 0.641990 0.516483 0.149471
H12   H     H_    0.922359 0.358194 0.480723 0.149591
H13   H     H_    0.449877 0.081948 0.373308 0.145494
H14   H     H_    0.449878 0.918286 0.373307 0.149841
N1    N     N_1   0.500020 0.270550 0.499980 -0.080851
N2    N     N_1   0.500020 0.729450 0.499980 -0.081312
O1    O     O_R   0.378020 0.573650 0.500000 -0.610145
O2    O     O_R   0.378020 0.426350 0.500000 -0.606719
O3    O     O_R   0.500000 0.573700 0.377120 -0.590554
O4    O     O_R   0.500000 0.426300 0.377120 -0.613975
O5    O     O_R   0.621980 0.573680 0.499960 -0.609096
O6    O     O_R   0.621980 0.426320 0.499960 -0.610158
O7    O     O_R   0.500000 0.573630 0.622840 -0.620168
O8    O     O_R   0.500000 0.426370 0.622840 -0.594714
Zn1   Zn    Zn3+2 0.500000 0.598370 0.499970 1.004694
Zn2   Zn    Zn3+2 0.500000 0.401630 0.499970 1.007043
C35   C     C_2   0.337418 0.568617 0.075309 0.830540
O9    O     O_2   0.281216 0.557319 0.023359 -0.616854
O10   O     O_R   0.316690 0.571850 0.161461 -0.773224
H15   H     H_    0.254174 0.563023 0.172169 0.361565
C36   C     C_2   0.366853 0.378114 0.089394 0.849286
O11   O     O_2   0.358515 0.376044 0.166432 -0.618207
O12   O     O_R   0.299355 0.350932 0.038483 -0.800140
H16   H     H_    0.247665 0.333814 0.072640 0.364491
C37   C     C_2   0.513526 0.332712 0.078699 0.349574
H17   H     H_    0.507985 0.305206 0.142066 0.099985
O13   O     O_2   0.571897 0.307018 0.034595 -0.541043
C38   C     C_2   0.453117 0.670705 0.086833 0.525629
H18   H     H_    0.418061 0.729029 0.066959 0.051231
O14   O     O_2   0.508552 0.680032 0.139721 -0.564309
C39   C     C_2   0.459786 0.326973 0.903780 0.516247
H19   H     H_    0.416616 0.271886 0.912648 0.081420
O15   O     O_2   0.521178 0.317049 0.857979 -0.538808
C40   C     C_2   0.477184 0.668249 0.911875 0.367381
H20   H     H_    0.440568 0.706106 0.866395 0.077503
O16   O     O_2   0.546771 0.695461 0.932411 -0.549258

loop_
_geom_bond_atom_site_label_1
_geom_bond_atom_site_label_2
_ccdc_geom_bond_type
O5    Zn1   S    
C26   O5    A    
O3    Zn1   S    
O4    Zn2   S    
C7    C11   A    
N1    Zn2   S    
N2    Zn1   S    
C7    H11   S    
C19   C21   A    
C37   H17   S    
C5    C6    T    
C40   O16   D    
O7    Zn1   S    
C3    C33   S    
C2    H7    S    
O8    Zn2   S    
C15   C16   T    
C29   C33   S    
C37   O13   D    
C18   C19   A    
C35   O10   S    
C9    C13   S    
O2    Zn2   S    
C20   C24   S    
C8    C9    A    
C36   O12   S    
C5    C33   S    
C11   H9    S    
C28   C35   S    
C2    C34   S    
C3    H5    S    
C28   C38   S    
C29   C37   S    
C24   N2    T    
C4    C34   S    
C30   C34   S    
C10   H10   S    
O12   H16   S    
C38   O14   D    
C27   O7    A    
C40   H20   S    
C22   H3    S    
O6    Zn2   S    
C18   H14   S    
C39   H19   S    
C29   C30   S    
C6    C14   S    
C1    O1    A    
C12   C15   S    
C31   C34   S    
C1    C16   S    
C39   O15   D    
C4    C32   T    
C10   C12   A    
C29   C36   S    
C14   O4    A    
C20   C22   A    
C28   C33   S    
C21   C23   A    
C31   H1    S    
O1    Zn1   S    
C17   C26   S    
C31   C40   S    
C7    C9    A    
C21   C25   S    
C27   C32   S    
C28   C31   S    
C38   H18   S    
C27   O8    A    
C26   O6    A    
C3    H6    S    
C11   C12   A    
C13   C17   T    
C23   H4    S    
C30   H2    S    
C2    C3    S    
C30   C39   S    
C2    H8    S    
C18   C20   A    
C35   O9    D    
C1    O2    A    
C25   N1    T    
O10   H15   S    
C14   O3    A    
C8    C10   A    
C36   O11   D    
C19   H13   S    
C22   C23   A    
C8    H12   S    
