data_mof_unit_60343.cif
_audit_creation_date              2012-12-10T20:11:12-0500
_audit_creation_method            fapswitch 2.2
_symmetry_space_group_name_H-M    P1
_symmetry_Int_Tables_number       1
_space_group_crystal_system       triclinic
_cell_length_a                    41.473645
_cell_length_b                    35.496309
_cell_length_c                    21.694195
_cell_angle_alpha                 89.940136
_cell_angle_beta                  121.062477
_cell_angle_gamma                 90.015087
_cell_volume                      27357.6870843

loop_
_atom_site_label
_atom_site_type_symbol
_atom_type_description
_atom_site_fract_x
_atom_site_fract_y
_atom_site_fract_z
_atom_type_partial_charge
C1    C     C_R   0.426548 0.499995 0.926659 0.868956
C2    C     C_R   0.826362 0.499188 0.272350 -0.196043
C3    C     C_R   0.999968 0.673809 0.555714 -0.165262
C4    C     C_R   0.500081 0.173820 0.443967 -0.165222
C5    C     C_R   0.499988 0.173809 0.555734 -0.165229
C6    C     C_R   0.000084 0.634638 0.443948 -0.200365
C7    C     C_R   0.999954 0.634629 0.555836 -0.200337
C8    C     C_R   0.500066 0.134638 0.443931 -0.200326
C9    C     C_R   0.499972 0.134628 0.555856 -0.200304
C10   C     C_R   0.000012 0.614767 0.499915 -0.039781
C11   C     C_R   0.500012 0.114767 0.499916 -0.039804
C12   C     C_R   0.000041 0.693250 0.499827 0.162148
C13   C     C_R   0.673639 0.999253 0.727653 -0.196043
C14   C     C_R   0.500042 0.193250 0.499830 0.162121
C15   C     C_1   0.000049 0.733250 0.499787 -0.071088
C16   C     C_1   0.500049 0.233250 0.499791 -0.071035
C17   C     C_R   0.999996 0.385342 0.500082 -0.041245
C18   C     C_R   0.500896 0.885312 0.501284 -0.041441
C19   C     C_1   0.500050 0.266888 0.499788 -0.071301
C20   C     C_1   0.000049 0.766888 0.499782 -0.071344
C21   C     C_R   0.465988 0.326330 0.461869 -0.165663
C22   C     C_R   0.534084 0.326316 0.537825 -0.165672
C23   C     C_R   0.965986 0.826330 0.461882 -0.165667
C24   C     C_R   0.326362 0.999193 0.272350 -0.196112
C25   C     C_R   0.034086 0.826316 0.537799 -0.165758
C26   C     C_R   0.465927 0.365509 0.461901 -0.203138
C27   C     C_R   0.534121 0.365495 0.537929 -0.203039
C28   C     C_R   0.965925 0.865509 0.461915 -0.203143
C29   C     C_R   0.034123 0.865495 0.537903 -0.203092
C30   C     C_R   0.500018 0.385362 0.499951 -0.035414
C31   C     C_R   0.000018 0.885362 0.499947 -0.035305
C32   C     C_R   0.500042 0.306888 0.499813 0.161947
C33   C     C_R   0.000041 0.806888 0.499807 0.161974
C34   C     C_R   0.999719 0.326242 0.555798 -0.165740
C35   C     C_R   0.134543 0.499651 0.689214 -0.202536
C36   C     C_R   0.000255 0.326268 0.444478 -0.165789
C37   C     C_R   0.502034 0.826431 0.559075 -0.165255
C38   C     C_R   0.503147 0.826020 0.448351 -0.165777
C39   C     C_R   0.999731 0.365441 0.555844 -0.197484
C40   C     C_R   0.000255 0.365465 0.444358 -0.197430
C41   C     C_R   0.500916 0.865612 0.557541 -0.197066
C42   C     C_R   0.502007 0.865224 0.446641 -0.197920
C43   C     C_1   0.503744 0.733057 0.505745 -0.021392
C44   C     C_1   0.999984 0.233140 0.500174 -0.012793
C45   C     C_R   0.499932 0.614190 0.499677 -0.249338
C46   C     C_R   0.865458 0.499617 0.310787 -0.202497
C47   C     C_R   0.999982 0.114241 0.500033 -0.248228
C48   C     C_2   0.523451 0.472196 0.739791 0.274939
C49   C     C_2   0.476539 0.472077 0.260278 0.275960
C50   C     C_2   0.023581 0.972182 0.739957 0.276160
C51   C     C_2   0.976525 0.972065 0.260258 0.276224
C52   C     C_2   0.498271 0.492932 0.683207 -0.427865
C53   C     C_2   0.501749 0.492739 0.316856 -0.428712
C54   C     C_2   0.998267 0.992717 0.683184 -0.429163
C55   C     C_2   0.001752 0.992701 0.316863 -0.428965
C56   C     C_2   0.518986 0.470584 0.802832 -0.186012
C57   C     C_R   0.634543 0.999654 0.689214 -0.202440
C58   C     C_2   0.481009 0.470488 0.197236 -0.186302
C59   C     C_2   0.019118 0.970605 0.803005 -0.186161
C60   C     C_2   0.980995 0.970486 0.197215 -0.186254
C61   C     C_3   0.440374 0.699183 0.556570 -0.747273
C62   C     C_3   0.497946 0.709073 0.353361 -0.753671
C63   C     C_3   0.002272 0.208367 0.648291 -0.757924
C64   C     C_3   0.997725 0.208628 0.351985 -0.757800
C65   C     C_3   0.508571 0.606373 0.659056 -0.755630
C66   C     C_3   0.493268 0.600543 0.347025 -0.750160
C67   C     C_3   0.002937 0.099917 0.649761 -0.748235
C68   C     C_R   0.365457 0.999620 0.310787 -0.202547
C69   C     C_3   0.997043 0.100159 0.350352 -0.748409
C70   C     C_3   0.579354 0.430338 0.800245 -0.796885
C71   C     C_3   0.420603 0.430305 0.199869 -0.797071
C72   C     C_3   0.079754 0.930699 0.800803 -0.797103
C73   C     C_3   0.920569 0.930320 0.199808 -0.797049
C74   C     C_3   0.191691 0.534141 0.541526 -0.794766
C75   C     C_3   0.808260 0.534051 0.458315 -0.794178
C76   C     C_3   0.691691 0.034112 0.541510 -0.794124
C77   C     C_3   0.308261 0.034063 0.458312 -0.794191
C78   C     C_R   0.114683 0.499958 0.613772 -0.094009
C79   C     C_R   0.885317 0.499935 0.386228 -0.094012
C80   C     C_R   0.614683 0.999954 0.613772 -0.093940
C81   C     C_R   0.573451 0.499984 0.073341 0.869074
C82   C     C_R   0.385317 0.999938 0.386228 -0.094089
C83   C     C_R   0.134452 0.499928 0.577241 -0.214982
C84   C     C_R   0.865548 0.499885 0.422759 -0.214939
C85   C     C_R   0.634452 0.999915 0.577241 -0.214932
C86   C     C_R   0.365548 0.999892 0.422759 -0.215078
C87   C     C_R   0.173782 0.499669 0.615416 0.245766
C88   C     C_R   0.826218 0.499596 0.384585 0.245690
C89   C     C_R   0.673782 0.999654 0.615416 0.245678
C90   C     C_R   0.326218 0.999604 0.384585 0.245665
C91   C     C_R   0.193251 0.499175 0.691210 0.084133
C92   C     C_R   0.926548 0.999995 0.926659 0.869035
C93   C     C_R   0.806749 0.499092 0.308793 0.084136
C94   C     C_R   0.693251 0.999168 0.691210 0.084140
C95   C     C_R   0.306749 0.999098 0.308793 0.084150
C96   C     C_1   0.233312 0.499466 0.732617 -0.071126
C97   C     C_1   0.766689 0.499370 0.267386 -0.071050
C98   C     C_1   0.733312 0.999461 0.732617 -0.071051
C99   C     C_1   0.266689 0.999375 0.267386 -0.071122
C100  C     C_1   0.266923 0.499681 0.767049 -0.071819
C101  C     C_1   0.733078 0.499586 0.232953 -0.071673
C102  C     C_1   0.766923 0.999678 0.767049 -0.071688
C103  C     C_R   0.073452 0.999984 0.073341 0.869011
C104  C     C_1   0.233077 0.999590 0.232952 -0.071750
C105  C     C_R   0.326401 0.465678 0.827658 -0.167988
C106  C     C_R   0.673603 0.465611 0.172351 -0.167937
C107  C     C_R   0.826402 0.965676 0.827658 -0.167952
C108  C     C_R   0.173604 0.965613 0.172341 -0.168035
C109  C     C_R   0.501575 0.500090 0.882327 0.962719
C110  C     C_R   0.498430 0.500057 0.117682 0.962797
C111  C     C_R   0.001570 0.000089 0.882317 0.962713
C112  C     C_R   0.998431 0.000056 0.117685 0.962701
C113  C     C_R   0.365549 0.465705 0.866686 -0.199852
C114  C     C_2   0.507123 0.500956 0.822022 -0.394827
C115  C     C_R   0.634455 0.465659 0.133323 -0.199809
C116  C     C_R   0.865549 0.965704 0.866685 -0.199809
C117  C     C_R   0.134456 0.965660 0.133313 -0.199875
C118  C     C_R   0.385343 0.499966 0.885738 -0.036846
C119  C     C_R   0.614657 0.499930 0.114262 -0.036952
C120  C     C_R   0.885342 0.999965 0.885738 -0.036927
C121  C     C_R   0.114657 0.999930 0.114262 -0.036904
C122  C     C_R   0.365412 0.534157 0.865341 -0.199582
C123  C     C_R   0.634584 0.534110 0.134651 -0.199249
C124  C     C_R   0.865412 0.034156 0.865341 -0.199324
C125  C     C_2   0.492906 0.500859 0.178026 -0.394691
C126  C     C_R   0.134583 0.034111 0.134660 -0.199340
C127  C     C_R   0.326250 0.534034 0.826287 -0.163503
C128  C     C_R   0.673745 0.533965 0.173706 -0.163230
C129  C     C_R   0.826250 0.034031 0.826286 -0.163240
C130  C     C_R   0.173744 0.033967 0.173715 -0.163258
C131  C     C_R   0.306898 0.499813 0.807561 0.161658
C132  C     C_R   0.693103 0.499735 0.192441 0.161542
C133  C     C_R   0.806898 0.999811 0.807560 0.161566
C134  C     C_R   0.193103 0.999738 0.192440 0.161603
C135  C     C_R   0.502991 0.692799 0.504542 -0.094900
C136  C     C_2   0.007101 0.000943 0.821982 -0.394759
C137  C     C_R   0.999990 0.192905 0.500140 -0.088014
C138  C     C_R   0.489417 0.633760 0.543193 0.136891
C139  C     C_R   0.511452 0.633913 0.457720 0.131405
C140  C     C_R   0.987838 0.133863 0.541065 0.129648
C141  C     C_R   0.012130 0.133969 0.459056 0.129745
C142  C     C_1   0.999983 0.266796 0.500182 -0.088807
C143  C     C_1   0.503761 0.766729 0.505653 -0.084150
C144  C     C_R   0.999984 0.306809 0.500155 0.161185
C145  C     C_R   0.503185 0.806769 0.504565 0.160761
C146  C     C_R   0.500006 0.426568 0.499999 0.841710
C147  C     C_2   0.992912 0.000855 0.178036 -0.394778
C148  C     C_R   0.000006 0.926568 0.499997 0.841493
C149  C     C_R   0.490866 0.673200 0.545454 0.193955
C150  C     C_R   0.512939 0.673353 0.460157 0.191773
C151  C     C_R   0.987950 0.173323 0.541213 0.189158
C152  C     C_R   0.012030 0.173428 0.459021 0.189055
C153  C     C_R   0.499727 0.498152 0.618817 0.929543
C154  C     C_R   0.500278 0.497982 0.381218 0.925391
C155  C     C_R   0.999724 0.997946 0.618786 0.925281
C156  C     C_R   0.000279 0.997947 0.381224 0.925124
C157  C     C_R   0.499988 0.573187 0.499833 0.916664
C158  C     C_R   0.173639 0.499252 0.727653 -0.196102
C159  C     C_R   0.999994 0.073206 0.500005 0.920898
C160  C     C_R   1.000000 0.426601 0.500028 0.874854
C161  C     C_R   0.500119 0.926589 0.500181 0.874532
C162  C     C_R   0.073468 0.500097 0.573209 0.892593
C163  C     C_R   0.926532 0.500095 0.426790 0.892609
C164  C     C_R   0.573468 0.000096 0.573209 0.892545
C165  C     C_R   0.426532 0.000096 0.426791 0.892678
C166  C     C_R   0.000001 0.573547 0.499971 0.874690
C167  C     C_R   0.500001 0.073547 0.499971 0.874708
C168  C     C_R   0.000099 0.673819 0.443982 -0.165283
H1    H     H_    0.380253 0.438977 0.881809 0.157351
H2    H     H_    0.999896 0.619953 0.599570 0.156781
H3    H     H_    0.092955 0.949642 0.848354 0.254211
H4    H     H_    0.956367 0.937123 0.310919 0.229947
H5    H     H_    0.898077 0.919339 0.208292 0.239888
H6    H     H_    0.934335 0.906075 0.190190 0.227591
H7    H     H_    0.907283 0.949151 0.152018 0.254172
H8    H     H_    0.473736 0.504746 0.681889 0.145224
H9    H     H_    0.526311 0.504493 0.318177 0.146081
H10   H     H_    0.973659 0.004393 0.681773 0.145955
H11   H     H_    0.026324 0.004437 0.318198 0.145876
H12   H     H_    0.119908 0.499677 0.718571 0.164167
H13   H     H_    0.500099 0.119969 0.400217 0.156764
H14   H     H_    0.880093 0.499657 0.281431 0.164177
H15   H     H_    0.619908 0.999687 0.718571 0.164182
H16   H     H_    0.380092 0.999658 0.281431 0.164181
H17   H     H_    0.219660 0.487398 0.603985 0.231599
H18   H     H_    0.206098 0.530594 0.510690 0.240954
H19   H     H_    0.206152 0.556751 0.582122 0.241689
H20   H     H_    0.162080 0.542541 0.503272 0.245236
H21   H     H_    0.780357 0.487289 0.396072 0.231636
H22   H     H_    0.793859 0.530490 0.489167 0.241063
H23   H     H_    0.793768 0.556651 0.417612 0.241764
H24   H     H_    0.499930 0.119952 0.599603 0.156795
H25   H     H_    0.837860 0.542472 0.496529 0.245192
H26   H     H_    0.719660 0.987374 0.603990 0.231634
H27   H     H_    0.706098 0.030557 0.510676 0.241074
H28   H     H_    0.706152 0.056726 0.582097 0.241773
H29   H     H_    0.662080 0.042510 0.503253 0.245188
H30   H     H_    0.280356 0.987300 0.396073 0.231582
H31   H     H_    0.293860 0.030504 0.489164 0.241035
H32   H     H_    0.293770 0.056663 0.417608 0.241791
H33   H     H_    0.337861 0.042484 0.496526 0.245196
H34   H     H_    0.439569 0.311224 0.432348 0.134829
H35   H     H_    0.560512 0.311199 0.567307 0.134836
H36   H     H_    0.939565 0.811224 0.432377 0.134839
H37   H     H_    0.060515 0.811199 0.567264 0.134778
H38   H     H_    0.999521 0.380106 0.599385 0.156593
H39   H     H_    0.000469 0.380147 0.400786 0.156639
H40   H     H_    0.500078 0.880424 0.600311 0.156727
H41   H     H_    0.619754 0.438940 0.118206 0.157349
H42   H     H_    0.502049 0.879747 0.402755 0.156322
H43   H     H_    0.525650 0.444670 0.833720 0.176585
H44   H     H_    0.474304 0.444607 0.166346 0.176498
H45   H     H_    0.025922 0.944748 0.834088 0.176460
H46   H     H_    0.974271 0.944614 0.166293 0.176459
H47   H     H_    0.503392 0.527895 0.795241 0.158679
H48   H     H_    0.496673 0.527771 0.204812 0.158828
H49   H     H_    0.003234 0.027843 0.795007 0.158953
H50   H     H_    0.996699 0.027760 0.204853 0.159057
H51   H     H_    0.188627 0.499078 0.785960 0.148657
H52   H     H_    0.880254 0.938977 0.881808 0.157355
H53   H     H_    0.811375 0.499009 0.214044 0.148677
H54   H     H_    0.688627 0.999086 0.785960 0.148683
H55   H     H_    0.311374 0.999012 0.214044 0.148660
H56   H     H_    0.119415 0.499797 0.518965 0.167682
H57   H     H_    0.880585 0.499762 0.481036 0.167690
H58   H     H_    0.619415 0.999778 0.518964 0.167683
H59   H     H_    0.380585 0.999770 0.481036 0.167661
H60   H     H_    0.496092 0.716553 0.614564 0.221747
H61   H     H_    0.430263 0.718142 0.509292 0.231103
H62   H     H_    0.434515 0.712619 0.595978 0.230859
H63   H     H_    0.119755 0.938941 0.118188 0.157301
H64   H     H_    0.424776 0.672091 0.539171 0.254230
H65   H     H_    0.547651 0.712129 0.451873 0.223545
H66   H     H_    0.483322 0.732586 0.362682 0.228890
H67   H     H_    0.476939 0.687501 0.319366 0.243674
H68   H     H_    0.511173 0.720218 0.323769 0.232454
H69   H     H_    0.953284 0.212419 0.548722 0.224446
H70   H     H_    0.016943 0.232361 0.640383 0.228322
H71   H     H_    0.023325 0.186654 0.681689 0.242226
H72   H     H_    0.988716 0.218687 0.677804 0.234184
H73   H     H_    0.046674 0.212627 0.451611 0.224435
H74   H     H_    0.000154 0.688935 0.400608 0.134261
H75   H     H_    0.982963 0.232530 0.359853 0.228286
H76   H     H_    0.976749 0.186904 0.318514 0.242342
H77   H     H_    0.011301 0.219093 0.322572 0.234113
H78   H     H_    0.311366 0.439117 0.813046 0.134438
H79   H     H_    0.688642 0.439043 0.186971 0.134451
H80   H     H_    0.811367 0.939115 0.813045 0.134444
H81   H     H_    0.188644 0.939045 0.186953 0.134356
H82   H     H_    0.380021 0.560929 0.879392 0.157914
H83   H     H_    0.619973 0.560889 0.120594 0.158106
H84   H     H_    0.880020 0.060928 0.879392 0.158044
H85   H     H_    0.999922 0.688917 0.599054 0.134286
H86   H     H_    0.119971 0.060890 0.120611 0.158052
H87   H     H_    0.311091 0.560529 0.810592 0.134894
H88   H     H_    0.688901 0.560452 0.189393 0.135076
H89   H     H_    0.811090 0.060527 0.810592 0.135054
H90   H     H_    0.188899 0.060454 0.189410 0.135050
H91   H     H_    0.461227 0.591062 0.562357 0.234636
H92   H     H_    0.497069 0.592938 0.689948 0.229164
H93   H     H_    0.522915 0.632922 0.686694 0.254908
H94   H     H_    0.529301 0.586876 0.658207 0.236064
H95   H     H_    0.543693 0.594299 0.443685 0.235441
H96   H     H_    0.500122 0.188936 0.400578 0.134296
H97   H     H_    0.505324 0.588520 0.316005 0.228142
H98   H     H_    0.473766 0.623614 0.314984 0.243214
H99   H     H_    0.477137 0.578175 0.355141 0.236473
H100  H     H_    0.953792 0.094522 0.550569 0.237490
H101  H     H_    0.989501 0.087262 0.677843 0.227149
H102  H     H_    0.021862 0.122836 0.683813 0.244252
H103  H     H_    0.019953 0.077947 0.643224 0.233963
H104  H     H_    0.046225 0.094745 0.449507 0.237427
H105  H     H_    0.010480 0.087666 0.322177 0.227297
H106  H     H_    0.978012 0.123064 0.316355 0.244132
H107  H     H_    0.499956 0.188916 0.599089 0.134304
H108  H     H_    0.980137 0.078067 0.356950 0.233866
H109  H     H_    0.439286 0.380191 0.432110 0.157989
H110  H     H_    0.560754 0.380167 0.567766 0.157975
H111  H     H_    0.939282 0.880191 0.432141 0.157999
H112  H     H_    0.060758 0.880167 0.567725 0.157937
H113  H     H_    0.999504 0.311110 0.599005 0.131605
H114  H     H_    0.000468 0.311157 0.401300 0.131632
H115  H     H_    0.501931 0.811488 0.602568 0.130902
H116  H     H_    0.503926 0.810739 0.405910 0.131914
H117  H     H_    0.543436 0.437109 0.689128 0.229763
H118  H     H_    0.000132 0.619968 0.400249 0.156743
H119  H     H_    0.601802 0.419304 0.791705 0.239854
H120  H     H_    0.565601 0.406129 0.810052 0.227575
H121  H     H_    0.592692 0.449178 0.847941 0.254167
H122  H     H_    0.456420 0.437109 0.310973 0.229995
H123  H     H_    0.398122 0.419313 0.208374 0.239869
H124  H     H_    0.434373 0.406069 0.190238 0.227617
H125  H     H_    0.407304 0.449134 0.152079 0.254165
H126  H     H_    0.043842 0.937210 0.689624 0.229898
H127  H     H_    0.102286 0.919793 0.792391 0.239861
H128  H     H_    0.066144 0.906416 0.810769 0.227535
N1    N     N_2   0.480392 0.692785 0.589870 -0.282930
N2    N     N_2   0.447822 0.450920 0.263059 -0.272649
N3    N     N_2   0.052393 0.951122 0.737372 -0.272622
N4    N     N_2   0.947788 0.950930 0.263008 -0.272670
N5    N     N_2   0.193097 0.499083 0.576864 -0.313411
N6    N     N_2   0.806904 0.498993 0.423139 -0.313477
N7    N     N_2   0.693097 0.999059 0.576864 -0.313491
N8    N     N_2   0.306904 0.999004 0.423140 -0.313570
N9    N     N_2   0.526714 0.693000 0.421016 -0.272800
N10   N     N_2   0.973813 0.192934 0.579719 -0.271652
N11   N     N_2   0.026180 0.193144 0.420582 -0.271682
N12   N     N_2   0.478218 0.614131 0.586541 -0.288685
N13   N     N_2   0.523385 0.614437 0.415454 -0.279975
N14   N     N_2   0.974132 0.114324 0.580450 -0.279438
N15   N     N_2   0.025840 0.114537 0.419632 -0.279383
N16   N     N_2   0.552105 0.450954 0.736987 -0.272848
O1    O     O_R   0.444560 0.531280 0.944560 -0.625413
O2    O     O_R   0.944570 0.500110 0.393510 -0.622705
O3    O     O_R   0.555430 0.000110 0.606490 -0.622734
O4    O     O_R   0.444570 0.000110 0.393510 -0.622611
O5    O     O_R   0.000010 0.555520 0.448910 -0.624183
O6    O     O_R   0.999990 0.555520 0.551090 -0.624174
O7    O     O_R   0.500010 0.055520 0.448910 -0.624173
O8    O     O_R   0.499990 0.055520 0.551090 -0.624166
O9    O     O_R   0.444540 0.468700 0.944530 -0.627704
O10   O     O_R   0.555460 0.468700 0.055470 -0.627720
O11   O     O_R   0.944540 0.968700 0.944530 -0.627710
O12   O     O_R   0.555440 0.531280 0.055440 -0.625275
O13   O     O_R   0.055460 0.968700 0.055470 -0.627752
O14   O     O_R   0.500010 0.531280 0.909540 -0.621086
O15   O     O_R   0.499990 0.531280 0.090460 -0.620918
O16   O     O_R   0.000010 0.031280 0.909540 -0.620904
O17   O     O_R   0.999990 0.031280 0.090460 -0.620935
O18   O     O_R   0.499990 0.468700 0.909520 -0.619338
O19   O     O_R   0.500010 0.468700 0.090480 -0.619309
O20   O     O_R   0.999990 0.968700 0.909520 -0.619313
O21   O     O_R   0.000010 0.968700 0.090480 -0.619306
O22   O     O_R   0.531280 0.444560 0.531260 -0.629642
O23   O     O_R   0.944560 0.031280 0.944560 -0.625336
O24   O     O_R   0.468720 0.444560 0.468740 -0.629328
O25   O     O_R   0.031280 0.944560 0.531260 -0.629585
O26   O     O_R   0.968720 0.944560 0.468740 -0.629580
O27   O     O_R   0.531280 0.499990 0.621740 -0.601870
O28   O     O_R   0.468720 0.499990 0.378260 -0.604018
O29   O     O_R   0.031280 0.999990 0.621740 -0.603765
O30   O     O_R   0.968720 0.999990 0.378260 -0.603775
O31   O     O_R   0.468680 0.499990 0.559140 -0.621830
O32   O     O_R   0.531320 0.499990 0.440860 -0.619166
O33   O     O_R   0.968680 0.999990 0.559140 -0.618619
O34   O     O_R   0.055440 0.031280 0.055440 -0.625322
O35   O     O_R   0.031320 0.999990 0.440860 -0.618596
O36   O     O_R   0.531300 0.555420 0.531300 -0.623768
O37   O     O_R   0.468700 0.555420 0.468700 -0.626804
O38   O     O_R   0.031300 0.055420 0.531300 -0.625578
O39   O     O_R   0.968700 0.055420 0.468700 -0.625612
O40   O     O_R   0.999980 0.444660 0.448930 -0.623577
O41   O     O_R   0.000020 0.444660 0.551070 -0.623562
O42   O     O_R   0.499980 0.944660 0.448930 -0.623212
O43   O     O_R   0.500020 0.944660 0.551070 -0.623694
O44   O     O_R   0.055440 0.500090 0.504360 -0.624914
O45   O     O_R   0.944560 0.500090 0.495640 -0.624897
O46   O     O_R   0.555440 0.000090 0.504360 -0.624962
O47   O     O_R   0.444560 0.000090 0.495640 -0.624889
O48   O     O_R   0.055430 0.500110 0.606490 -0.622711
Zn1   Zn    Zn3+2 0.500000 0.541780 0.000000 0.949596
Zn2   Zn    Zn3+2 0.000000 0.500080 0.568210 0.943161
Zn3   Zn    Zn3+2 0.500000 0.000080 0.431790 0.943293
Zn4   Zn    Zn3+2 0.500000 0.000080 0.568210 0.943069
Zn5   Zn    Zn3+2 1.000000 0.041780 0.000000 0.949681
Zn6   Zn    Zn3+2 0.500000 0.458200 0.000000 0.939950
Zn7   Zn    Zn3+2 1.000000 0.958200 0.000000 0.939905
Zn8   Zn    Zn3+2 0.541790 0.499990 0.541780 0.949303
Zn9   Zn    Zn3+2 0.458210 0.499990 0.458220 0.948193
Zn10  Zn    Zn3+2 0.041790 0.999990 0.541780 0.948819
Zn11  Zn    Zn3+2 0.958210 0.999990 0.458220 0.948894
Zn12  Zn    Zn3+2 1.000000 0.500080 0.431790 0.943137

loop_
_geom_bond_atom_site_label_1
_geom_bond_atom_site_label_2
_ccdc_geom_bond_type
O1    Zn1   S    
C21   C26   A    
C44   C137  S    
C62   H66   S    
C87   C91   A    
C167  O7    A    
C65   H94   S    
O44   Zn12  S    
C13   H54   S    
C90   C95   A    
C105  C131  A    
C92   O23   A    
C106  C132  A    
C22   H35   S    
H17   N5    S    
C50   C59   S    
C63   H71   S    
C46   C79   A    
C95   C99   S    
C45   C139  A    
C146  O24   A    
C17   C39   A    
C89   C94   A    
O21   Zn7   S    
C17   C160  S    
C91   C96   S    
C168  H74   S    
H21   N6    S    
C166  O6    A    
C148  O26   A    
C11   C167  S    
C130  C134  A    
C163  O2    A    
C19   C32   S    
C21   H34   S    
C51   N4    S    
C66   N13   S    
C112  O21   A    
C25   C29   A    
C15   C20   T    
C75   H22   S    
C88   N6    S    
C86   C90   A    
O36   Zn8   S    
C136  H49   S    
C98   C102  T    
C2    H53   S    
C54   H10   S    
C73   H7    S    
C3    H85   S    
C76   H27   S    
C152  N11   S    
C61   H62   S    
O37   Zn9   S    
C72   H128  S    
C109  O14   A    
C129  C133  A    
C20   C33   S    
O11   Zn7   S    
H73   N11   S    
C22   C27   A    
C142  C144  S    
O7    Zn3   S    
C103  C121  S    
C74   H19   S    
C47   C141  A    
C68   H16   S    
C35   C78   A    
C84   C88   A    
H65   N9    S    
C110  O19   A    
C53   H9    S    
C59   H45   S    
C119  C123  A    
C69   H105  S    
C81   C119  S    
C139  C150  A    
C13   C94   A    
C146  O22   A    
C36   C144  A    
C150  N9    S    
C49   C53   D    
C51   C55   D    
C4    C14   A    
C127  C131  A    
C49   C58   S    
C101  C132  S    
C48   C52   D    
C70   H119  S    
C103  O13   A    
C7    H2    S    
C94   C98   S    
O22   Zn8   S    
C66   H99   S    
C82   C165  S    
C8    H13   S    
O28   Zn9   S    
O38   Zn10  S    
C106  C115  A    
C64   H75   S    
C47   C159  S    
C22   C32   A    
C127  H87   S    
C105  C113  A    
C155  O33   A    
C156  O35   A    
C129  H89   S    
C76   H29   S    
C18   C42   A    
C79   C84   A    
C18   C161  S    
C111  C136  S    
C13   C57   A    
C59   C136  D    
C61   H64   S    
C74   N5    S    
C118  C122  A    
C122  C127  A    
C153  O27   A    
C60   H46   S    
C91   C158  A    
C67   H102  S    
O39   Zn11  S    
C47   C140  A    
O47   Zn4   S    
C5    H107  S    
C106  H79   S    
C116  H52   S    
C10   C166  S    
C164  O3    A    
C138  N12   S    
C62   N9    S    
C86   H59   S    
C57   C80   A    
C63   N10   S    
C84   H57   S    
C78   C83   A    
C130  H90   S    
O2    Zn12  S    
C138  C149  A    
C6    C168  A    
C61   N1    S    
O23   Zn5   S    
C34   C39   A    
C107  H80   S    
C45   C157  S    
C56   H43   S    
C155  O29   A    
C52   C153  S    
C116  C120  A    
C75   H23   S    
C5    C9    A    
C122  H82   S    
C77   H31   S    
C4    H96   S    
C126  H86   S    
C23   C28   A    
O10   Zn6   S    
C66   H97   S    
C109  C114  S    
C112  O17   A    
C26   C30   A    
C115  C119  A    
C87   N5    S    
C71   H124  S    
H95   N13   S    
C72   N3    S    
C93   C97   S    
C24   H55   S    
C165  O47   A    
C37   H115  S    
C62   H67   S    
C55   H11   S    
C108  C117  A    
C65   H93   S    
C161  O43   A    
C77   H33   S    
O18   Zn6   S    
O6    Zn2   S    
C135  C150  A    
O3    Zn4   S    
C112  C147  S    
C23   H36   S    
C68   C82   A    
C46   H14   S    
C92   C120  S    
H104  N15   S    
H126  N3    S    
C124  H84   S    
O13   Zn7   S    
C149  N1    S    
C96   C100  T    
C45   C138  A    
C128  H88   S    
C76   N7    S    
C37   C41   A    
C77   H32   S    
O9    Zn6   S    
O31   Zn9   S    
C89   N7    S    
C90   N8    S    
O27   Zn8   S    
O40   Zn12  S    
C154  O28   A    
C51   C60   S    
C110  O15   A    
C141  C152  A    
C25   C33   A    
C163  O45   A    
C7    C10   A    
C83   C87   A    
O33   Zn11  S    
C159  O38   A    
C43   C143  T    
H122  N2    S    
C157  O37   A    
O43   Zn4   S    
C34   C144  A    
C50   C54   D    
O29   Zn10  S    
O26   Zn11  S    
C3    C7    A    
H26   N7    S    
C126  C130  A    
C39   H38   S    
C35   H12   S    
C143  C145  S    
C73   H6    S    
C48   N16   S    
C80   C164  S    
C76   H28   S    
H69   N10   S    
C157  O36   A    
C140  N14   S    
C158  H51   S    
C141  N15   S    
O25   Zn10  S    
C61   H61   S    
C137  C152  A    
C111  O16   A    
C27   H110  S    
C52   H8    S    
C42   H42   S    
C38   H116  S    
C67   H103  S    
C99   C104  T    
C40   H39   S    
C167  O8    A    
C69   N15   S    
C25   H37   S    
C70   N16   S    
O8    Zn4   S    
C77   N8    S    
C74   H20   S    
C115  H41   S    
C72   H3    S    
C153  O31   A    
C164  O46   A    
C24   C95   A    
C63   H72   S    
C85   C89   A    
C113  H1    S    
C81   O10   A    
C82   C86   A    
C117  H63   S    
C81   O12   A    
C17   C40   A    
C162  O44   A    
C108  C134  A    
C50   N3    S    
C65   N12   S    
C139  N13   S    
C12   C15   S    
C166  O5    A    
C148  O25   A    
C140  C151  A    
C5    C14   A    
O4    Zn3   S    
C104  C134  S    
C83   H56   S    
C70   H120  S    
C103  O34   A    
C54   C155  S    
C28   H111  S    
O16   Zn5   S    
C151  N10   S    
C114  H47   S    
C28   C31   A    
O14   Zn1   S    
C6    C10   A    
C1    O9    A    
H91   N12   S    
C64   H76   S    
C67   N14   S    
C58   H44   S    
O35   Zn10  S    
C108  H81   S    
C41   H40   S    
C35   C158  A    
C36   H114  S    
C107  C133  A    
C147  H50   S    
C16   C19   T    
C124  C129  A    
C49   N2    S    
C72   H127  S    
C102  C133  S    
C24   C68   A    
C67   H101  S    
O24   Zn9   S    
C44   C142  T    
C34   H113  S    
O34   Zn5   S    
C26   H109  S    
C74   H18   S    
H4    N4    S    
C1    O1    A    
C4    C8    A    
C63   H70   S    
O48   Zn2   S    
C100  C131  S    
C2    C46   A    
C29   H112  S    
C69   H106  S    
C80   C85   A    
C159  O39   A    
C6    H118  S    
C38   C42   A    
C8    C11   A    
C71   H125  S    
C125  H48   S    
C165  O4    A    
C154  O32   A    
C64   N11   S    
C117  C121  A    
C3    C12   A    
C64   H77   S    
C23   C33   A    
C60   C147  D    
C9    H24   S    
C66   H98   S    
C53   C154  S    
C27   C30   A    
C156  O30   A    
C71   H123  S    
O5    Zn12  S    
C128  C132  A    
C109  O18   A    
C30   C146  S    
C55   C156  S    
C107  C116  A    
C21   C32   A    
C62   H68   S    
C70   H121  S    
C36   C40   A    
C65   H92   S    
C160  O41   A    
C161  O42   A    
C18   C41   A    
C135  C149  A    
H30   N8    S    
O42   Zn3   S    
O30   Zn11  S    
C111  O20   A    
C38   C145  A    
C123  H83   S    
O46   Zn3   S    
C75   N6    S    
C43   C135  S    
C9    C11   A    
O41   Zn2   S    
C75   H25   S    
C78   C162  S    
O15   Zn1   S    
C14   C16   S    
O12   Zn1   S    
C31   C148  S    
C57   H15   S    
O45   Zn2   S    
C48   C56   S    
C69   H108  S    
C88   C93   A    
O19   Zn6   S    
H60   N1    S    
C2    C93   A    
C162  O48   A    
C79   C163  S    
C12   C168  A    
O17   Zn5   S    
H117  N16   S    
C92   O11   A    
C71   N2    S    
C121  C126  A    
C29   C31   A    
C123  C128  A    
O20   Zn7   S    
C160  O40   A    
C1    C118  S    
C73   H5    S    
H100  N14   S    
C105  H78   S    
C110  C125  S    
C113  C118  A    
O32   Zn8   S    
C58   C125  D    
C56   C114  D    
C137  C151  A    
C85   H58   S    
C37   C145  A    
C97   C101  T    
C120  C124  A    
C73   N4    S    
