data_mof_unit_9339.cif
_audit_creation_date              2012-12-10T16:59:12-0500
_audit_creation_method            fapswitch 2.2
_symmetry_space_group_name_H-M    P1
_symmetry_Int_Tables_number       1
_space_group_crystal_system       triclinic
_cell_length_a                    7.808295
_cell_length_b                    8.54337
_cell_length_c                    27.584417
_cell_angle_alpha                 91.528087
_cell_angle_beta                  86.019758
_cell_angle_gamma                 92.351429
_cell_volume                      1833.625298

loop_
_atom_site_label
_atom_site_type_symbol
_atom_type_description
_atom_site_fract_x
_atom_site_fract_y
_atom_site_fract_z
_atom_type_partial_charge
Br1   Br    Br    0.126380 0.644488 0.259527 -0.410695
Br2   Br    Br    0.873551 0.355323 0.740481 -0.410494
Br3   Br    Br    0.641549 0.007301 0.122278 -0.344022
Br4   Br    Br    0.358197 0.992834 0.877718 -0.343984
Br5   Br    Br    0.884018 0.853483 0.965613 -0.394630
Br6   Br    Br    0.115887 0.146577 0.034414 -0.394628
Br7   Br    Br    0.713678 0.008801 0.433411 -0.349755
Br8   Br    Br    0.286321 0.991198 0.566589 -0.349785
C1    C     C_R   0.543551 0.794123 0.498445 0.931290
C2    C     C_R   0.532511 0.670329 0.125599 -0.107550
C3    C     C_R   0.507805 0.483384 0.646395 -0.097533
C4    C     C_R   0.492192 0.516635 0.353606 -0.097590
C5    C     C_R   0.560473 0.639808 0.022986 0.027425
C6    C     C_R   0.439392 0.360278 0.977017 0.027423
C7    C     C_R   0.409210 0.381044 0.027944 0.011456
C8    C     C_R   0.590683 0.619028 0.972061 0.011438
C9    C     C_R   0.480891 0.517065 0.050866 0.064712
C10   C     C_R   0.518996 0.483012 0.949138 0.064714
C11   C     C_R   0.592233 0.784996 0.046578 -0.171627
C12   C     C_R   0.456448 0.205876 0.501555 0.931297
C13   C     C_R   0.407595 0.215106 0.953421 -0.171653
C14   C     C_R   0.585520 0.800557 0.096966 0.343308
C15   C     C_R   0.414297 0.199553 0.903033 0.343295
C16   C     C_R   0.502214 0.497242 0.593902 0.900738
C17   C     C_R   0.497786 0.502760 0.406098 0.900757
C18   C     C_R   0.697079 0.723915 0.942830 0.224234
C19   C     C_R   0.302859 0.276129 0.057181 0.224218
C20   C     C_2   0.558729 0.953562 0.488920 0.013584
C21   C     C_2   0.441271 0.046438 0.511080 0.013581
C22   C     C_R   0.604222 0.581991 0.819597 0.602027
C23   C     C_R   0.531071 0.467577 0.897829 -0.094764
C24   C     C_R   0.395807 0.418024 0.180409 0.602049
C25   C     C_R   0.464700 0.328127 0.823340 0.605716
C26   C     C_R   0.535187 0.671964 0.176662 0.605714
C27   C     C_R   0.665276 0.420186 0.715492 0.330767
C28   C     C_R   0.334687 0.579750 0.284512 0.330805
C29   C     C_R   0.658643 0.435595 0.665671 -0.189178
C30   C     C_R   0.341327 0.564316 0.334331 -0.189149
C31   C     C_R   0.362402 0.513411 0.677478 -0.133292
C32   C     C_R   0.637613 0.486734 0.322521 -0.133279
C33   C     C_R   0.369307 0.499166 0.727344 -0.091708
C34   C     C_R   0.468840 0.532491 0.102176 -0.094771
C35   C     C_R   0.630700 0.500996 0.272656 -0.091710
C36   C     C_R   0.520568 0.453718 0.746359 0.209044
C37   C     C_R   0.479414 0.546341 0.253644 0.209018
C38   C     C_R   0.607959 0.590271 0.869967 -0.056689
C39   C     C_R   0.392025 0.409760 0.130039 -0.056679
C40   C     C_R   0.694858 0.714494 0.892615 -0.090633
C41   C     C_R   0.305143 0.285518 0.107395 -0.090563
C42   C     C_R   0.467359 0.329762 0.874403 -0.107563
Cl1   Cl    Cl    0.041541 0.331057 0.443841 -0.414320
Cl2   Cl    Cl    0.958459 0.668941 0.556160 -0.414313
H1    H     H_    0.244548 0.549704 0.663387 0.209263
H2    H     H_    0.383653 0.109735 0.973875 0.205143
H3    H     H_    0.755489 0.450529 0.336610 0.209274
H4    H     H_    0.258395 0.526288 0.751412 0.195054
H5    H     H_    0.741624 0.473964 0.248586 0.195093
H6    H     H_    0.770701 0.800094 0.871161 0.230576
H7    H     H_    0.229347 0.199888 0.128854 0.230577
H8    H     H_    0.228507 0.590040 0.357825 0.208252
H9    H     H_    0.771446 0.409767 0.642178 0.208229
H10   H     H_    0.616159 0.890367 0.026121 0.205131
N1    N     N_R   0.530307 0.453985 0.797693 -0.358463
N2    N     N_R   0.469662 0.546067 0.202310 -0.358474
N3    N     N_2   0.950320 0.457960 0.486880 0.134660
N4    N     N_2   0.049680 0.542040 0.513120 0.134663
O1    O     O_R   0.389250 0.738570 0.503220 -0.588480
O2    O     O_2   0.327918 0.298451 0.207508 -0.487289
O3    O     O_2   0.604621 0.795371 0.200798 -0.444526
O4    O     O_2   0.395205 0.204758 0.799202 -0.444543
O5    O     O_R   0.610750 0.261430 0.496780 -0.588482
O6    O     O_R   0.678390 0.711630 0.494810 -0.563673
O7    O     O_R   0.321610 0.288370 0.505190 -0.563667
O8    O     O_R   0.355440 0.513440 0.575450 -0.595688
O9    O     O_R   0.644560 0.486560 0.424550 -0.595685
O10   O     O_R   0.644590 0.486500 0.567040 -0.601259
O11   O     O_R   0.355410 0.513500 0.432960 -0.601273
O12   O     O_2   0.672212 0.701515 0.792498 -0.487357
Zn1   Zn    Zn3+2 0.306940 0.517990 0.505620 1.138447
Zn2   Zn    Zn3+2 0.693060 0.482010 0.494380 1.138449

loop_
_geom_bond_atom_site_label_1
_geom_bond_atom_site_label_2
_ccdc_geom_bond_type
Br2   C27   S    
C2    C34   A    
C6    C10   A    
C1    O6    A    
C31   C33   A    
C2    C14   A    
N4    Zn1   S    
C17   O11   A    
Br8   C21   S    
C6    C13   A    
C20   C21   D    
C27   C29   A    
C13   H2    S    
C11   H10   S    
C3    C16   S    
Cl1   N3    S    
C3    C29   A    
C9    C34   A    
C32   C35   A    
C23   C38   A    
C12   O5    A    
O9    Zn2   S    
C18   C40   A    
C24   O2    S    
N3    Zn2   S    
C22   N1    A    
O5    Zn2   S    
C12   C21   S    
O11   Zn1   S    
C36   N1    S    
C8    C18   A    
C38   C40   A    
C5    C11   A    
C11   C14   A    
O1    Zn1   S    
C24   N2    A    
C39   C41   A    
Br4   C15   S    
C16   O10   A    
C15   C42   A    
C25   C42   A    
Br7   C20   S    
C17   O9    A    
C4    C32   A    
C1    O1    A    
C33   H4    S    
C7    C19   A    
Br6   C19   S    
C25   N1    A    
C32   H3    S    
C26   N2    A    
O7    Zn1   S    
C28   C37   A    
C2    C26   A    
C3    C31   A    
C27   C36   A    
C35   C37   A    
C26   O3    S    
C25   O4    S    
C30   H8    S    
O8    Zn1   S    
C13   C15   A    
C33   C36   A    
C23   C42   A    
Cl2   N4    S    
C7    C9    A    
C22   C38   A    
O10   Zn2   S    
C29   H9    S    
C40   H6    S    
C37   N2    S    
C41   H7    S    
C5    C9    A    
C4    C17   S    
C28   C30   A    
O6    Zn2   S    
C16   O8    A    
C31   H1    S    
C24   C39   A    
C12   O7    A    
C34   C39   A    
C4    C30   A    
C35   H5    S    
Br5   C18   S    
C22   O12   S    
C1    C20   S    
C8    C10   A    
N3    N4    D    
C5    C8    A    
C6    C7    A    
Br3   C14   S    
C10   C23   A    
C19   C41   A    
Br1   C28   S    
