data_mof_unit_6828.cif
_audit_creation_date              2012-12-11T16:26:27-0500
_audit_creation_method            fapswitch 2.2
_symmetry_space_group_name_H-M    P1
_symmetry_Int_Tables_number       1
_space_group_crystal_system       triclinic
_cell_length_a                    6.93971
_cell_length_b                    17.577572
_cell_length_c                    19.410049
_cell_angle_alpha                 108.603269
_cell_angle_beta                  89.52798
_cell_angle_gamma                 90.518511
_cell_volume                      2243.86136843

loop_
_atom_site_label
_atom_site_type_symbol
_atom_type_description
_atom_site_fract_x
_atom_site_fract_y
_atom_site_fract_z
_atom_type_partial_charge
O1    O     O_R   0.494330 0.415720 0.413720 -0.522150
O2    O     O_R   0.819330 0.430070 0.560210 -0.550264
O3    O     O_R   0.994320 0.584280 0.586280 -0.540792
C1    C     C_R   0.650064 0.414561 0.581354 0.686604
O4    O     O_R   0.823730 0.406300 0.412670 -0.538760
O5    O     O_R   0.998760 0.560340 0.437690 -0.537783
C2    C     C_R   0.655559 0.384448 0.384462 0.708639
O6    O     O_R   0.489890 0.439660 0.562310 -0.540805
O7    O     O_3   0.662340 0.550560 0.508380 -0.367788
V1    V     V_3+5 0.935370 0.490620 0.498450 1.471041
O8    O     O_R   0.328750 0.569930 0.439790 -0.527170
C3    C     C_R   0.160796 0.584373 0.417958 0.785822
O9    O     O_R   0.324340 0.593700 0.587330 -0.543263
C4    C     C_R   0.155392 0.616622 0.614891 0.673837
V2    V     V_3+5 0.435940 0.509380 0.501550 1.497446
O10   O     O_3   0.159100 0.449440 0.491620 -0.368372
C5    C     C_R   0.022007 0.594021 0.748708 -0.171869
C6    C     C_R   0.957581 0.581028 0.812230 -0.094221
C7    C     C_R   0.946598 0.644668 0.876710 -0.035743
C8    C     C_R   0.999567 0.721800 0.878120 -0.148942
C9    C     C_R   0.063924 0.737075 0.814316 0.062467
C10   C     C_R   0.075720 0.671828 0.748244 0.070341
C11   C     C_R   0.120979 0.815339 0.815974 -0.134556
C12   C     C_R   0.193002 0.828104 0.751814 0.017754
C13   C     C_R   0.206219 0.762806 0.685925 0.018404
C14   C     C_R   0.145473 0.684785 0.683896 -0.130611
C15   C     C_R   0.250370 0.905595 0.751714 -0.286173
C16   C     C_R   0.324742 0.918255 0.689242 0.399568
C17   C     C_R   0.340162 0.853921 0.624815 0.393519
C18   C     C_R   0.278546 0.777497 0.622904 -0.278565
H1    H     H_    0.031355 0.542119 0.700408 0.109633
H2    H     H_    0.917527 0.521087 0.811498 0.147320
H3    H     H_    0.898104 0.634163 0.926086 0.173511
H4    H     H_    0.991393 0.768889 0.929967 0.105894
H5    H     H_    0.238379 0.957386 0.800004 0.155638
H6    H     H_    0.288922 0.729988 0.571401 0.151697
C19   C     C_R   0.208609 0.599412 0.294498 0.381601
C20   C     C_R   0.153438 0.632394 0.367906 -0.144844
C21   C     C_R   0.087743 0.711445 0.394106 -0.229656
C22   C     C_R   0.079069 0.759950 0.348642 0.133497
C23   C     C_R   0.136883 0.727445 0.274846 -0.024663
C24   C     C_R   0.200972 0.646851 0.247657 -0.016089
C25   C     C_R   0.013749 0.840150 0.375148 0.126338
C26   C     C_R   0.012319 0.887179 0.328867 -0.165242
C27   C     C_R   0.068386 0.856190 0.255233 0.081007
C28   C     C_R   0.129219 0.775235 0.227954 -0.013051
C29   C     C_R   0.183071 0.741968 0.153896 0.014185
C30   C     C_R   0.245607 0.661631 0.127533 0.382992
C31   C     C_R   0.254840 0.615388 0.174056 -0.039861
C32   C     C_R   0.063646 0.904250 0.208358 0.109714
C33   C     C_R   0.111835 0.869340 0.133817 -0.075278
C34   C     C_R   0.172424 0.789474 0.107825 -0.196972
H7    H     H_    0.045427 0.734636 0.450748 0.139484
H8    H     H_    0.964005 0.948478 0.351339 0.146752
H9    H     H_    0.210844 0.764869 0.050868 0.164578
H10   H     H_    0.304389 0.554208 0.151521 0.242118
C35   C     C_R   0.480644 0.201471 0.881847 0.408268
C36   C     C_R   0.621784 0.141369 0.874899 -0.149374
C37   C     C_R   0.766897 0.130053 0.822287 -0.115917
C38   C     C_R   0.771643 0.175352 0.774844 0.106284
C39   C     C_R   0.624444 0.231248 0.777539 -0.000974
C40   C     C_R   0.472984 0.243626 0.830006 -0.026162
C41   C     C_R   0.921947 0.164493 0.724037 -0.128695
C42   C     C_R   0.930697 0.208979 0.675980 0.370290
C43   C     C_R   0.784891 0.264859 0.677246 0.031678
C44   C     C_R   0.630468 0.275138 0.727634 0.052595
C45   C     C_R   0.482188 0.329499 0.728104 0.086626
C46   C     C_R   0.329791 0.339409 0.777261 -0.193092
C47   C     C_R   0.322049 0.297490 0.827414 0.446373
C48   C     C_R   0.789223 0.310839 0.629602 -0.177220
C49   C     C_R   0.640787 0.364934 0.630184 -0.104217
C50   C     C_R   0.486637 0.373106 0.678958 -0.126084
H11   H     H_    0.876449 0.085067 0.817868 0.135220
H12   H     H_    0.034784 0.121631 0.722127 0.194633
H13   H     H_    0.906902 0.304530 0.591299 0.180206
H14   H     H_    0.372060 0.415006 0.679895 0.115411
H15   H     H_    0.213286 0.379738 0.776112 0.153188
H16   H     H_    0.546228 0.144968 0.450586 0.171459
C51   C     C_R   0.714781 0.403009 0.243765 -0.180458
C52   C     C_R   0.739242 0.415196 0.176694 0.430248
C53   C     C_R   0.725187 0.350245 0.112760 0.437497
C54   C     C_R   0.686259 0.273531 0.116281 -0.212452
C55   C     C_R   0.659487 0.259557 0.183790 -0.000062
C56   C     C_R   0.673666 0.325847 0.248611 0.008781
C57   C     C_R   0.618208 0.181184 0.186935 -0.118672
C58   C     C_R   0.592731 0.168742 0.256435 0.057913
C59   C     C_R   0.610534 0.236715 0.321037 0.036961
C60   C     C_R   0.646524 0.314537 0.316856 -0.111061
C61   C     C_R   0.551207 0.091914 0.265775 0.109314
C62   C     C_R   0.536369 0.085360 0.335920 -0.118758
C63   C     C_R   0.558289 0.151490 0.397082 -0.112466
C64   C     C_R   0.593475 0.226139 0.390100 -0.134377
H17   H     H_    0.726965 0.454974 0.291975 0.162811
H18   H     H_    0.676658 0.225281 0.065243 0.161903
H19   H     H_    0.505845 0.028111 0.343805 0.139223
H20   H     H_    0.608430 0.275595 0.440090 0.103220
O11   O     O_R   0.775200 0.060470 0.937800 -0.537621
O12   O     O_R   0.441110 0.093720 0.087350 -0.528985
O13   O     O_R   0.266330 0.939630 0.062280 -0.545814
C65   C     C_R   0.608940 0.114053 0.116969 0.707319
O14   O     O_R   0.445750 0.069950 0.939820 -0.516503
O15   O     O_R   0.271000 0.915700 0.913700 -0.538886
C66   C     C_R   0.614976 0.087953 0.920808 0.759508
O16   O     O_R   0.770530 0.084400 0.086380 -0.542545
O17   O     O_3   0.602830 0.949510 0.991680 -0.375329
V3    V     V_3+5 0.329710 0.009370 0.001550 1.512227
O18   O     O_R   0.940990 0.906170 0.912570 -0.542586
C67   C     C_R   0.110102 0.883482 0.884943 0.685181
O19   O     O_R   0.936350 0.929940 0.060100 -0.543598
C68   C     C_R   0.104342 0.915529 0.082023 0.684216
V4    V     V_3+5 0.829160 0.990450 0.998310 1.465004
O20   O     O_3   0.105910 0.050480 0.008320 -0.346882
Cl1   Cl    Cl    0.437940 0.867142 0.545461 -0.629851
C69   C     C_3   0.941854 0.876847 0.452253 -0.630079
H21   H     H_    0.818166 0.841200 0.462208 0.238452
H22   H     H_    0.058555 0.877830 0.491149 0.248616
H23   H     H_    0.892251 0.939543 0.463272 0.228129
C70   C     C_3   0.014280 0.992595 0.238775 -0.803427
H24   H     H_    0.014800 0.024194 0.197706 0.204120
H25   H     H_    0.868941 0.999139 0.263512 0.224642
H26   H     H_    0.120181 0.023676 0.281197 0.223681
Cl2   Cl    Cl    0.314806 0.615457 0.036064 -0.566872
Cl3   Cl    Cl    0.338502 0.230265 0.962329 -0.511237
Cl4   Cl    Cl    0.127061 0.191713 0.614764 -0.633043
Cl5   Cl    Cl    0.107223 0.312166 0.879023 -0.493852
Cl6   Cl    Cl    0.784836 0.513047 0.174469 -0.534005
Cl7   Cl    Cl    0.755261 0.363266 0.027120 -0.404268
C71   C     C_3   0.512433 0.015512 0.204743 -0.766237
H27   H     H_    0.637647 0.998106 0.167464 0.212478
H28   H     H_    0.482608 0.963570 0.224222 0.205710
H29   H     H_    0.381343 0.024476 0.176882 0.228080
Cl8   Cl    Cl    0.397389 0.015798 0.693342 -0.604848
Cl9   Cl    Cl    0.278416 0.497419 0.261712 -0.648875

loop_
_geom_bond_atom_site_label_1
_geom_bond_atom_site_label_2
_ccdc_geom_bond_type
C59   C60   A    
C54   H18   S    
C23   C24   A    
C7    C8    A    
C12   C15   A    
C65   O16   A    
C50   H14   S    
C71   H27   S    
C53   C54   A    
C35   C36   A    
C35   C40   A    
V3    O20   S    
C57   C58   A    
C17   C18   A    
C38   C41   A    
C16   C17   A    
C6    C7    A    
O19   V4    S    
C25   C69   S    
C30   Cl2   S    
C51   C56   A    
O11   V4    S    
C43   C48   A    
C64   H20   S    
C45   C50   A    
C19   C24   A    
C2    C60   S    
C70   H24   S    
O8    V2    S    
C39   C44   A    
C22   C25   A    
C29   C30   A    
C46   C47   A    
C23   C28   A    
O15   C67   A    
C48   C49   A    
O1    V2    S    
O9    C4    A    
O7    V1    S    
C37   H11   S    
C34   H9    S    
C1    O6    A    
C8    H4    S    
C44   C45   A    
O17   V4    S    
C47   Cl5   S    
C37   C38   A    
O14   C66   A    
C32   C70   S    
C59   C64   A    
C53   Cl7   S    
C3    C20   S    
C32   C33   A    
C20   C21   A    
C41   C42   A    
C45   C46   A    
C62   H19   S    
O14   V3    S    
C12   C13   A    
C7    H3    S    
C63   C64   A    
O4    C2    A    
C58   C59   A    
C13   C18   A    
C15   H5    S    
C36   C37   A    
C42   Cl4   S    
O13   C68   A    
C33   C34   A    
C40   C47   A    
C38   C39   A    
C16   Cl8   S    
C70   H26   S    
O2    C1    A    
C25   C26   A    
C19   C20   A    
C26   H8    S    
C35   Cl3   S    
C55   C56   A    
C11   C12   A    
C5    C6    A    
C4    C14   S    
O11   C66   A    
O3    C4    A    
C30   C31   A    
C55   C57   A    
C54   C55   A    
O6    V2    S    
O12   C65   A    
C9    C11   A    
C5    H1    S    
C19   Cl9   S    
C6    H2    S    
O18   C67   A    
O2    V1    S    
C71   H29   S    
C21   C22   A    
C26   C27   A    
C46   H15   S    
O13   V3    S    
C17   Cl1   S    
C28   C29   A    
C22   C23   A    
V4    O20   S    
O1    C2    A    
O18   V4    S    
C56   C60   A    
C52   C53   A    
C58   C61   A    
C71   H28   S    
O5    V1    S    
O16   V4    S    
C69   H22   S    
O8    C3    A    
C69   H21   S    
C29   C34   A    
C41   H12   S    
H16   C63   S    
C33   C68   S    
C31   H10   S    
O17   V3    S    
C5    C10   A    
O12   V3    S    
C18   H6    S    
C42   C43   A    
O9    V2    S    
C13   C14   A    
C51   H17   S    
O4    V1    S    
O3    V1    S    
V1    O10   S    
O19   C68   A    
O5    C3    A    
C62   C63   A    
C21   H7    S    
C52   Cl6   S    
C27   C32   A    
C11   C67   S    
O15   V3    S    
O7    V2    S    
C39   C40   A    
C70   H25   S    
C69   H23   S    
C24   C31   A    
C51   C52   A    
C27   C28   A    
C49   C50   A    
C8    C9    A    
C43   C44   A    
C10   C14   A    
C48   H13   S    
C57   C65   S    
C36   C66   S    
C61   C62   A    
C9    C10   A    
C1    C49   S    
V2    O10   S    
C15   C16   A    
C61   C71   S    
