data_mof_unit_49166.cif
_audit_creation_date              2012-12-10T19:44:56-0500
_audit_creation_method            fapswitch 2.2
_symmetry_space_group_name_H-M    P1
_symmetry_Int_Tables_number       1
_space_group_crystal_system       triclinic
_cell_length_a                    15.028975
_cell_length_b                    10.957085
_cell_length_c                    13.815255
_cell_angle_alpha                 89.016052
_cell_angle_beta                  91.471878
_cell_angle_gamma                 85.935119
_cell_volume                      2268.12667394

loop_
_atom_site_label
_atom_site_type_symbol
_atom_type_description
_atom_site_fract_x
_atom_site_fract_y
_atom_site_fract_z
_atom_type_partial_charge
C1    C     C_R   0.494854 0.262837 0.500500 0.809960
C2    C     C_R   0.505146 0.737162 0.499500 0.809940
C3    C     C_R   0.048442 0.381978 0.351726 -0.186339
C4    C     C_R   0.951558 0.618019 0.648275 -0.186342
C5    C     C_R   0.326880 0.233985 0.225524 -0.110959
C6    C     C_R   0.673127 0.766019 0.774474 -0.110960
C7    C     C_R   0.359697 0.178348 0.312358 -0.117402
C8    C     C_R   0.640309 0.821655 0.687640 -0.117451
C9    C     C_R   0.449223 0.132257 0.321253 0.153701
C10   C     C_R   0.550781 0.867742 0.678745 0.153701
C11   C     C_R   0.505722 0.144450 0.242622 -0.117642
C12   C     C_R   0.494283 0.855546 0.757377 -0.117621
C13   C     C_R   0.472252 0.198581 0.155542 -0.124661
C14   C     C_R   0.527755 0.801416 0.844457 -0.124668
C15   C     C_R   0.382907 0.243124 0.146962 -0.108626
C16   C     C_R   0.617101 0.756876 0.853036 -0.108623
C17   C     C_R   0.497252 0.939567 0.410721 -0.075423
C18   C     C_R   0.502749 0.060432 0.589279 -0.075450
C19   C     C_R   0.509414 0.871306 0.498722 -0.152402
C20   C     C_R   0.490588 0.128694 0.501278 -0.152411
C21   C     C_R   0.517675 0.933024 0.587647 -0.069239
C22   C     C_R   0.482328 0.066975 0.412353 -0.069242
C23   C     C_R   0.328786 0.499786 0.499196 0.823986
C24   C     C_R   0.671214 0.500213 0.500804 0.824062
C25   C     C_R   0.574090 0.448092 0.798374 0.547047
C26   C     C_R   0.425909 0.551908 0.201626 0.547049
C27   C     C_R   0.426086 0.544012 0.790829 -0.059215
C28   C     C_R   0.573914 0.455987 0.209171 -0.059214
C29   C     C_R   0.423269 0.538697 0.892800 -0.002488
C30   C     C_R   0.576731 0.461303 0.107200 -0.002488
C31   C     C_R   0.500349 0.500187 0.948366 0.043483
C32   C     C_R   0.499651 0.499813 0.051634 0.043484
C33   C     C_R   0.577972 0.461197 0.901062 -0.098755
C34   C     C_R   0.422028 0.538803 0.098937 -0.098760
C35   C     C_R   0.344549 0.570203 0.940301 -0.225347
C36   C     C_R   0.655451 0.429796 0.059699 -0.225351
C37   C     C_R   0.343218 0.566940 0.041290 -0.100586
C38   C     C_R   0.656782 0.433059 0.958709 -0.100581
C39   C     C_R   0.812999 0.558820 0.574891 -0.177203
C40   C     C_R   0.187001 0.441178 0.425110 -0.177207
C41   C     C_R   0.767964 0.499403 0.501645 -0.058513
C42   C     C_R   0.232037 0.500595 0.498355 -0.058575
C43   C     C_R   0.815189 0.441143 0.427210 -0.249480
C44   C     C_R   0.184811 0.558856 0.572790 -0.249499
C45   C     C_R   0.907843 0.440680 0.426112 0.108592
C46   C     C_R   0.092157 0.559318 0.573889 0.108601
C47   C     C_R   0.953383 0.499915 0.500315 0.059735
C48   C     C_R   0.046617 0.500082 0.499686 0.059739
C49   C     C_R   0.905726 0.559202 0.575020 0.102504
C50   C     C_R   0.094274 0.440795 0.424981 0.102508
C51   C     C_R   0.955654 0.382027 0.352235 -0.203489
C52   C     C_R   0.044346 0.617972 0.647766 -0.203491
Cu1   Cu    Cu3+1 0.500010 0.499980 0.597420 1.018346
Cu2   Cu    Cu3+1 0.499990 0.500020 0.402580 1.018333
H1    H     H_    0.775715 0.606049 0.630797 0.157992
H2    H     H_    0.224285 0.393948 0.369204 0.158001
H3    H     H_    0.367981 0.580285 0.749178 0.146255
H4    H     H_    0.632019 0.419715 0.250822 0.146256
H5    H     H_    0.283409 0.595966 0.899378 0.142055
H6    H     H_    0.716590 0.404032 0.100622 0.142054
H7    H     H_    0.278910 0.586320 0.072633 0.216108
H8    H     H_    0.721090 0.413677 0.927367 0.216107
H9    H     H_    0.779775 0.395293 0.370627 0.140710
H10   H     H_    0.220225 0.604708 0.629373 0.140714
H11   H     H_    0.921280 0.336240 0.294943 0.144683
H12   H     H_    0.078720 0.663759 0.705057 0.144683
H13   H     H_    0.084343 0.336161 0.294088 0.145999
H14   H     H_    0.915657 0.663836 0.705913 0.145996
H15   H     H_    0.357173 0.285074 0.079495 0.142019
H16   H     H_    0.642836 0.714927 0.920503 0.142015
H17   H     H_    0.257781 0.268919 0.218749 0.130568
H18   H     H_    0.742226 0.731089 0.781249 0.130564
H19   H     H_    0.315330 0.169997 0.372302 0.105673
H20   H     H_    0.684674 0.830008 0.627696 0.105666
H21   H     H_    0.575110 0.110390 0.248482 0.117316
H22   H     H_    0.424894 0.889603 0.751518 0.117318
H23   H     H_    0.515622 0.206182 0.094711 0.155700
H24   H     H_    0.484386 0.793812 0.905289 0.155697
N1    N     N_R   0.499960 0.499900 0.743810 -0.237238
N2    N     N_R   0.500040 0.500100 0.256190 -0.237237
O1    O     O_R   0.500000 0.319630 0.582270 -0.522317
O2    O     O_R   0.500000 0.680370 0.417730 -0.522321
O3    O     O_R   0.499990 0.319660 0.417730 -0.588865
O4    O     O_R   0.500010 0.680340 0.582270 -0.588870
O5    O     O_R   0.370260 0.499960 0.582280 -0.615783
O6    O     O_R   0.629740 0.500040 0.417720 -0.615806
O7    O     O_R   0.370250 0.499990 0.417740 -0.510610
O8    O     O_R   0.629750 0.500010 0.582260 -0.510572
C53   C     C_1   0.502920 0.881720 0.316860 0.353745
N3    N     N_1   0.508141 0.836714 0.241816 -0.238679
C54   C     C_1   0.497081 0.118279 0.683139 0.353684
N4    N     N_1   0.491859 0.163285 0.758184 -0.238678
S1    S     S_3+6 0.664621 0.349409 0.751851 0.006805
O9    O     O_2   0.745596 0.422142 0.748627 -0.356901
O10   O     O_2   0.684043 0.244802 0.823006 -0.311499
O11   O     O_3   0.652692 0.283330 0.644418 -0.509941
H25   H     H_    0.711449 0.240152 0.632425 0.356693
S2    S     S_3+6 0.335377 0.650589 0.248149 0.006812
O12   O     O_2   0.315951 0.755195 0.176994 -0.311408
O13   O     O_2   0.254405 0.577851 0.251375 -0.356966
O14   O     O_3   0.347309 0.716674 0.355579 -0.509997
H26   H     H_    0.288524 0.759662 0.367656 0.356733

loop_
_geom_bond_atom_site_label_1
_geom_bond_atom_site_label_2
_ccdc_geom_bond_type
C25   S1    S    
S1    O9    D    
C5    H17   S    
C27   C29   A    
C34   C37   A    
C2    O4    A    
C43   H9    S    
C7    H19   S    
Cu1   Cu2   S    
C44   H10   S    
C6    H18   S    
O14   H26   S    
C23   C42   S    
C4    C52   A    
Cu1   O4    S    
C18   C54   S    
C35   H5    S    
C35   C37   A    
C27   N1    A    
Cu2   O7    S    
C9    C22   S    
C45   C51   A    
C1    O1    A    
C18   C21   A    
C46   C52   A    
Cu1   O1    S    
C51   H11   S    
C26   C34   A    
C39   H1    S    
C31   C32   A    
C40   H2    S    
C31   C33   A    
C48   C50   A    
S1    O10   D    
C23   O7    A    
C24   C41   S    
C41   C43   A    
C42   C44   A    
Cu2   O3    S    
C3    C50   A    
C44   C46   A    
Cu2   N2    S    
C45   C47   A    
C10   C21   S    
C15   H15   S    
C13   H23   S    
C17   C53   S    
C47   C49   A    
C27   H3    S    
C54   N4    T    
C5    C7    A    
C3    C51   A    
C6    C8    A    
C4    H14   S    
C26   N2    A    
C32   C34   A    
C24   O8    A    
C47   C48   A    
C29   C31   A    
O11   H25   S    
C8    H20   S    
C16   H16   S    
C9    C11   A    
C10   C12   A    
C26   S2    S    
C39   C49   A    
C20   C22   A    
S1    O11   S    
S2    O13   D    
C13   C15   A    
C14   C16   A    
C2    O2    A    
C36   C38   A    
Cu2   O2    S    
C52   H12   S    
Cu2   O6    S    
C7    C9    A    
C1    C20   S    
Cu1   N1    S    
C2    C19   S    
C25   N1    A    
C3    H13   S    
C33   C38   A    
C12   C14   A    
C36   H6    S    
C37   H7    S    
C28   H4    S    
C1    O3    A    
S2    O14   S    
C29   C35   A    
C17   C22   A    
C30   C36   A    
C4    C49   A    
C12   H22   S    
C28   C30   A    
C43   C45   A    
C11   H21   S    
C30   C32   A    
C11   C13   A    
C40   C50   A    
C40   C42   A    
C17   C19   A    
Cu1   O8    S    
C18   C20   A    
C14   H24   S    
C28   N2    A    
C5    C15   A    
C6    C16   A    
C46   C48   A    
C39   C41   A    
C8    C10   A    
S2    O12   D    
C23   O5    A    
Cu1   O5    S    
C38   H8    S    
C53   N3    T    
C24   O6    A    
C25   C33   A    
C19   C21   A    
