data_mof_unit_46831.cif
_audit_creation_date              2012-12-10T17:32:18-0500
_audit_creation_method            fapswitch 2.2
_symmetry_space_group_name_H-M    P1
_symmetry_Int_Tables_number       1
_space_group_crystal_system       triclinic
_cell_length_a                    12.338476
_cell_length_b                    13.208439
_cell_length_c                    15.081976
_cell_angle_alpha                 77.356474
_cell_angle_beta                  101.454309
_cell_angle_gamma                 116.566522
_cell_volume                      2130.78434621

loop_
_atom_site_label
_atom_site_type_symbol
_atom_type_description
_atom_site_fract_x
_atom_site_fract_y
_atom_site_fract_z
_atom_type_partial_charge
C1    C     C_R   0.854677 0.286511 0.509512 0.763103
C2    C     C_R   0.895816 0.492930 0.077464 0.045261
C3    C     C_R   0.212404 0.525994 0.075538 -0.156053
C4    C     C_R   0.212703 0.526568 0.983332 -0.137372
C5    C     C_R   0.108259 0.515555 0.921599 -0.002430
C6    C     C_R   0.002378 0.504411 0.952957 0.016704
C7    C     C_R   0.897132 0.493711 0.891251 0.054851
C8    C     C_R   0.792539 0.482976 0.922544 -0.189104
C9    C     C_R   0.790995 0.482568 0.014879 0.275664
C10   C     C_R   0.107908 0.515372 0.829062 0.571752
C11   C     C_R   0.002318 0.503408 0.767736 -0.184037
C12   C     C_R   0.000596 0.501034 0.671048 0.840755
C13   C     C_R   0.897844 0.493440 0.799028 -0.304984
C14   C     C_R   0.271848 0.029898 0.400637 -0.248921
C15   C     C_R   0.227124 0.835523 0.473373 -0.183429
C16   C     C_R   0.811457 0.090725 0.588022 -0.229651
C17   C     C_R   0.727968 0.987222 0.628006 -0.141835
C18   C     C_R   0.603037 0.953851 0.603738 0.234312
C19   C     C_R   0.560195 0.017739 0.527523 0.035479
C20   C     C_R   0.646247 0.124898 0.488045 0.044590
C21   C     C_R   0.435471 0.982267 0.490689 0.081764
C22   C     C_R   0.396195 0.060739 0.429677 0.057016
C23   C     C_R   0.144973 0.713482 0.486534 0.869754
C24   C     C_R   0.481934 0.164986 0.392202 -0.174487
C25   C     C_R   0.605060 0.192159 0.415558 -0.157523
C26   C     C_R   0.350865 0.868233 0.504663 -0.237757
C27   C     C_R   0.186806 0.918262 0.424426 0.609341
C28   C     C_R   0.771184 0.164149 0.523673 -0.091100
C29   C     C_R   0.347014 0.327805 0.643836 -0.271273
C30   C     C_R   0.759851 0.643673 0.374531 0.141221
C31   C     C_R   0.662556 0.673178 0.344501 -0.263457
C32   C     C_R   0.558581 0.618806 0.389813 -0.116989
C33   C     C_R   0.550553 0.534238 0.467451 0.013912
C34   C     C_R   0.000891 0.500898 0.328785 0.857122
C35   C     C_R   0.652667 0.505628 0.494396 0.275572
C36   C     C_R   0.446234 0.475761 0.518717 -0.137617
C37   C     C_R   0.446420 0.388211 0.592794 0.095276
C38   C     C_R   0.546079 0.361289 0.616493 -0.231802
C39   C     C_R   0.646996 0.419257 0.569058 -0.178627
C40   C     C_R   0.341333 0.499283 0.501749 0.786245
C41   C     C_R   0.247053 0.353972 0.622545 0.015002
C42   C     C_R   0.897636 0.492350 0.170551 -0.284729
C43   C     C_R   0.002286 0.502203 0.231798 -0.204493
C44   C     C_R   0.107384 0.513630 0.200134 0.576056
C45   C     C_R   0.107704 0.514537 0.107588 0.001266
C46   C     C_R   0.001861 0.503957 0.046059 -0.021024
Cu1   Cu    Cu3+1 0.098270 0.475420 0.521130 1.061770
Cu2   Cu    Cu3+1 0.901730 0.524580 0.478870 0.962339
H1    H     H_    0.817458 0.483124 0.196375 0.221282
H2    H     H_    0.453883 0.222466 0.340345 0.162070
H3    H     H_    0.241101 0.090886 0.356436 0.174687
H4    H     H_    0.382271 0.802626 0.533664 0.232995
H5    H     H_    0.906840 0.118434 0.614954 0.170238
H6    H     H_    0.760704 0.937609 0.684438 0.183926
H7    H     H_    0.667252 0.267267 0.376188 0.172268
H8    H     H_    0.169795 0.307397 0.661423 0.154925
H9    H     H_    0.546683 0.294864 0.673231 0.160619
H10   H     H_    0.346750 0.260657 0.700068 0.167043
H11   H     H_    0.840070 0.685902 0.338696 0.176262
H12   H     H_    0.486685 0.644611 0.360448 0.247910
H13   H     H_    0.667289 0.737903 0.285346 0.175215
H14   H     H_    0.718832 0.392912 0.593452 0.202082
H15   H     H_    0.294414 0.534355 0.121645 0.209777
H16   H     H_    0.294863 0.535307 0.960653 0.223757
H17   H     H_    0.816417 0.484175 0.751782 0.182884
H18   H     H_    0.711556 0.474770 0.875100 0.180807
N1    N     N_R   0.246280 0.438190 0.553160 -0.226770
N2    N     N_R   0.754320 0.561190 0.447410 -0.222769
O1    O     O_R   0.972510 0.318130 0.526570 -0.595805
O2    O     O_R   0.806530 0.359650 0.490890 -0.615341
O3    O     O_R   0.082980 0.479210 0.647590 -0.522243
O4    O     O_R   0.917000 0.520730 0.611900 -0.617047
O5    O     O_R   0.193470 0.640350 0.509110 -0.527349
O6    O     O_R   0.027490 0.681870 0.473430 -0.541293
O7    O     O_R   0.083000 0.479270 0.388100 -0.480556
O8    O     O_R   0.917020 0.520790 0.352410 -0.617889
Br1   Br    Br    0.503940 0.839108 0.693527 -0.473976
F1    F     F_    0.210170 0.525830 0.258725 -0.637483
F2    F     F_    0.331911 0.583661 0.436273 -0.643728
F3    F     F_    0.210989 0.528636 0.798870 -0.635441
Br2   Br    Br    0.642688 0.467548 0.050594 -0.517405
F4    F     F_    0.067451 0.889695 0.392643 -0.661089

loop_
_geom_bond_atom_site_label_1
_geom_bond_atom_site_label_2
_ccdc_geom_bond_type
C16   C28   A    
C21   C26   A    
C8    H18   S    
C31   H13   S    
C19   C20   A    
C7    C8    A    
C41   N1    A    
C13   H17   S    
C45   C46   A    
C2    C46   A    
C36   C37   A    
C19   C21   A    
C23   O5    A    
C38   C39   A    
C31   C32   A    
C20   C25   A    
C33   C36   A    
C18   C19   A    
Cu2   O8    S    
C16   H5    S    
Cu1   O1    S    
Cu1   Cu2   S    
C8    C9    A    
C40   N1    A    
C1    C28   S    
C14   C27   A    
C34   O7    A    
C15   C23   S    
C12   O4    A    
C21   C22   A    
Cu2   O4    S    
Cu1   N1    S    
C24   H2    S    
Cu2   O6    S    
C36   C40   A    
C24   C25   A    
Cu1   O5    S    
C10   F3    S    
C16   C17   A    
C15   C26   A    
C20   C28   A    
C3    C45   A    
C1    O1    A    
C35   C39   A    
C43   C44   A    
C41   H8    S    
C37   C38   A    
C26   H4    S    
C38   H9    S    
C15   C27   A    
C14   H3    S    
C30   C31   A    
C30   H11   S    
C17   C18   A    
C40   F2    S    
Cu2   N2    S    
Cu1   O3    S    
C12   O3    A    
C22   C24   A    
C34   O8    A    
C42   C43   A    
C32   H12   S    
C23   O6    A    
C3    C4    A    
C44   C45   A    
C39   H14   S    
C6    C46   A    
C29   C41   A    
C27   F4    S    
C34   C43   S    
C25   H7    S    
Cu2   O2    S    
C4    C5    A    
C11   C12   S    
C6    C7    A    
C3    H15   S    
C4    H16   S    
C1    O2    A    
C32   C33   A    
C14   C22   A    
C44   F1    S    
Cu1   O7    S    
C5    C10   A    
C11   C13   A    
C5    C6    A    
C35   N2    A    
C2    C42   A    
C18   Br1   S    
C33   C35   A    
C10   C11   A    
C42   H1    S    
C7    C13   A    
C29   H10   S    
C29   C37   A    
C2    C9    A    
C17   H6    S    
C30   N2    A    
C9    Br2   S    
