data_mof_unit_24990.cif
_audit_creation_date              2012-12-11T16:57:19-0500
_audit_creation_method            fapswitch 2.2
_symmetry_space_group_name_H-M    P1
_symmetry_Int_Tables_number       1
_space_group_crystal_system       triclinic
_cell_length_a                    14.540701
_cell_length_b                    16.168301
_cell_length_c                    6.923673
_cell_angle_alpha                 90.005274
_cell_angle_beta                  98.699417
_cell_angle_gamma                 89.991812
_cell_volume                      1609.01812617

loop_
_atom_site_label
_atom_site_type_symbol
_atom_type_description
_atom_site_fract_x
_atom_site_fract_y
_atom_site_fract_z
_atom_type_partial_charge
O1    O     O_R   0.584990 0.413650 0.534420 -0.530525
O2    O     O_R   0.584990 0.586350 0.534420 -0.530165
O3    O     O_R   0.596190 0.585230 0.208380 -0.528733
O4    O     O_R   0.596190 0.414770 0.208380 -0.529199
O5    O     O_R   0.415010 0.586420 0.976930 -0.538667
O6    O     O_R   0.415010 0.413580 0.976930 -0.538633
C1    C     C_R   0.618599 0.614308 0.384099 0.713132
C2    C     C_R   0.618537 0.385656 0.384052 0.711764
O7    O     O_3   0.440560 0.500000 0.319140 -0.382408
V1    V     V_3+5 0.511030 0.500000 0.068070 1.501483
O8    O     O_R   0.403810 0.414840 0.643540 -0.547918
O9    O     O_R   0.403810 0.585160 0.643540 -0.547377
C3    C     C_R   0.382379 0.385545 0.806045 0.774528
C4    C     C_R   0.381012 0.613441 0.805860 0.779899
V2    V     V_3+5 0.488970 0.500000 0.560620 1.461234
O10   O     O_3   0.559440 0.500000 0.859420 -0.351991
H1    H     H_    0.307545 0.684644 0.100024 0.144453
H2    H     H_    0.329514 0.297979 0.101995 0.136939
C5    C     C_2   0.308750 0.678234 0.795268 -0.340224
C6    C     C_2   0.316767 0.315438 0.796283 -0.325088
C7    C     C_2   0.276502 0.706554 0.956463 -0.229585
C8    C     C_2   0.299158 0.275441 0.958534 -0.218595
H3    H     H_    0.238405 0.805397 0.242708 0.075744
H4    H     H_    0.211979 0.215950 0.241348 0.100118
C9    C     C_2   0.192364 0.816224 0.106161 -0.310131
C10   C     C_2   0.196495 0.180568 0.106866 -0.318888
C11   C     C_2   0.200435 0.769043 0.946994 0.409971
C12   C     C_2   0.237704 0.201238 0.949827 0.388565
H5    H     H_    0.281499 0.702503 0.651802 0.137110
H6    H     H_    0.283956 0.295666 0.652396 0.139557
C13   C     C_R   0.673080 0.752804 0.526490 -0.066503
C14   C     C_R   0.673009 0.247156 0.526347 -0.067826
C15   C     C_R   0.686471 0.683570 0.412816 -0.115168
C16   C     C_R   0.686347 0.316366 0.412654 -0.114755
C17   C     C_R   0.765712 0.685062 0.317302 -0.128011
C18   C     C_R   0.765525 0.314790 0.316934 -0.127775
H7    H     H_    0.778337 0.633906 0.223754 0.146412
H8    H     H_    0.778104 0.365890 0.223214 0.146110
C19   C     C_R   0.833053 0.749181 0.352901 0.292109
C20   C     C_R   0.832849 0.250631 0.352457 0.290623
C21   C     C_R   0.820611 0.816100 0.480287 -0.120140
C22   C     C_R   0.820487 0.183795 0.480139 -0.119284
C23   C     C_R   0.736778 0.816973 0.556853 -0.123034
C24   C     C_R   0.736662 0.183008 0.556694 -0.120334
C25   C     C_3   0.709088 0.838564 0.751270 0.203134
C26   C     C_3   0.708293 0.160847 0.750129 0.203766
C27   C     C_3   0.638554 0.767007 0.717416 0.195726
C28   C     C_3   0.637726 0.232442 0.716240 0.195418
H9    H     H_    0.676048 0.900533 0.751698 0.075948
H10   H     H_    0.675271 0.098836 0.749151 0.075391
H11   H     H_    0.564844 0.787651 0.698521 0.072092
H12   H     H_    0.564005 0.211789 0.695878 0.069511
O11   O     O_R   0.921430 0.915960 0.371040 -0.517426
O12   O     O_R   0.921430 0.084040 0.371040 -0.516150
O13   O     O_R   0.910450 0.087500 0.697310 -0.537543
O14   O     O_R   0.910450 0.912500 0.697310 -0.533314
O15   O     O_R   0.091710 0.087460 0.928430 -0.511760
O16   O     O_R   0.091710 0.912540 0.928430 -0.515680
C29   C     C_R   0.889239 0.115272 0.519793 0.748391
C30   C     C_R   0.889326 0.884660 0.519834 0.761701
O17   O     O_3   0.065970 1.000000 0.586140 -0.366639
V3    V     V_3+5 0.995640 1.000000 0.837400 1.621728
O18   O     O_R   0.103020 0.915700 0.261710 -0.545261
O19   O     O_R   0.103020 0.084300 0.261710 -0.542831
C31   C     C_R   0.123689 0.884590 0.099405 0.806814
C32   C     C_R   0.127028 0.112776 0.099817 0.803011
V4    V     V_3+5 0.017940 0.000000 0.344880 1.585953
O20   O     O_3   0.947330 0.000000 0.046180 -0.354716
O21   O     O_3   0.136365 0.778317 0.778685 -0.618645
H13   H     H_    0.136927 0.727973 0.697578 0.308804
O22   O     O_3   0.223544 0.152048 0.784131 -0.626728
H14   H     H_    0.274556 0.161733 0.707044 0.277926
O23   O     O_3   0.656689 0.701549 0.852456 -0.610379
H15   H     H_    0.714774 0.672964 0.831295 0.304721
O24   O     O_3   0.655378 0.297567 0.852338 -0.610611
H16   H     H_    0.713521 0.326327 0.832329 0.304720
Br1   Br    Br    0.946287 0.735830 0.245021 -0.572125
Br2   Br    Br    0.945888 0.263770 0.243746 -0.574591
O25   O     O_3   0.779759 0.826898 0.912023 -0.599125
H17   H     H_    0.820883 0.781214 0.881767 0.330502
O26   O     O_3   0.778482 0.172191 0.911917 -0.599512
H18   H     H_    0.819716 0.217984 0.882878 0.328986

loop_
_geom_bond_atom_site_label_1
_geom_bond_atom_site_label_2
_ccdc_geom_bond_type
O16   V3    S    
O18   C31   A    
O13   C29   A    
O1    C2    A    
C1    C15   S    
O23   H15   S    
O2    C1    A    
O15   C32   A    
O4    C2    A    
O26   H18   S    
O15   V3    S    
C19   C21   A    
C6    H6    S    
C13   C23   A    
C19   Br1   S    
C5    C7    D    
H4    C10   S    
C28   H12   S    
O3    C1    A    
V2    O10   S    
O13   V3    S    
O8    V2    S    
C13   C15   A    
O1    V2    S    
O7    V1    S    
C16   C18   A    
C11   O21   S    
C20   C22   A    
C7    C11   S    
C8    C12   S    
C21   C23   A    
C28   O24   S    
O17   V3    S    
C22   C24   A    
O11   C30   A    
C24   C26   S    
C26   C28   S    
O12   C29   A    
C25   C27   S    
O18   V4    S    
V4    O20   S    
C10   C32   S    
O19   V4    S    
C18   C20   A    
C9    C31   S    
C27   O23   S    
C27   H11   S    
O12   V4    S    
H1    C7    S    
O14   C30   A    
O19   C32   A    
C17   C19   A    
O24   H16   S    
C26   O26   S    
O17   V4    S    
O16   C31   A    
O9    V2    S    
C25   H9    S    
C14   C24   A    
C25   O25   S    
C2    C16   S    
O2    V2    S    
C23   C25   S    
O5    C4    A    
C6    C8    D    
O14   V3    S    
C12   O22   S    
O4    V1    S    
C5    H5    S    
C3    C6    S    
C17   H7    S    
H2    C8    S    
C4    C5    S    
C21   C30   S    
O9    C4    A    
C22   C29   S    
O6    V1    S    
C9    C11   D    
C26   H10   S    
C10   C12   D    
V3    O20   S    
C18   H8    S    
O7    V2    S    
O22   H14   S    
O3    V1    S    
V1    O10   S    
O6    C3    A    
O8    C3    A    
C14   C28   S    
C15   C17   A    
C20   Br2   S    
H3    C9    S    
O21   H13   S    
O11   V4    S    
O25   H17   S    
O5    V1    S    
C13   C27   S    
C14   C16   A    
