data_mof_unit_35905.cif
_audit_creation_date              2012-12-10T20:27:13-0500
_audit_creation_method            fapswitch 2.2
_symmetry_space_group_name_H-M    P1
_symmetry_Int_Tables_number       1
_space_group_crystal_system       triclinic
_cell_length_a                    10.648855
_cell_length_b                    10.681357
_cell_length_c                    9.864545
_cell_angle_alpha                 89.938311
_cell_angle_beta                  103.204384
_cell_angle_gamma                 89.422222
_cell_volume                      1092.30786704

loop_
_atom_site_label
_atom_site_type_symbol
_atom_type_description
_atom_site_fract_x
_atom_site_fract_y
_atom_site_fract_z
_atom_type_partial_charge
C1    C     C_R   0.504636 0.259834 0.501042 0.870468
C2    C     C_R   0.609929 0.521551 0.098856 -0.144635
C3    C     C_R   0.609917 0.521678 0.955095 -0.141630
C4    C     C_R   0.258540 0.507437 0.442857 0.975106
C5    C     C_R   0.387256 0.489387 0.900766 0.235680
C6    C     C_3   0.295545 0.383167 0.870892 -0.539787
C7    C     C_3   0.295383 0.382344 0.025318 -0.271037
C8    C     C_R   0.505056 0.740081 0.501085 0.932511
C9    C     C_R   0.741881 0.504695 0.557179 0.945577
C10   C     C_2   0.120523 0.527764 0.412313 -0.354419
C11   C     C_2   0.064204 0.591308 0.500646 0.029255
C12   C     C_R   0.527680 0.128398 0.505095 -0.097053
C13   C     C_2   0.878772 0.529670 0.586534 -0.379963
C14   C     C_2   0.927463 0.575554 0.483427 -0.267815
C15   C     C_R   0.550422 0.063496 0.630978 0.139512
C16   C     C_2   0.166657 0.416530 0.054723 0.465972
C17   C     C_2   0.131476 0.675812 0.613115 0.452836
C18   C     C_R   0.532805 0.064404 0.382282 -0.224420
C19   C     C_R   0.533164 0.935123 0.382449 -0.221914
C20   C     C_R   0.528424 0.871058 0.505417 -0.096452
C21   C     C_R   0.551329 0.935569 0.631376 0.120545
C22   C     C_3   0.487161 0.929270 0.751148 -0.444864
C23   C     C_3   0.485035 0.071237 0.749538 -0.503385
C24   C     C_R   0.387029 0.489577 0.043378 0.249579
H1    H     H_    0.868044 0.590975 0.379415 0.191825
H2    H     H_    0.385907 0.111455 0.718148 0.206548
H3    H     H_    0.699183 0.537039 0.174347 0.153723
H4    H     H_    0.699116 0.537325 0.923235 0.166603
H5    H     H_    0.340548 0.297913 0.837416 0.193228
H6    H     H_    0.120591 0.351477 0.112088 0.038901
H7    H     H_    0.339318 0.296222 0.080819 0.134063
H8    H     H_    0.090699 0.693954 0.702530 0.075902
H9    H     H_    0.547674 0.113126 0.843965 0.207539
H10   H     H_    0.202432 0.411701 0.800416 0.215979
H11   H     H_    0.938629 0.513183 0.690147 0.167761
H12   H     H_    0.062464 0.478866 0.323454 0.136589
H13   H     H_    0.525927 0.112926 0.284304 0.171934
H14   H     H_    0.526467 0.886830 0.284572 0.177094
H15   H     H_    0.389289 0.888696 0.723217 0.260447
H16   H     H_    0.551872 0.888912 0.846083 0.199819
N1    N     N_R   0.499160 0.499140 0.142600 -0.129352
N2    N     N_R   0.499160 0.499180 0.856960 -0.111203
O1    O     O_R   0.500020 0.316790 0.614700 -0.617684
O2    O     O_2   0.227919 0.731981 0.602707 -0.602017
O3    O     O_R   0.500000 0.316760 0.385350 -0.629708
O4    O     O_R   0.317820 0.500020 0.571850 -0.584932
O5    O     O_R   0.317800 0.499980 0.342510 -0.614808
O6    O     O_R   0.500000 0.683240 0.614650 -0.584885
O7    O     O_R   0.499980 0.683210 0.385300 -0.627188
O8    O     O_R   0.682200 0.500020 0.657490 -0.624678
O9    O     O_R   0.682180 0.499980 0.428150 -0.621356
O10   O     O_2   0.112476 0.515463 0.013731 -0.595055
Zn1   Zn    Zn3+2 0.500010 0.500020 0.653140 0.967132
Zn2   Zn    Zn3+2 0.499990 0.499980 0.346860 0.948111

loop_
_geom_bond_atom_site_label_1
_geom_bond_atom_site_label_2
_ccdc_geom_bond_type
C5    N2    A    
C8    O6    A    
C3    N2    A    
C6    C7    S    
C19   H14   S    
C19   C20   A    
C9    O9    A    
C12   C15   A    
O9    Zn2   S    
C22   H16   S    
C15   C23   S    
C2    C3    A    
C17   O2    D    
N2    Zn1   S    
C4    O4    A    
C21   C22   S    
C24   N1    A    
C5    C24   A    
C1    O3    A    
C8    C20   S    
C1    C12   S    
O5    Zn2   S    
C5    C6    S    
C22   H15   S    
O4    Zn1   S    
C7    C16   S    
C2    H3    S    
C1    O1    A    
O3    Zn2   S    
C13   H11   S    
C14   H1    S    
O1    Zn1   S    
O6    Zn1   S    
C11   C14   S    
N1    Zn2   S    
O8    Zn1   S    
C7    H7    S    
C10   C11   D    
C2    N1    A    
C4    C10   S    
C7    C24   S    
C6    H10   S    
C15   C21   A    
C6    H5    S    
C20   C21   A    
C16   O10   D    
C18   C19   A    
C23   H2    S    
C12   C18   A    
C17   H8    S    
C9    C13   S    
C22   C23   S    
C3    H4    S    
C10   H12   S    
C13   C14   D    
C16   H6    S    
C8    O7    A    
C18   H13   S    
C11   C17   S    
C9    O8    A    
O7    Zn2   S    
C23   H9    S    
C4    O5    A    
