data_mof_unit_50943.cif
_audit_creation_date              2013-03-05T16:03:52-0500
_audit_creation_method            fapswitch 2.2
_symmetry_space_group_name_H-M    P1
_symmetry_Int_Tables_number       1
_space_group_crystal_system       triclinic
_cell_length_a                    18.407965
_cell_length_b                    18.429352
_cell_length_c                    36.193371
_cell_angle_alpha                 89.98092
_cell_angle_beta                  89.851098
_cell_angle_gamma                 89.934598
_cell_volume                      12278.4375711

loop_
_atom_site_label
_atom_site_type_symbol
_atom_site_description
_atom_site_fract_x
_atom_site_fract_y
_atom_site_fract_z
_atom_type_partial_charge
Zn1   Zn    Zn3+2 0.086700 0.500000 0.219560 0.973959
Zn2   Zn    Zn3+2 0.913300 0.500000 0.780440 0.945205
Zn3   Zn    Zn3+2 0.500000 0.086700 0.219560 0.968467
Zn4   Zn    Zn3+2 0.500000 0.913300 0.780440 0.937633
Zn5   Zn    Zn3+2 0.913300 0.500000 0.219560 0.975256
Zn6   Zn    Zn3+2 0.086700 0.500000 0.780440 0.972332
Zn7   Zn    Zn3+2 0.500000 0.913300 0.219560 0.959714
Zn8   Zn    Zn3+2 0.500000 0.086700 0.780440 0.957810
Zn9   Zn    Zn3+2 0.586700 0.000000 0.719560 0.971511
Zn10  Zn    Zn3+2 0.413300 0.000000 0.280440 0.955202
Zn11  Zn    Zn3+2 0.000000 0.586700 0.719560 0.959202
Zn12  Zn    Zn3+2 0.000000 0.413300 0.280440 0.950030
Zn13  Zn    Zn3+2 0.413300 0.000000 0.719560 0.956264
Zn14  Zn    Zn3+2 0.586700 0.000000 0.280440 0.938758
Zn15  Zn    Zn3+2 0.000000 0.413300 0.719560 0.943039
Zn16  Zn    Zn3+2 0.000000 0.586700 0.280440 0.937550
C1    C     C_R   0.566515 0.007902 0.480380 0.153486
C2    C     C_R   0.433010 0.999329 0.519680 0.151225
C3    C     C_R   0.970046 0.561000 0.480296 0.151996
C4    C     C_R   0.030037 0.441645 0.519365 0.150344
C5    C     C_R   0.433109 0.997689 0.480619 0.152768
C6    C     C_R   0.566623 0.006859 0.519454 0.146258
C7    C     C_R   0.029980 0.441449 0.480315 0.150917
C8    C     C_R   0.968855 0.560520 0.519383 0.151726
C9    C     C_R   0.060734 0.528698 0.980166 0.145437
C10   C     C_R   0.939725 0.473049 0.019844 0.150456
C11   C     C_R   0.483803 0.065022 0.980364 0.151924
C12   C     C_R   0.512784 0.934500 0.019473 0.150900
C13   C     C_R   0.939336 0.472189 0.980720 0.158138
C14   C     C_R   0.061144 0.528975 0.019229 0.147263
C15   C     C_R   0.512998 0.934515 0.980391 0.150823
C16   C     C_R   0.483966 0.065086 0.019447 0.146231
O1    O     O_3   1.000000 0.500000 0.250000 -0.503699
O2    O     O_3   0.000000 0.500000 0.750000 -0.499883
O3    O     O_3   0.500000 0.000000 0.250000 -0.500262
O4    O     O_3   0.500000 1.000000 0.750000 -0.496809
O5    O     O_R   1.000000 0.560700 0.331550 -0.656786
O6    O     O_R   1.000000 0.439300 0.668450 -0.650345
O7    O     O_R   0.439300 0.000000 0.331550 -0.637793
O8    O     O_R   0.560700 1.000000 0.668450 -0.630356
O9    O     O_R   0.000000 0.439300 0.331550 -0.655067
O10   O     O_R   1.000000 0.560700 0.668450 -0.642650
O11   O     O_R   0.560700 0.000000 0.331550 -0.679050
O12   O     O_R   0.439300 1.000000 0.668450 -0.663301
O13   O     O_R   0.500000 0.060700 0.831550 -0.657520
O14   O     O_R   0.500000 0.939300 0.168450 -0.642705
O15   O     O_R   0.939300 0.500000 0.831550 -0.660135
O16   O     O_R   0.060700 0.500000 0.168450 -0.629969
O17   O     O_R   0.500000 0.939300 0.831550 -0.659483
O18   O     O_R   0.500000 0.060700 0.168450 -0.632831
O19   O     O_R   0.060700 0.500000 0.831550 -0.627097
O20   O     O_R   0.939300 0.500000 0.168450 -0.647583
O21   O     O_R   0.085400 0.353840 0.271430 -0.611694
O22   O     O_R   0.914600 0.646160 0.728570 -0.627672
O23   O     O_R   0.646160 0.085400 0.271430 -0.638140
O24   O     O_R   0.353840 0.914600 0.728570 -0.618196
O25   O     O_R   0.914600 0.646160 0.271430 -0.665480
O26   O     O_R   0.085400 0.353840 0.728570 -0.697742
O27   O     O_R   0.353840 0.914600 0.271430 -0.612885
O28   O     O_R   0.646160 0.085400 0.728570 -0.643354
O29   O     O_R   0.085400 0.646160 0.728570 -0.610482
O30   O     O_R   0.914600 0.353840 0.271430 -0.616949
O31   O     O_R   0.646160 0.914600 0.728570 -0.613521
O32   O     O_R   0.353840 0.085400 0.271430 -0.627219
O33   O     O_R   0.914600 0.353840 0.728570 -0.614542
O34   O     O_R   0.085400 0.646160 0.271430 -0.616365
O35   O     O_R   0.353840 0.085400 0.728570 -0.649981
O36   O     O_R   0.646160 0.914600 0.271430 -0.614632
O37   O     O_R   0.585400 0.853840 0.771430 -0.666152
O38   O     O_R   0.414600 0.146160 0.228570 -0.636689
O39   O     O_R   0.146160 0.585400 0.771430 -0.614858
O40   O     O_R   0.853840 0.414600 0.228570 -0.617252
O41   O     O_R   0.414600 0.146160 0.771430 -0.641538
O42   O     O_R   0.585400 0.853840 0.228570 -0.636903
O43   O     O_R   0.853840 0.414600 0.771430 -0.607196
O44   O     O_R   0.146160 0.585400 0.228570 -0.631674
O45   O     O_R   0.585400 0.146160 0.228570 -0.612869
O46   O     O_R   0.414600 0.853840 0.771430 -0.615052
O47   O     O_R   0.146160 0.414600 0.228570 -0.608722
O48   O     O_R   0.853840 0.585400 0.771430 -0.643491
O49   O     O_R   0.414600 0.853840 0.228570 -0.613918
O50   O     O_R   0.585400 0.146160 0.771430 -0.609588
O51   O     O_R   0.853840 0.585400 0.228570 -0.596209
O52   O     O_R   0.146160 0.414600 0.771430 -0.614245
C17   C     C_1   0.499836 0.001283 0.421406 -0.024675
C18   C     C_1   0.499955 0.001451 0.578628 -0.014415
C19   C     C_1   0.000485 0.501038 0.421285 -0.026521
C20   C     C_1   0.999243 0.500860 0.578532 -0.015748
C21   C     C_1   0.999685 0.500078 0.921376 -0.023266
C22   C     C_1   0.000550 0.500766 0.078577 -0.013288
C23   C     C_1   0.499148 0.999883 0.921331 -0.018100
C24   C     C_1   0.499101 0.999986 0.078567 -0.016317
C25   C     C_1   0.000284 0.500343 0.111746 -0.146870
C26   C     C_1   0.999700 0.499976 0.888212 -0.157077
C27   C     C_1   0.499554 0.000021 0.111748 -0.155400
C28   C     C_1   0.499585 0.999954 0.888177 -0.161222
C29   C     C_1   0.500071 0.000601 0.611787 -0.154739
C30   C     C_1   0.499833 0.000570 0.388236 -0.164567
C31   C     C_1   0.999521 0.500379 0.611723 -0.158243
C32   C     C_1   0.000472 0.500467 0.388142 -0.165007
C33   C     C_R   0.000171 0.500064 0.348840 0.816827
C34   C     C_R   0.999928 0.500057 0.651113 0.820021
C35   C     C_R   0.499934 0.999987 0.348882 0.816277
C36   C     C_R   0.500051 0.999939 0.651126 0.835884
C37   C     C_R   0.499985 0.999991 0.848853 0.822770
C38   C     C_R   0.499969 0.000008 0.151122 0.826627
C39   C     C_R   0.999902 0.499948 0.848872 0.815353
C40   C     C_R   0.000081 0.499981 0.151113 0.818858
C41   C     C_R   0.140519 0.360251 0.250362 0.872317
C42   C     C_R   0.860402 0.640983 0.750811 0.911062
C43   C     C_R   0.639563 0.140745 0.250759 0.909950
C44   C     C_R   0.360302 0.859621 0.749870 0.900137
C45   C     C_R   0.860447 0.640522 0.249762 0.920489
C46   C     C_R   0.141356 0.361257 0.748860 0.913562
C47   C     C_R   0.360330 0.859167 0.250636 0.883086
C48   C     C_R   0.640836 0.139524 0.750298 0.904775
C49   C     C_R   0.140094 0.640451 0.750115 0.909698
C50   C     C_R   0.858574 0.360912 0.250931 0.873519
C51   C     C_R   0.639792 0.859585 0.749932 0.920315
C52   C     C_R   0.359020 0.139467 0.249466 0.891691
C53   C     C_R   0.860990 0.358517 0.750945 0.901857
C54   C     C_R   0.140383 0.640028 0.250079 0.911932
C55   C     C_R   0.359370 0.139763 0.750157 0.967516
C56   C     C_R   0.639466 0.858899 0.250792 0.903074
C57   C     C_R   0.258204 0.689006 0.227198 0.308497
C58   C     C_R   0.747583 0.304307 0.777276 0.389342
C59   C     C_R   0.312590 0.259381 0.228380 0.301903
C60   C     C_R   0.681209 0.735539 0.766612 0.308775
C61   C     C_R   0.736014 0.315622 0.232059 0.304780
C62   C     C_R   0.252757 0.694352 0.776652 0.322149
C63   C     C_R   0.680172 0.731970 0.237874 0.290775
C64   C     C_R   0.279254 0.227191 0.783219 0.306313
C65   C     C_R   0.220485 0.276060 0.782480 0.303263
C66   C     C_R   0.732164 0.677147 0.241460 0.319529
C67   C     C_R   0.301733 0.752065 0.778817 0.288975
C68   C     C_R   0.678863 0.266630 0.237339 0.324570
C69   C     C_R   0.738473 0.686155 0.771402 0.356427
C70   C     C_R   0.264544 0.317547 0.233794 0.380195
C71   C     C_R   0.700329 0.245243 0.780230 0.275540
C72   C     C_R   0.317088 0.736286 0.232637 0.365764
C73   C     C_R   0.758929 0.188120 0.727115 0.338127
C74   C     C_R   0.244080 0.807885 0.275346 0.344715
C75   C     C_R   0.819440 0.766792 0.736821 0.307669
C76   C     C_R   0.184581 0.238444 0.269453 0.302886
C77   C     C_R   0.254754 0.799454 0.720696 0.288873
C78   C     C_R   0.755669 0.191151 0.276144 0.311078
C79   C     C_R   0.223887 0.276400 0.714825 0.300684
C80   C     C_R   0.820208 0.766008 0.263505 0.303954
C81   C     C_R   0.762747 0.814899 0.269433 0.371713
C82   C     C_R   0.270701 0.215861 0.715844 0.365971
C83   C     C_R   0.804068 0.249565 0.279098 0.354940
C84   C     C_R   0.194982 0.753205 0.723697 0.343563
C85   C     C_R   0.239959 0.187175 0.271559 0.308742
C86   C     C_R   0.767727 0.822214 0.740365 0.314726
C87   C     C_R   0.196527 0.749278 0.278586 0.281545
C88   C     C_R   0.817099 0.236163 0.731123 0.331563
C89   C     C_R   0.499825 0.002265 0.461216 0.042483
C90   C     C_R   0.499859 0.002573 0.538841 0.040555
C91   C     C_R   0.000303 0.501284 0.461048 0.043542
C92   C     C_R   0.999282 0.501021 0.538682 0.042335
C93   C     C_R   0.999895 0.500290 0.961177 0.041262
C94   C     C_R   0.000640 0.501113 0.038723 0.032846
C95   C     C_R   0.498618 0.999797 0.961112 0.042348
C96   C     C_R   0.498565 0.999854 0.038746 0.040142
C97   C     C_R   0.306305 0.800694 0.252854 -0.348326
C98   C     C_R   0.700366 0.191972 0.752289 -0.357850
C99   C     C_R   0.197432 0.305003 0.251454 -0.350734
C100  C     C_R   0.805523 0.698797 0.753134 -0.334020
C101  C     C_R   0.692769 0.199430 0.254150 -0.354419
C102  C     C_R   0.305041 0.802979 0.749798 -0.357089
C103  C     C_R   0.803669 0.695571 0.251077 -0.336014
C104  C     C_R   0.196662 0.304416 0.748559 -0.321418
C105  C     C_R   0.302205 0.195184 0.749829 -0.333758
C106  C     C_R   0.694566 0.801175 0.252767 -0.345091
C107  C     C_R   0.196482 0.696761 0.750181 -0.356555
C108  C     C_R   0.799123 0.307883 0.253772 -0.349716
C109  C     C_R   0.696786 0.804688 0.751758 -0.337884
C110  C     C_R   0.302799 0.195740 0.249553 -0.341071
C111  C     C_R   0.808296 0.298767 0.753433 -0.380542
C112  C     C_R   0.198789 0.693787 0.251751 -0.341394
C113  C     C_3   0.126692 0.559229 0.039566 -0.867171
H1    H     H_    0.121960 0.557184 0.070045 0.246312
H2    H     H_    0.176016 0.527783 0.032068 0.240162
H3    H     H_    0.134764 0.617031 0.032017 0.240324
C114  C     C_3   0.874444 0.441002 0.960268 -0.890871
H4    H     H_    0.879937 0.441371 0.929814 0.245722
H5    H     H_    0.866447 0.383460 0.968402 0.243767
H6    H     H_    0.824990 0.472960 0.967017 0.243274
C115  C     C_3   0.468452 0.135471 0.039998 -0.867074
H7    H     H_    0.469609 0.130371 0.070463 0.246284
H8    H     H_    0.509664 0.176857 0.032472 0.238958
H9    H     H_    0.413599 0.155818 0.032646 0.241493
C116  C     C_3   0.528833 0.864196 0.959822 -0.899495
H10   H     H_    0.527748 0.869308 0.929354 0.243255
H11   H     H_    0.583722 0.844038 0.967237 0.243384
H12   H     H_    0.487757 0.822630 0.967277 0.241129
C117  C     C_3   0.876231 0.444044 0.042389 -0.882791
H13   H     H_    0.830150 0.423528 0.025918 0.245378
H14   H     H_    0.895344 0.398560 0.059964 0.240765
H15   H     H_    0.854537 0.487732 0.060453 0.244707
C118  C     C_3   0.125935 0.558904 0.959313 -0.867620
H16   H     H_    0.133904 0.616827 0.966609 0.238827
H17   H     H_    0.175458 0.527726 0.966642 0.240773
H18   H     H_    0.120940 0.556484 0.928871 0.246945
C119  C     C_3   0.527918 0.864066 0.040058 -0.877541
H19   H     H_    0.526300 0.869168 0.070514 0.243100
H20   H     H_    0.486724 0.822739 0.032548 0.243236
H21   H     H_    0.582821 0.843599 0.032751 0.240376
C120  C     C_3   0.467526 0.135210 0.959765 -0.898724
H22   H     H_    0.468728 0.130083 0.929293 0.245918
H23   H     H_    0.412452 0.154957 0.967247 0.244181
H24   H     H_    0.508226 0.177119 0.967129 0.239545
C121  C     C_3   0.638668 0.010687 0.539893 -0.866199
H25   H     H_    0.633586 0.008328 0.570349 0.245740
H26   H     H_    0.673714 0.964399 0.531610 0.239441
H27   H     H_    0.666667 0.062356 0.533209 0.241650
C122  C     C_3   0.361311 0.990995 0.460206 -0.890891
H28   H     H_    0.366886 0.988209 0.429795 0.250620
H29   H     H_    0.333054 0.940570 0.468815 0.243207
H30   H     H_    0.326333 0.038504 0.466520 0.246104
C123  C     C_3   0.934840 0.624078 0.539943 -0.881791
H31   H     H_    0.934655 0.617910 0.570355 0.243054
H32   H     H_    0.965037 0.674656 0.533558 0.241819
H33   H     H_    0.877271 0.630576 0.531537 0.242806
C124  C     C_3   0.061887 0.376716 0.459768 -0.875280
H34   H     H_    0.058940 0.380957 0.429303 0.245090
H35   H     H_    0.120156 0.370409 0.466880 0.239048
H36   H     H_    0.032146 0.326614 0.467538 0.240579
C125  C     C_3   0.360855 0.998077 0.540326 -0.895287
H37   H     H_    0.366012 0.000296 0.570775 0.245266
H38   H     H_    0.327601 0.045668 0.532127 0.244429
H39   H     H_    0.330774 0.947630 0.533683 0.240566
C126  C     C_3   0.638240 0.014991 0.459688 -0.899214
H40   H     H_    0.632504 0.017860 0.429302 0.241717
H41   H     H_    0.666295 0.065563 0.468152 0.246279
H42   H     H_    0.673529 0.967673 0.465854 0.247040
C127  C     C_3   0.063146 0.377780 0.539890 -0.891304
H43   H     H_    0.061393 0.383286 0.570282 0.249899
H44   H     H_    0.033464 0.327249 0.532921 0.246253
H45   H     H_    0.121204 0.371686 0.532152 0.242698
C128  C     C_3   0.938537 0.625726 0.459686 -0.898217
H46   H     H_    0.942999 0.621882 0.429243 0.242843
H47   H     H_    0.879907 0.631431 0.466286 0.243436
H48   H     H_    0.967479 0.675972 0.467892 0.240666
O53   O     O_3   0.248786 0.653837 0.193530 -0.611623
C129  C     C_3   0.299623 0.597674 0.187248 0.193593
H49   H     H_    0.268627 0.547046 0.181933 0.180552
H50   H     H_    0.335307 0.585366 0.211031 0.098463
C130  C     C_3   0.344341 0.615270 0.152664 -0.329047
H51   H     H_    0.307356 0.620899 0.128599 0.223157
H52   H     H_    0.373213 0.667581 0.156248 0.263301
C131  C     C_3   0.399811 0.555996 0.144489 -0.998364
H53   H     H_    0.436248 0.548115 0.168562 0.264218
H54   H     H_    0.433244 0.571725 0.120207 0.275527
H55   H     H_    0.371588 0.504353 0.138122 0.276510
O54   O     O_3   0.739660 0.363660 0.800579 -0.589883
C132  C     C_3   0.673361 0.400934 0.793849 0.143143
H56   H     H_    0.657275 0.427191 0.820260 0.123203
H57   H     H_    0.626859 0.365398 0.786350 0.163406
C133  C     C_3   0.682438 0.461341 0.764961 -0.349726
H58   H     H_    0.639185 0.502456 0.769456 0.200402
H59   H     H_    0.735532 0.488725 0.768553 0.293798
C134  C     C_3   0.675458 0.433854 0.725322 -0.873937
H60   H     H_    0.721056 0.397338 0.718013 0.259272
H61   H     H_    0.676639 0.480726 0.706047 0.256943
H62   H     H_    0.623251 0.404632 0.721595 0.252755
O55   O     O_3   0.354125 0.256608 0.196288 -0.604020
C135  C     C_3   0.418474 0.298056 0.198728 0.194496
H63   H     H_    0.465484 0.260268 0.197988 0.204587
H64   H     H_    0.423636 0.330076 0.224445 0.085749
C136  C     C_3   0.423491 0.347677 0.164959 -0.337206
H65   H     H_    0.421234 0.314133 0.139464 0.229631
H66   H     H_    0.376388 0.385300 0.164782 0.250470
C137  C     C_3   0.493697 0.391593 0.164630 -0.990192
H67   H     H_    0.494495 0.429969 0.188250 0.255100
H68   H     H_    0.497217 0.423357 0.138624 0.274512
H69   H     H_    0.541610 0.355058 0.166108 0.289016
O56   O     O_3   0.609887 0.710477 0.767524 -0.612559
C138  C     C_3   0.580027 0.710841 0.803648 0.202070
H70   H     H_    0.536595 0.752567 0.805030 0.198425
H71   H     H_    0.619487 0.724572 0.825776 0.077832
C139  C     C_3   0.543404 0.637726 0.811121 -0.349675
H72   H     H_    0.498408 0.629770 0.791094 0.226048
H73   H     H_    0.582821 0.592905 0.807115 0.232371
C140  C     C_3   0.512783 0.633932 0.850271 -1.012994
H74   H     H_    0.556848 0.640726 0.870878 0.262668
H75   H     H_    0.486682 0.580364 0.854753 0.266248
H76   H     H_    0.471463 0.677038 0.854406 0.278103
O57   O     O_3   0.725943 0.376498 0.210034 -0.609669
C141  C     C_3   0.718273 0.356286 0.172449 0.157693
H77   H     H_    0.691361 0.402024 0.157877 0.159584
H78   H     H_    0.682514 0.308246 0.168450 0.152664
C142  C     C_3   0.792570 0.343026 0.154364 -0.364628
H79   H     H_    0.825819 0.393179 0.156092 0.261573
H80   H     H_    0.821513 0.298810 0.169161 0.204773
C143  C     C_3   0.784521 0.321579 0.113882 -0.984268
H81   H     H_    0.750738 0.271927 0.111366 0.270060
H82   H     H_    0.838934 0.310074 0.101962 0.268752
H83   H     H_    0.758943 0.366362 0.097984 0.271414
O58   O     O_3   0.256344 0.638430 0.802287 -0.598776
C144  C     C_3   0.322152 0.599017 0.798116 0.146321
H84   H     H_    0.357929 0.611781 0.821911 0.182045
H85   H     H_    0.352677 0.611829 0.772157 0.114824
C145  C     C_3   0.305784 0.517712 0.798186 -0.298845
H86   H     H_    0.277585 0.502728 0.824287 0.239803
H87   H     H_    0.269483 0.504691 0.774636 0.247137
C146  C     C_3   0.375267 0.473006 0.794457 -1.009806
H88   H     H_    0.404028 0.486828 0.768373 0.270996
H89   H     H_    0.361516 0.414407 0.793882 0.274573
H90   H     H_    0.411863 0.483538 0.818191 0.262990
O59   O     O_3   0.613085 0.715595 0.222935 -0.621052
C147  C     C_3   0.619403 0.715527 0.183994 0.137163
H91   H     H_    0.652326 0.668235 0.174611 0.166045
H92   H     H_    0.645246 0.766606 0.173868 0.135334
C148  C     C_3   0.543667 0.709967 0.167078 -0.292615
H93   H     H_    0.518688 0.657622 0.175323 0.221662
H94   H     H_    0.509117 0.754971 0.177619 0.280686
C149  C     C_3   0.546579 0.713953 0.124996 -0.990080
H95   H     H_    0.570691 0.766292 0.115987 0.269829
H96   H     H_    0.490698 0.710064 0.113692 0.273678
H97   H     H_    0.579476 0.668421 0.113766 0.265968
O60   O     O_3   0.306724 0.201548 0.816514 -0.630866
C150  C     C_3   0.338978 0.258054 0.837487 0.120798
H98   H     H_    0.328028 0.246488 0.867109 0.160298
H99   H     H_    0.316508 0.313053 0.831930 0.164277
C151  C     C_3   0.421311 0.259524 0.831391 -0.311360
H100  H     H_    0.444199 0.204634 0.836469 0.263163
H101  H     H_    0.433015 0.275447 0.802363 0.232452
C152  C     C_3   0.458334 0.313309 0.857251 -1.015786
H102  H     H_    0.434476 0.368271 0.854026 0.271446
H103  H     H_    0.517125 0.316244 0.850505 0.284617
H104  H     H_    0.452123 0.295488 0.886412 0.268347
O61   O     O_3   0.188035 0.298572 0.815128 -0.626679
C153  C     C_3   0.138564 0.245148 0.827831 0.127118
H105  H     H_    0.150840 0.234181 0.857349 0.163342
H106  H     H_    0.142508 0.191882 0.813164 0.126404
C154  C     C_3   0.060832 0.274279 0.824997 -0.347571
H107  H     H_    0.055773 0.324833 0.841561 0.231121
H108  H     H_    0.048382 0.287497 0.795803 0.201264
C155  C     C_3   0.005412 0.218956 0.838758 -1.002786
H109  H     H_    0.008491 0.168573 0.821983 0.265681
H110  H     H_    0.949836 0.241903 0.836177 0.263393
H111  H     H_    0.015545 0.205612 0.868226 0.274696
O62   O     O_3   0.713324 0.605808 0.234285 -0.593965
C156  C     C_3   0.677760 0.575930 0.265613 0.142499
H112  H     H_    0.625759 0.551747 0.256159 0.152576
H113  H     H_    0.664031 0.616240 0.287656 0.111809
C157  C     C_3   0.724485 0.515935 0.282602 -0.330478
H114  H     H_    0.732754 0.472348 0.261949 0.273374
H115  H     H_    0.778395 0.538000 0.290411 0.197439
C158  C     C_3   0.688729 0.483890 0.317005 -1.036684
H116  H     H_    0.686821 0.525024 0.339409 0.276646
H117  H     H_    0.720656 0.436452 0.326716 0.267209
H118  H     H_    0.632558 0.465923 0.310810 0.264944
O63   O     O_3   0.348967 0.755322 0.808466 -0.615437
C159  C     C_3   0.317276 0.799184 0.836178 0.138944
H119  H     H_    0.265324 0.774954 0.846144 0.141107
H120  H     H_    0.306455 0.854886 0.825457 0.121880
C160  C     C_3   0.369602 0.804691 0.868783 -0.335150
H121  H     H_    0.374914 0.750599 0.882079 0.210539
H122  H     H_    0.424067 0.821715 0.858715 0.249190
C161  C     C_3   0.342837 0.859343 0.897430 -0.958306
H123  H     H_    0.339723 0.914467 0.885096 0.265042
H124  H     H_    0.381226 0.860958 0.921008 0.275833
H125  H     H_    0.288378 0.843463 0.907935 0.262525
O64   O     O_3   0.609141 0.285753 0.226903 -0.625322
C162  C     C_3   0.579229 0.332334 0.254238 0.104900
H126  H     H_    0.541224 0.370121 0.240454 0.148944
H127  H     H_    0.620298 0.367636 0.267949 0.148083
C163  C     C_3   0.537227 0.288729 0.283365 -0.383168
H128  H     H_    0.494128 0.256324 0.269719 0.220385
H129  H     H_    0.574580 0.250792 0.297740 0.201790
C164  C     C_3   0.502626 0.338519 0.312136 -1.007240
H130  H     H_    0.545426 0.366020 0.328523 0.273536
H131  H     H_    0.468252 0.306005 0.331180 0.266948
H132  H     H_    0.468209 0.380200 0.298619 0.258736
O65   O     O_3   0.726926 0.622949 0.791351 -0.622526
C165  C     C_3   0.733988 0.636849 0.829889 0.037611
H133  H     H_    0.682939 0.619729 0.843603 0.166033
H134  H     H_    0.743079 0.695113 0.837147 0.094006
C166  C     C_3   0.795607 0.591870 0.846575 -0.249284
H135  H     H_    0.791970 0.534936 0.836595 0.264407
H136  H     H_    0.848514 0.615407 0.838009 0.224935
C167  C     C_3   0.792494 0.591997 0.888728 -1.001582
H137  H     H_    0.795084 0.648433 0.899409 0.263851
H138  H     H_    0.839433 0.561150 0.899832 0.282218
H139  H     H_    0.741607 0.565917 0.898547 0.265988
O66   O     O_3   0.283259 0.386553 0.221923 -0.605820
C168  C     C_3   0.326222 0.420712 0.249545 0.047698
H140  H     H_    0.370061 0.451423 0.235318 0.143547
H141  H     H_    0.353623 0.381845 0.268674 0.109896
C169  C     C_3   0.281573 0.474242 0.272687 -0.320722
H142  H     H_    0.260556 0.518035 0.254663 0.224979
H143  H     H_    0.234895 0.446181 0.285749 0.207678
C170  C     C_3   0.327458 0.507346 0.303447 -1.034911
H144  H     H_    0.339670 0.465643 0.324719 0.278423
H145  H     H_    0.297166 0.552578 0.316697 0.258568
H146  H     H_    0.379564 0.528360 0.292340 0.260345
O67   O     O_3   0.651588 0.242823 0.809397 -0.613037
C171  C     C_3   0.681210 0.198116 0.837282 0.131217
H147  H     H_    0.733646 0.220810 0.847413 0.136128
H148  H     H_    0.690524 0.142080 0.826672 0.120494
C172  C     C_3   0.627996 0.194159 0.869687 -0.318082
H149  H     H_    0.622095 0.248878 0.882247 0.216921
H150  H     H_    0.573924 0.176482 0.859579 0.252852
C173  C     C_3   0.654113 0.140861 0.899088 -0.972439
H151  H     H_    0.657983 0.085263 0.887380 0.262957
H152  H     H_    0.614978 0.139988 0.922451 0.277623
H153  H     H_    0.708129 0.157487 0.909733 0.264816
O68   O     O_3   0.385802 0.717936 0.220193 -0.627849
C174  C     C_3   0.420121 0.673836 0.247328 0.054294
H154  H     H_    0.458707 0.637223 0.232845 0.164860
H155  H     H_    0.381390 0.638006 0.262401 0.105265
C175  C     C_3   0.462380 0.718944 0.275636 -0.291409
H156  H     H_    0.501786 0.754414 0.261170 0.274545
H157  H     H_    0.424625 0.753537 0.291812 0.183676
C176  C     C_3   0.502716 0.670189 0.302762 -0.977868
H158  H     H_    0.463361 0.639928 0.320235 0.264362
H159  H     H_    0.537821 0.703720 0.320887 0.258580
H160  H     H_    0.537090 0.630755 0.287641 0.263938
O69   O     O_3   0.753158 0.147794 0.694866 -0.594674
C177  C     C_3   0.795988 0.084048 0.696164 0.186179
H161  H     H_    0.759827 0.036921 0.701188 0.201712
H162  H     H_    0.837733 0.083768 0.718244 0.094368
C178  C     C_3   0.832815 0.073570 0.658638 -0.310531
H163  H     H_    0.791096 0.075099 0.636491 0.233287
H164  H     H_    0.871738 0.118549 0.653637 0.241409
C179  C     C_3   0.872893 0.001216 0.656598 -1.018424
H165  H     H_    0.914234 0.997398 0.678797 0.253573
H166  H     H_    0.900692 0.996260 0.629457 0.270726
H167  H     H_    0.833647 0.955836 0.659448 0.288828
O70   O     O_3   0.233024 0.869484 0.296625 -0.599510
C180  C     C_3   0.171751 0.908147 0.283408 0.135814
H168  H     H_    0.152782 0.944461 0.305911 0.152669
H169  H     H_    0.124926 0.872386 0.276709 0.169128
C181  C     C_3   0.191265 0.954749 0.249728 -0.345877
H170  H     H_    0.232649 0.995539 0.257701 0.281837
H171  H     H_    0.214202 0.920323 0.227371 0.200568
C182  C     C_3   0.124299 0.993428 0.234895 -0.967819
H172  H     H_    0.085282 0.953439 0.223437 0.264069
H173  H     H_    0.140365 0.031746 0.212660 0.268073
H174  H     H_    0.097423 0.023899 0.257495 0.275153
O71   O     O_3   0.887122 0.781360 0.721637 -0.626916
C183  C     C_3   0.881679 0.800583 0.683802 0.126850
H175  H     H_    0.907451 0.854516 0.680391 0.164362
H176  H     H_    0.824967 0.804830 0.673094 0.137455
C184  C     C_3   0.923060 0.745356 0.660204 -0.302766
H177  H     H_    0.977250 0.734654 0.672506 0.269485
H178  H     H_    0.892408 0.693461 0.659596 0.226182
C185  C     C_3   0.933285 0.772542 0.620713 -1.000173
H179  H     H_    0.879719 0.780866 0.607292 0.269395
H180  H     H_    0.964612 0.731898 0.604604 0.279409
H181  H     H_    0.963932 0.824442 0.620575 0.265931
O72   O     O_3   0.119873 0.224385 0.287658 -0.598273
C186  C     C_3   0.071576 0.189294 0.263185 0.156647
H182  H     H_    0.099510 0.148645 0.245316 0.127165
H183  H     H_    0.045131 0.230146 0.245012 0.139673
C187  C     C_3   0.013281 0.150377 0.285846 -0.333540
H184  H     H_    0.039135 0.107216 0.302796 0.205492
H185  H     H_    0.986918 0.189632 0.304928 0.273600
C188  C     C_3   0.955526 0.116445 0.261106 -0.886586
H186  H     H_    0.925596 0.159377 0.245878 0.275541
H187  H     H_    0.916438 0.085474 0.278338 0.295633
H188  H     H_    0.980674 0.078613 0.240923 0.247678
O73   O     O_3   0.261748 0.843098 0.689765 -0.619299
C189  C     C_3   0.305923 0.806586 0.663771 0.134608
H189  H     H_    0.278922 0.755764 0.654312 0.145549
H190  H     H_    0.359869 0.792894 0.675945 0.119837
C190  C     C_3   0.318165 0.855817 0.630351 -0.328678
H191  H     H_    0.265394 0.866359 0.616448 0.220921
H192  H     H_    0.340764 0.908593 0.639666 0.251052
C191  C     C_3   0.370774 0.821211 0.602828 -0.974517
H193  H     H_    0.424344 0.811444 0.616055 0.264067
H194  H     H_    0.378959 0.858049 0.578951 0.276802
H195  H     H_    0.348580 0.768917 0.592568 0.267331
O74   O     O_3   0.775904 0.123803 0.290016 -0.596053
C192  C     C_3   0.754588 0.115137 0.327421 0.192876
H196  H     H_    0.708556 0.076560 0.328949 0.177326
H197  H     H_    0.735324 0.165749 0.341004 0.073435
C193  C     C_3   0.817521 0.081377 0.348985 -0.360972
H198  H     H_    0.830269 0.027113 0.337212 0.231745
H199  H     H_    0.866853 0.115591 0.346206 0.241497
C194  C     C_3   0.798608 0.072857 0.389817 -1.007515
H200  H     H_    0.788797 0.126781 0.402596 0.265333
H201  H     H_    0.844336 0.046071 0.404416 0.274618
H202  H     H_    0.749229 0.038958 0.393095 0.274126
O75   O     O_3   0.220739 0.317214 0.682477 -0.621316
C195  C     C_3   0.154592 0.307319 0.663268 0.146857
H203  H     H_    0.122949 0.358471 0.664851 0.176121
H204  H     H_    0.119709 0.263690 0.675000 0.131291
C196  C     C_3   0.170033 0.293964 0.622155 -0.363039
H205  H     H_    0.173017 0.346877 0.607470 0.209030
H206  H     H_    0.223542 0.267307 0.618375 0.250435
C197  C     C_3   0.111216 0.247148 0.604430 -0.994273
H207  H     H_    0.110391 0.192308 0.617138 0.261063
H208  H     H_    0.122546 0.241084 0.574450 0.275534
H209  H     H_    0.057003 0.272686 0.608122 0.279024
O76   O     O_3   0.890755 0.791953 0.259611 -0.617351
C198  C     C_3   0.926617 0.800823 0.293826 0.200134
H210  H     H_    0.975010 0.764733 0.293872 0.197801
H211  H     H_    0.893913 0.785077 0.318379 0.083764
C199  C     C_3   0.953715 0.879173 0.296992 -0.340454
H212  H     H_    0.991360 0.890908 0.273701 0.222694
H213  H     H_    0.907534 0.917655 0.294918 0.257921
C200  C     C_3   0.993249 0.892162 0.333363 -1.030031
H214  H     H_    0.956407 0.881667 0.357114 0.265054
H215  H     H_    0.011818 0.949423 0.334644 0.267098
H216  H     H_    0.041413 0.856151 0.335371 0.289769
O77   O     O_3   0.774087 0.877116 0.290121 -0.595843
C201  C     C_3   0.771128 0.859683 0.328472 0.055469
H217  H     H_    0.817443 0.887031 0.342230 0.159578
H218  H     H_    0.776165 0.800492 0.334718 0.092702
C202  C     C_3   0.700912 0.887418 0.346224 -0.264586
H219  H     H_    0.695094 0.946363 0.340703 0.253427
H220  H     H_    0.653789 0.858121 0.334310 0.214425
C203  C     C_3   0.700681 0.874869 0.387903 -1.023837
H221  H     H_    0.705751 0.816051 0.394107 0.268878
H222  H     H_    0.648705 0.894817 0.399767 0.279971
H223  H     H_    0.746294 0.904430 0.401095 0.271158
O78   O     O_3   0.294641 0.183432 0.683313 -0.598545
C204  C     C_3   0.237591 0.144004 0.666085 0.093684
H224  H     H_    0.243122 0.151776 0.635829 0.170376
H225  H     H_    0.182298 0.162104 0.674103 0.114551
C205  C     C_3   0.242941 0.062446 0.673663 -0.291180
H226  H     H_    0.298136 0.042722 0.666326 0.270219
H227  H     H_    0.232238 0.051858 0.703397 0.228625
C206  C     C_3   0.187338 0.020232 0.651009 -1.025018
H228  H     H_    0.131339 0.038347 0.657912 0.264807
H229  H     H_    0.192031 0.961514 0.657296 0.296438
H230  H     H_    0.197314 0.028216 0.620999 0.268155
O79   O     O_3   0.856283 0.249227 0.306607 -0.601198
C207  C     C_3   0.825765 0.277044 0.339915 0.053031
H231  H     H_    0.831956 0.235179 0.361681 0.162433
H232  H     H_    0.766634 0.290878 0.338271 0.094509
C208  C     C_3   0.866779 0.344259 0.352842 -0.273745
H233  H     H_    0.925578 0.331211 0.354688 0.257535
H234  H     H_    0.858505 0.389115 0.332812 0.218574
C209  C     C_3   0.839778 0.369339 0.390677 -0.998486
H235  H     H_    0.780697 0.381519 0.389692 0.264959
H236  H     H_    0.868883 0.419374 0.398953 0.277589
H237  H     H_    0.849973 0.326785 0.411787 0.269556
O80   O     O_3   0.136898 0.760419 0.699549 -0.598059
C210  C     C_3   0.100495 0.827480 0.705578 0.134971
H238  H     H_    0.059619 0.834147 0.683342 0.152470
H239  H     H_    0.137342 0.874846 0.702955 0.174826
C211  C     C_3   0.060998 0.829943 0.743057 -0.368667
H240  H     H_    0.020361 0.785595 0.744448 0.274136
H241  H     H_    0.100262 0.822134 0.765973 0.192899
C212  C     C_3   0.023484 0.902975 0.748729 -0.959760
H242  H     H_    0.064144 0.947482 0.748705 0.262370
H243  H     H_    0.994820 0.903194 0.775742 0.260131
H244  H     H_    0.983562 0.913003 0.726411 0.264700
O81   O     O_3   0.227408 0.123960 0.291161 -0.608430
C213  C     C_3   0.242051 0.136781 0.328874 0.143557
H245  H     H_    0.205544 0.179619 0.340229 0.161479
H246  H     H_    0.299685 0.153734 0.332700 0.124857
C214  C     C_3   0.229049 0.066713 0.350395 -0.300853
H247  H     H_    0.171432 0.049971 0.347124 0.208628
H248  H     H_    0.264470 0.023045 0.339126 0.261599
C215  C     C_3   0.245181 0.076630 0.391383 -0.994808
H249  H     H_    0.302863 0.092396 0.395358 0.270995
H250  H     H_    0.235039 0.024830 0.406181 0.276211
H251  H     H_    0.209403 0.119162 0.403368 0.266082
O82   O     O_3   0.785161 0.892404 0.729870 -0.626771
C216  C     C_3   0.827183 0.926003 0.757783 0.100610
H252  H     H_    0.864828 0.964431 0.743986 0.153458
H253  H     H_    0.861907 0.887393 0.773654 0.148304
C217  C     C_3   0.778400 0.968702 0.784397 -0.380772
H254  H     H_    0.742048 0.005181 0.768500 0.228833
H255  H     H_    0.744243 0.930374 0.800536 0.199265
C218  C     C_3   0.823265 0.014359 0.811063 -1.007363
H256  H     H_    0.860471 0.979185 0.827261 0.273900
H257  H     H_    0.786509 0.043215 0.830498 0.260329
H258  H     H_    0.855600 0.055246 0.795619 0.254356
O83   O     O_3   0.143426 0.751182 0.305699 -0.620141
C219  C     C_3   0.168913 0.712334 0.336720 0.136020
H259  H     H_    0.217849 0.739208 0.348537 0.141392
H260  H     H_    0.182887 0.655366 0.329041 0.120142
C220  C     C_3   0.109254 0.710724 0.366173 -0.327108
H261  H     H_    0.099528 0.766641 0.376547 0.211287
H262  H     H_    0.057987 0.690401 0.353789 0.250828
C221  C     C_3   0.130044 0.661971 0.398566 -0.954407
H263  H     H_    0.137977 0.605225 0.389012 0.265812
H264  H     H_    0.085946 0.662626 0.419548 0.274173
H265  H     H_    0.180866 0.681670 0.411628 0.261862
O84   O     O_3   0.880023 0.223426 0.711068 -0.592031
C222  C     C_3   0.933435 0.194388 0.735175 0.118248
H266  H     H_    0.910982 0.151933 0.753945 0.079994
H267  H     H_    0.956705 0.237772 0.752790 0.163753
C223  C     C_3   0.994575 0.160459 0.712333 -0.310818
H268  H     H_    0.973477 0.112581 0.697241 0.213455
H269  H     H_    0.014433 0.200425 0.691722 0.229918
C224  C     C_3   0.057691 0.136382 0.736713 -1.029467
H270  H     H_    0.083351 0.184202 0.749936 0.265511
H271  H     H_    0.099137 0.108230 0.719640 0.263084
H272  H     H_    0.038417 0.098273 0.758398 0.269726

loop_
_geom_bond_atom_site_label_1
_geom_bond_atom_site_label_2
_geom_bond_distance
_ccdc_geom_bond_type
O8    C36   1.281876 A    
Zn4   O4    1.940534 S    
C174  H155  1.113900 S    
C141  C142  1.534046 S    
C152  H103  1.110173 S    
O81   C213  1.412037 S    
O79   C207  1.424081 S    
C193  H198  1.111745 S    
C154  H107  1.111750 S    
C214  H247  1.111543 S    
C87   C112  1.411124 A    
C64   O60   1.390480 S    
C73   C98   1.411415 A    
C59   O55   1.389806 S    
C172  H150  1.110597 S    
C83   O79   1.385688 S    
O80   C210  1.421830 S    
C144  C145  1.528726 S    
C136  H65   1.111745 S    
C2    C5    1.414068 A    
C11   C120  1.522660 S    
C124  H36   1.109763 S    
C217  H254  1.109729 S    
C137  H67   1.109848 S    
C178  H163  1.111876 S    
C208  C209  1.527183 S    
C21   C26   1.200329 T    
C117  H14   1.109573 S    
C10   C117  1.521128 S    
Zn8   O13   1.910736 S    
C175  C176  1.524528 S    
C224  H271  1.109028 S    
C23   C28   1.199943 T    
C145  C146  1.526360 S    
C198  H211  1.110735 S    
O34   C54   1.276738 A    
C221  H263  1.110948 S    
C86   O82   1.385839 S    
C47   C97   1.469234 S    
C205  H226  1.110301 S    
C218  H257  1.110111 S    
Zn2   O2    1.936952 S    
C216  H253  1.115994 S    
O53   C129  1.412656 S    
C175  H157  1.108745 S    
C196  H206  1.108377 S    
C48   C98   1.463975 S    
C67   O63   1.384229 S    
Zn4   O37   1.942186 S    
C7    C124  1.522477 S    
C15   C95   1.415670 A    
C121  H26   1.109812 S    
Zn6   O39   1.945031 S    
C58   C71   1.398034 A    
C199  H213  1.109137 S    
C130  H52   1.109185 S    
O47   C41   1.278838 A    
C150  H98   1.110986 S    
C79   C82   1.409510 A    
C155  H109  1.110867 S    
C169  H143  1.108166 S    
C164  H132  1.109531 S    
C75   C86   1.401095 A    
C190  H191  1.112054 S    
C63   O59   1.383087 S    
O37   C51   1.270920 A    
C159  C160  1.528675 S    
C62   O58   1.388095 S    
C213  C214  1.526609 S    
C69   O65   1.386577 S    
Zn7   O14   1.910736 S    
Zn4   O46   1.945582 S    
C125  H37   1.107144 S    
Zn12  O30   1.945582 S    
O63   C159  1.412866 S    
C205  C206  1.526997 S    
C180  C181  1.533087 S    
C221  H265  1.110733 S    
O76   C198  1.414443 S    
C139  H72   1.111945 S    
Zn1   O16   1.911955 S    
C156  C157  1.529861 S    
Zn13  O4    1.941667 S    
C133  H59   1.108427 S    
O70   C180  1.417562 S    
C135  H64   1.106631 S    
C166  H135  1.111946 S    
Zn1   O47   1.943964 S    
C178  C179  1.524900 S    
C84   O80   1.388961 S    
C14   C94   1.413817 A    
Zn3   O45   1.945580 S    
C193  C194  1.525538 S    
C154  C155  1.525702 S    
C181  H170  1.109657 S    
C22   C25   1.200536 T    
C190  C191  1.526734 S    
O21   C41   1.273196 A    
C72   C97   1.408228 A    
C134  H61   1.110386 S    
C77   C102  1.405635 A    
O52   C46   1.281660 A    
C83   C108  1.415342 A    
C149  H97   1.110775 S    
O23   C43   1.270639 A    
C59   C110  1.412293 A    
C140  H76   1.109119 S    
C203  H221  1.110791 S    
O35   C55   1.275038 A    
C73   C88   1.398084 A    
Zn2   O15   1.911955 S    
C142  C143  1.525325 S    
O32   C52   1.277960 A    
C217  C218  1.525712 S    
Zn4   O17   1.911045 S    
O44   C54   1.277009 A    
C219  H259  1.114845 S    
C78   O74   1.389554 S    
C140  H75   1.110114 S    
C153  C154  1.531383 S    
C195  H203  1.108984 S    
C19   C91   1.439146 S    
C3    C8    1.414817 A    
C162  C163  1.533485 S    
C20   C92   1.442306 S    
C20   C31   1.201366 T    
C3    C128  1.521800 S    
C143  H81   1.110867 S    
C194  H202  1.109629 S    
C207  H231  1.108456 S    
C212  H243  1.109780 S    
C116  H10   1.106976 S    
C4    C92   1.415536 A    
C86   C109  1.406320 A    
O40   C50   1.281107 A    
C160  H121  1.111131 S    
C186  H183  1.112180 S    
C74   O70   1.386565 S    
C51   C109  1.458256 S    
C202  H220  1.110441 S    
C165  H133  1.107744 S    
C69   C100  1.418146 A    
Zn2   O43   1.946161 S    
C131  H53   1.110336 S    
C206  H230  1.110885 S    
C185  H180  1.109537 S    
O69   C177  1.414918 S    
C115  H9    1.109711 S    
C158  H116  1.110706 S    
C155  H111  1.110665 S    
C120  H24   1.109674 S    
C163  H128  1.110562 S    
C158  H118  1.109550 S    
C8    C123  1.521268 S    
C121  H27   1.109593 S    
C130  H51   1.111662 S    
C142  H79   1.111015 S    
C22   C94   1.442463 S    
C65   C104  1.405213 A    
C141  H77   1.110941 S    
Zn5   O40   1.945032 S    
C9    C118  1.522041 S    
C182  H173  1.110246 S    
C223  H269  1.109705 S    
C114  H5    1.110336 S    
C185  H181  1.111018 S    
C56   C106  1.470860 S    
C161  H123  1.110983 S    
O67   C171  1.412814 S    
C147  H91   1.113621 S    
O22   C42   1.283901 A    
C128  H46   1.107002 S    
C67   C102  1.409399 A    
C115  H8    1.109760 S    
C18   C29   1.200244 T    
C157  H114  1.107568 S    
C149  H96   1.110407 S    
C11   C95   1.415496 A    
C143  H83   1.110909 S    
C210  H238  1.109876 S    
O38   C52   1.276781 A    
O66   C168  1.423705 S    
O41   C55   1.282463 A    
C7    C91   1.414485 A    
Zn9   O4    1.936953 S    
C207  C208  1.525692 S    
Zn10  O3    1.936952 S    
C1    C89   1.415538 A    
C126  H40   1.106340 S    
Zn12  O21   1.942186 S    
C181  C182  1.522189 S    
Zn13  O24   1.945032 S    
C49   C107  1.468623 S    
C145  H87   1.110889 S    
Zn14  O23   1.945031 S    
C50   C108  1.471427 S    
C5    C122  1.520981 S    
C127  H43   1.105077 S    
C118  H17   1.109737 S    
C87   O83   1.383699 S    
C203  H223  1.110446 S    
C60   O56   1.392558 S    
C176  H159  1.110501 S    
Zn3   O18   1.911045 S    
O13   C37   1.282000 A    
O57   C141  1.417958 S    
C119  H20   1.109720 S    
C57   C72   1.405817 A    
C197  H208  1.110067 S    
C26   C39   1.423821 S    
C200  H215  1.110654 S    
C187  H184  1.111712 S    
O39   C49   1.279286 A    
C76   C99   1.408664 A    
C163  C164  1.525710 S    
C219  C220  1.528819 S    
Zn3   O38   1.942188 S    
C66   O62   1.384906 S    
C191  H193  1.111737 S    
C160  H122  1.111365 S    
C15   C116  1.522247 S    
C153  H105  1.110983 S    
O25   C45   1.274329 A    
C149  H95   1.110748 S    
C122  H28   1.106392 S    
C157  C158  1.525956 S    
C72   O68   1.383218 S    
C183  H175  1.108583 S    
C150  H99   1.112770 S    
C123  H31   1.106550 S    
C27   C38   1.425125 S    
O31   C51   1.280158 A    
C194  H200  1.110660 S    
C4    C7    1.413389 A    
Zn3   O3    1.940535 S    
C116  H12   1.109701 S    
C159  H120  1.115228 S    
C120  H22   1.107106 S    
C210  C211  1.538051 S    
C204  H225  1.108709 S    
O68   C174  1.423247 S    
C151  H100  1.110814 S    
Zn11  O22   1.942188 S    
C131  H55   1.109384 S    
O19   C39   1.281385 A    
Zn7   O49   1.944089 S    
C205  H227  1.110807 S    
C189  H189  1.115194 S    
C146  H88   1.110842 S    
C177  H161  1.109544 S    
Zn15  O26   1.943435 S    
O28   C48   1.273921 A    
C179  H165  1.110241 S    
C141  H78   1.113550 S    
C168  H141  1.116898 S    
C19   C32   1.199622 T    
C188  H188  1.109888 S    
C129  H49   1.111319 S    
C148  C149  1.525658 S    
C215  H251  1.110805 S    
C128  H48   1.109783 S    
Zn9   O31   1.943964 S    
Zn1   O44   1.946160 S    
C79   O75   1.392655 S    
Zn10  O32   1.943962 S    
C171  H147  1.115302 S    
Zn11  O29   1.945580 S    
C193  H199  1.110461 S    
C58   O54   1.388778 S    
O55   C135  1.413180 S    
C68   O64   1.384023 S    
C62   C107  1.413513 A    
C63   C106  1.410451 A    
C139  H73   1.108133 S    
C147  C148  1.527661 S    
C146  H90   1.110332 S    
Zn12  O1    1.940534 S    
O5    C33   1.280599 A    
C16   C96   1.415989 A    
C143  H82   1.109799 S    
C32   C33   1.422519 S    
C124  H35   1.109691 S    
C217  H255  1.110987 S    
C160  C161  1.526147 S    
C137  H68   1.110060 S    
Zn13  O12   1.909547 S    
C117  H13   1.105194 S    
C222  C223  1.528089 S    
C77   C84   1.396552 A    
C78   C83   1.402447 A    
C148  H93   1.109604 S    
C82   C105  1.413279 A    
O62   C156  1.419158 S    
C177  C178  1.528590 S    
C127  H45   1.109711 S    
O75   C195  1.415716 S    
O26   C46   1.274076 A    
O56   C138  1.416997 S    
Zn14  O11   1.909547 S    
C211  C212  1.525740 S    
C221  H264  1.110199 S    
C60   C109  1.412395 A    
C161  H125  1.110756 S    
C129  C130  1.531171 S    
C136  C137  1.525657 S    
O42   C56   1.284735 A    
C28   C37   1.423268 S    
C137  H69   1.110399 S    
O51   C45   1.279194 A    
C57   O53   1.391742 S    
C62   C67   1.397435 A    
C191  H195  1.111566 S    
C63   C66   1.397140 A    
C224  H272  1.110823 S    
C134  H60   1.106827 S    
C53   C111  1.470882 S    
C121  H25   1.106861 S    
C79   C104  1.416009 A    
C122  H30   1.109717 S    
C54   C112  1.464231 S    
C209  H235  1.110896 S    
C213  H246  1.115294 S    
C183  C184  1.530051 S    
Zn8   O50   1.944088 S    
C155  H110  1.110696 S    
C123  H33   1.109633 S    
C164  H131  1.110329 S    
C25   C40   1.424815 S    
O77   C201  1.425564 S    
C170  H146  1.109200 S    
C216  C217  1.532284 S    
C30   C35   1.424405 S    
Zn15  O33   1.944089 S    
C80   C103  1.407878 A    
Zn11  O10   1.911045 S    
C81   C106  1.416963 A    
Zn8   O4    1.941137 S    
O45   C43   1.285638 A    
C52   C110  1.464275 S    
O64   C162  1.419724 S    
C55   C105  1.465695 S    
C85   C110  1.411709 A    
C84   C107  1.414588 A    
C75   O71   1.386882 S    
C44   C102  1.458395 S    
C162  H126  1.106230 S    
C180  H169  1.112924 S    
C138  H70   1.109697 S    
C59   C70   1.402424 A    
O33   C53   1.277816 A    
C156  H113  1.118555 S    
Zn15  O2    1.941140 S    
C179  H167  1.110367 S    
Zn16  O5    1.910736 S    
C190  H192  1.111109 S    
O60   C150  1.420352 S    
C218  H256  1.110775 S    
C211  H240  1.109630 S    
C174  C175  1.533670 S    
C12   C119  1.522267 S    
C178  H164  1.110784 S    
C23   C95   1.439838 S    
C195  C196  1.534084 S    
C17   C89   1.440977 S    
C133  C134  1.527409 S    
C21   C93   1.440554 S    
O74   C192  1.417578 S    
C154  H108  1.108710 S    
C181  H171  1.110637 S    
C224  H270  1.109607 S    
Zn7   O42   1.943435 S    
C222  H267  1.109825 S    
C132  C133  1.535971 S    
C166  H136  1.109989 S    
Zn6   O52   1.943185 S    
O29   C49   1.279298 A    
C184  H177  1.110846 S    
C172  C173  1.526156 S    
C76   O72   1.384419 S    
C203  H222  1.109999 S    
C113  H2    1.109741 S    
C128  H47   1.109654 S    
C133  H58   1.110222 S    
O17   C37   1.282063 A    
C6    C90   1.415900 A    
C216  H252  1.109148 S    
C10   C94   1.413271 A    
Zn9   O8    1.911955 S    
C220  H261  1.111059 S    
C82   O78   1.390984 S    
Zn10  O7    1.911955 S    
C43   C101  1.465318 S    
C219  H260  1.115745 S    
C117  H15   1.110589 S    
C182  H172  1.110809 S    
C212  H242  1.111039 S    
C2    C90   1.415406 A    
O61   C153  1.417622 S    
O58   C144  1.419492 S    
C198  C199  1.532633 S    
C57   C112  1.410117 A    
C195  H204  1.112948 S    
C58   C111  1.413839 A    
C162  H127  1.115500 S    
C144  H85   1.118749 S    
C194  H201  1.110230 S    
C207  H232  1.119375 S    
C189  H190  1.116053 S    
C175  H156  1.107477 S    
C14   C113  1.521506 S    
C214  C215  1.524786 S    
Zn16  O34   1.944088 S    
C213  H245  1.114176 S    
C81   O77   1.385978 S    
C131  H54   1.110244 S    
C113  H3    1.109715 S    
C186  H182  1.114269 S    
C9    C14   1.413862 A    
C206  H229  1.109048 S    
C199  H212  1.111212 S    
C192  H197  1.111806 S    
C11   C16   1.414550 A    
C71   O67   1.384392 S    
C12   C15   1.414494 A    
C144  H84   1.110955 S    
C5    C89   1.415723 A    
C169  H142  1.107641 S    
C2    C125  1.522500 S    
C163  H129  1.110320 S    
C170  H144  1.110895 S    
C158  H117  1.110391 S    
O7    C35   1.281759 A    
C1    C126  1.521959 S    
C125  H39   1.109402 S    
C189  C190  1.528190 S    
C1    C6    1.414333 A    
C123  H32   1.109786 S    
Zn9   O28   1.946160 S    
C3    C91   1.415560 A    
C220  C221  1.526147 S    
C165  C166  1.529541 S    
Zn10  O27   1.946161 S    
C184  C185  1.525707 S    
O50   C48   1.279450 A    
C125  H38   1.109779 S    
C138  H71   1.112048 S    
C80   O76   1.391152 S    
C152  H104  1.110893 S    
C223  C224  1.526178 S    
C114  H4    1.106600 S    
O16   C40   1.281620 A    
C161  H124  1.109819 S    
C212  H244  1.108740 S    
Zn8   O41   1.943437 S    
C147  H92   1.116532 S    
Zn16  O25   1.943437 S    
C115  H7    1.106832 S    
O11   C35   1.281043 A    
O30   C50   1.278535 A    
C29   C36   1.423855 S    
O14   C38   1.282421 A    
Zn6   O2    1.941663 S    
C8    C92   1.415648 A    
C31   C34   1.425706 S    
C135  H63   1.110419 S    
C142  H80   1.111248 S    
C174  H154  1.109861 S    
O18   C38   1.282521 A    
Zn14  O36   1.943185 S    
C173  H151  1.111077 S    
O46   C44   1.273986 A    
C209  H237  1.110854 S    
C218  H258  1.110652 S    
C4    C127  1.519452 S    
C199  C200  1.524914 S    
C134  H62   1.110721 S    
O59   C147  1.413892 S    
C152  H102  1.109796 S    
C172  H149  1.111392 S    
C222  H266  1.115086 S    
C167  H137  1.110834 S    
O36   C56   1.275993 A    
C184  H178  1.111247 S    
C176  H158  1.110898 S    
O12   C36   1.280658 A    
Zn1   O1    1.936953 S    
C45   C103  1.456449 S    
C119  H19   1.106664 S    
C46   C104  1.459954 S    
C197  H209  1.110655 S    
C200  H214  1.110624 S    
Zn12  O9    1.911045 S    
C187  H185  1.110711 S    
C191  H194  1.108881 S    
C132  H56   1.110881 S    
C192  C193  1.530022 S    
Zn5   O51   1.943183 S    
C88   C111  1.417375 A    
C153  H106  1.118344 S    
C198  H210  1.111117 S    
C113  H1    1.106975 S    
C183  H176  1.117153 S    
C202  H219  1.109586 S    
C138  C139  1.531066 S    
C85   O81   1.383175 S    
C76   C85   1.391364 A    
C17   C30   1.200611 T    
C41   C99   1.460677 S    
C42   C100  1.469697 S    
C13   C114  1.520411 S    
O78   C204  1.423070 S    
C116  H11   1.109693 S    
C187  C188  1.526414 S    
C171  C172  1.527965 S    
C186  C187  1.528193 S    
C201  H218  1.117751 S    
C196  H205  1.111780 S    
C210  H239  1.109964 S    
Zn5   O20   1.909547 S    
Zn6   O19   1.909547 S    
C204  H224  1.108785 S    
C73   O69   1.388298 S    
O9    C33   1.283020 A    
C167  H138  1.109866 S    
C24   C96   1.441322 S    
C208  H234  1.109947 S    
C185  H179  1.110796 S    
C61   O57   1.388605 S    
C177  H162  1.110119 S    
C151  C152  1.525952 S    
C169  C170  1.526947 S    
O10   C34   1.281892 A    
C157  H115  1.110188 S    
C126  H42   1.109762 S    
C179  H166  1.110181 S    
C214  H248  1.112120 S    
C188  H187  1.109439 S    
C129  H50   1.107418 S    
C148  H94   1.111608 S    
O84   C222  1.420321 S    
C173  H152  1.109558 S    
C168  C169  1.531481 S    
C13   C93   1.417119 A    
C80   C81   1.404806 A    
C192  H196  1.107982 S    
C171  H148  1.114839 S    
C182  H174  1.107596 S    
C9    C93   1.416424 A    
Zn14  O3    1.941663 S    
C223  H268  1.109032 S    
C64   C65   1.407151 A    
C114  H6    1.110405 S    
C201  C202  1.529401 S    
C77   O73   1.384088 S    
C173  H153  1.110751 S    
C24   C27   1.200969 T    
O83   C219  1.412322 S    
Zn5   O1    1.941667 S    
C70   C99   1.408771 A    
C220  H262  1.111283 S    
C71   C98   1.409668 A    
C60   C69   1.402918 A    
Zn15  O6    1.910736 S    
C188  H186  1.110688 S    
C201  H217  1.110054 S    
Zn16  O1    1.941137 S    
C166  C167  1.526596 S    
C61   C68   1.399835 A    
C135  C136  1.528874 S    
C208  H233  1.110668 S    
O54   C132  1.421345 S    
O49   C47   1.281086 A    
O73   C189  1.412203 S    
C6    C121  1.521959 S    
C61   C108  1.411291 A    
C68   C101  1.403229 A    
C126  H41   1.109630 S    
O65   C165  1.424564 S    
O72   C186  1.413851 S    
C139  C140  1.525230 S    
C145  H86   1.111652 S    
O15   C39   1.281087 A    
C66   C103  1.404432 A    
C127  H44   1.109691 S    
C74   C87   1.395741 A    
C118  H18   1.106778 S    
C70   O66   1.385808 S    
C78   C101  1.414885 A    
C167  H139  1.110832 S    
C176  H160  1.107005 S    
O82   C216  1.417031 S    
C12   C96   1.415853 A    
Zn13  O35   1.943183 S    
C119  H21   1.109711 S    
C136  H66   1.109619 S    
C197  H207  1.110372 S    
C215  H249  1.110884 S    
C200  H216  1.109395 S    
C124  H34   1.106824 S    
O43   C53   1.278660 A    
Zn7   O3    1.941140 S    
Zn11  O2    1.940535 S    
C140  H74   1.110569 S    
C151  H101  1.111327 S    
C18   C90   1.440169 S    
C215  H250  1.110228 S    
C122  H29   1.109646 S    
C202  C203  1.526048 S    
C206  H228  1.111033 S    
C209  H236  1.108684 S    
C150  C151  1.531270 S    
C88   O84   1.385181 S    
C146  H89   1.109689 S    
O71   C183  1.418110 S    
O6    C34   1.283365 A    
C164  H130  1.110371 S    
C74   C97   1.409669 A    
C170  H145  1.110676 S    
C168  H140  1.111483 S    
C159  H119  1.114975 S    
C120  H23   1.109667 S    
C16   C115  1.521889 S    
C211  H241  1.110768 S    
C64   C105  1.408634 A    
C204  C205  1.530895 S    
C75   C100  1.408536 A    
C130  C131  1.523012 S    
C196  C197  1.527841 S    
Zn2   O48   1.943962 S    
C65   O61   1.386106 S    
C118  H16   1.109738 S    
O20   C40   1.281384 A    
C10   C13   1.416142 A    
O27   C47   1.274399 A    
C180  H168  1.109736 S    
O48   C42   1.272843 A    
C156  H112  1.111226 S    
C132  H57   1.112613 S    
C165  H134  1.118404 S    
O24   C44   1.278587 A    
