data_mof_unit_54394.cif
_audit_creation_date              2013-03-05T16:41:45-0500
_audit_creation_method            fapswitch 2.2
_symmetry_space_group_name_H-M    P1
_symmetry_Int_Tables_number       1
_space_group_crystal_system       triclinic
_cell_length_a                    10.668695
_cell_length_b                    10.673121
_cell_length_c                    9.887541
_cell_angle_alpha                 88.393014
_cell_angle_beta                  88.541673
_cell_angle_gamma                 90.184486
_cell_volume                      1125.0611654

loop_
_atom_site_label
_atom_site_type_symbol
_atom_site_description
_atom_site_fract_x
_atom_site_fract_y
_atom_site_fract_z
_atom_type_partial_charge
O1    O     O_R   0.500020 0.316790 0.614690 -0.600091
O2    O     O_R   0.500000 0.316760 0.385350 -0.620915
C1    C     C_R   0.499306 0.260547 0.501590 0.952024
O3    O     O_R   0.316770 0.500020 0.614690 -0.642907
O4    O     O_R   0.316760 0.499980 0.385350 -0.603850
C2    C     C_R   0.258854 0.504599 0.502467 0.903671
Zn1   Zn    Zn3+2 0.500010 0.500020 0.653130 1.031227
Zn2   Zn    Zn3+2 0.499990 0.499980 0.346870 1.047380
O5    O     O_R   0.500000 0.683240 0.614650 -0.593212
O6    O     O_R   0.499980 0.683210 0.385310 -0.595967
O7    O     O_R   0.683240 0.500020 0.614650 -0.570366
O8    O     O_R   0.683230 0.499980 0.385310 -0.597724
C3    C     C_R   0.501227 0.739204 0.498283 0.894467
C4    C     C_R   0.738260 0.482126 0.499250 0.918821
H1    H     H_    0.114951 0.519818 0.288536 0.190449
C5    C     C_R   0.099061 0.493806 0.762551 -0.203247
H2    H     H_    0.180929 0.549593 0.780958 0.191371
C6    C     C_R   0.032894 0.448216 0.877005 -0.214101
H3    H     H_    0.069054 0.465747 0.976051 0.209312
C7    C     C_R   0.922529 0.379139 0.864153 0.354626
C8    C     C_R   0.873831 0.365872 0.734195 0.353418
C9    C     C_R   0.931675 0.429511 0.620811 0.010206
C10   C     C_R   0.053960 0.475187 0.631045 0.082787
C11   C     C_R   0.123620 0.500385 0.508185 -0.089795
C12   C     C_R   0.064443 0.500829 0.383424 -0.112109
H4    H     H_    0.893188 0.493097 0.282511 0.229536
C13   C     C_R   0.938093 0.481493 0.378856 -0.092101
C14   C     C_R   0.870247 0.454510 0.498138 -0.101893
C15   C     C_R   0.423369 0.058101 0.585319 0.069409
C16   C     C_R   0.504963 0.129246 0.503759 -0.044708
C17   C     C_R   0.590388 0.068687 0.416931 -0.131243
H5    H     H_    0.656435 0.121856 0.352823 0.186984
C18   C     C_R   0.590391 0.938091 0.414021 -0.097486
H6    H     H_    0.658657 0.890875 0.350966 0.214767
C19   C     C_R   0.503051 0.870239 0.495559 -0.049318
C20   C     C_R   0.422054 0.933315 0.579759 0.067847
C21   C     C_3   0.312335 0.914861 0.673777 -0.486647
C22   C     C_3   0.313602 0.058589 0.683055 0.127921
H7    H     H_    0.229946 0.876197 0.622032 0.222909
H8    H     H_    0.337816 0.864942 0.769315 0.220466
H9    H     H_    0.336818 0.089741 0.784904 0.117960
C23   C     C_R   0.418411 0.425762 0.075825 0.084060
N1    N     N_R   0.499160 0.499140 0.142800 -0.193887
C24   C     C_R   0.569452 0.584770 0.067463 0.275885
C25   C     C_R   0.570841 0.583762 0.923306 0.269973
N2    N     N_R   0.499160 0.499180 0.857150 -0.162587
C26   C     C_R   0.416685 0.427502 0.933571 0.068401
C27   C     C_3   0.402857 0.289125 0.929958 -0.500699
C28   C     C_3   0.411489 0.286096 0.083305 0.139913
H10   H     H_    0.308587 0.264721 0.893276 0.223170
H11   H     H_    0.483542 0.243314 0.878278 0.245719
H12   H     H_    0.498395 0.241010 0.120849 0.167458
N3    N     N_R   0.200819 0.116814 0.628602 0.231207
O9    O     O_R   0.094892 0.104869 0.695864 -0.321069
O10   O     O_R   0.206743 0.189895 0.521015 -0.346734
N4    N     N_R   0.640390 0.677520 0.133204 0.244148
O11   O     O_R   0.757125 0.655601 0.159461 -0.369917
O12   O     O_R   0.601230 0.792766 0.129225 -0.356994
N5    N     N_R   0.649810 0.670176 0.847970 0.255004
O13   O     O_R   0.614384 0.786133 0.833040 -0.328720
O14   O     O_R   0.767563 0.643151 0.828903 -0.361126
N6    N     N_R   0.297329 0.239347 0.152707 0.251939
O15   O     O_R   0.302907 0.141540 0.233735 -0.319020
O16   O     O_R   0.189973 0.293978 0.134614 -0.348044
N7    N     N_R   0.859381 0.326703 0.983215 0.239865
O17   O     O_R   0.921869 0.300875 0.091709 -0.326777
O18   O     O_R   0.737712 0.317806 0.989463 -0.389377
Cl1   Cl    Cl    0.759807 0.249037 0.708802 -0.521671

loop_
_geom_bond_atom_site_label_1
_geom_bond_atom_site_label_2
_geom_bond_distance
_ccdc_geom_bond_type
C15   C22   1.499337 S    
O4    Zn2   1.981980 S    
C10   C11   1.426463 A    
C17   C18   1.394963 A    
N3    O9    1.300670 A    
C21   C22   1.539377 S    
C1    C16   1.402480 S    
C24   N4    1.425335 S    
C17   H5    1.083906 S    
C19   C20   1.375367 A    
N7    O18   1.300978 A    
Zn2   N1    2.018266 S    
Zn2   O8    2.001008 S    
C16   C17   1.407306 A    
N1    C24   1.371683 A    
C28   H12   1.113273 S    
C2    C11   1.442948 S    
N6    O15   1.300406 A    
C27   H10   1.110441 S    
O2    C1    1.281338 A    
N5    O13   1.300752 A    
C21   H7    1.112237 S    
C5    C6    1.393555 A    
C9    C14   1.412561 A    
C8    C9    1.420711 A    
C11   C12   1.399871 A    
Zn1   O7    1.981979 S    
C15   C20   1.334572 A    
H4    C13   1.081353 S    
C15   C16   1.382157 A    
C22   N3    1.463862 S    
O3    Zn1   2.001009 S    
O3    C2    1.283530 A    
C20   C21   1.485264 S    
C18   C19   1.402625 A    
N4    O12   1.300195 A    
C3    C19   1.398119 S    
C5    C10   1.416836 A    
C6    C7    1.397637 A    
C23   C26   1.406734 A    
N3    O10   1.301436 A    
C8    Cl1   1.766687 S    
O4    C2    1.300787 A    
C27   H11   1.111521 S    
O7    C4    1.289116 A    
O2    Zn2   1.981697 S    
N5    O14   1.300117 A    
H1    C12   1.083783 S    
C23   N1    1.359352 A    
C23   C28   1.491934 S    
C21   H8    1.111692 S    
Zn1   N2    2.016814 S    
Zn1   O5    1.981697 S    
C7    N7    1.439863 S    
C18   H6    1.081656 S    
C7    C8    1.408840 A    
C22   H9    1.103167 S    
Zn2   O6    2.002663 S    
N7    O17   1.300852 A    
C13   C14   1.390693 A    
N4    O11   1.299266 A    
C6    H3    1.082567 S    
O5    C3    1.281180 A    
N2    C26   1.363760 A    
C27   C28   1.520804 S    
O1    Zn1   2.002663 S    
N6    O16   1.301034 A    
C28   N6    1.462042 S    
C4    C14   1.439402 S    
C25   N2    1.371789 A    
O6    C3    1.281889 A    
C9    C10   1.398325 A    
C25   N5    1.428228 S    
C24   C25   1.425399 A    
C26   C27   1.485314 S    
O8    C4    1.293267 A    
C5    H2    1.077658 S    
O1    C1    1.284139 A    
C12   C13   1.365122 A    
