data_mof_unit_46524.cif
_audit_creation_date              2012-10-26T18:52:38-0400
_audit_creation_method            fapswitch 2.2
_symmetry_space_group_name_H-M    P1
_symmetry_Int_Tables_number       1
_space_group_crystal_system       triclinic
_cell_length_a                    10.710863
_cell_length_b                    14.789547
_cell_length_c                    14.846405
_cell_angle_alpha                 64.282196
_cell_angle_beta                  105.042624
_cell_angle_gamma                 102.514858
_cell_volume                      2031.54093939

loop_
_atom_site_label
_atom_site_type_symbol
_atom_type_description
_atom_site_fract_x
_atom_site_fract_y
_atom_site_fract_z
_atom_type_partial_charge
C1    C     C_R   0.478884 0.119527 0.312364 0.548881
C2    C     C_R   0.501545 0.356016 0.072612 0.027184
C3    C     C_R   0.416321 0.322399 0.999246 0.064074
C4    C     C_R   0.260176 0.000226 0.499756 0.545658
C5    C     C_R   0.554627 0.459626 0.043301 0.042350
C6    C     C_R   0.509981 0.530778 0.943969 0.014670
C7    C     C_R   0.426550 0.494180 0.872830 -0.122828
C8    C     C_R   0.381781 0.392201 0.898980 0.074653
C9    C     C_R   0.650981 0.494258 0.110245 -0.109605
C10   C     C_R   0.694988 0.596054 0.083924 -0.114290
C11   C     C_R   0.646126 0.668625 0.989138 0.069297
C12   C     C_3   0.877908 0.998061 0.501648 0.061021
C13   C     C_R   0.552150 0.636085 0.918401 0.022249
C14   C     C_R   0.690832 0.773138 0.962650 0.003204
C15   C     C_R   0.645409 0.843312 0.865065 -0.119371
C16   C     C_R   0.524134 0.880216 0.687636 0.531963
C17   C     C_R   0.503674 0.710206 0.823887 -0.145901
C18   C     C_R   0.676292 0.268803 0.687815 -0.140708
C19   C     C_R   0.669763 0.198112 0.648200 0.047504
C20   C     C_R   0.513454 0.283688 0.505316 0.063901
C21   C     C_R   0.525959 0.364398 0.535118 0.015098
C22   C     C_R   0.600094 0.348887 0.633990 0.041656
C23   C     C_3   0.962696 0.982061 0.609544 -0.112810
C24   C     C_R   0.461572 0.455027 0.476865 0.030538
C25   C     C_R   0.467794 0.521795 0.525513 0.016551
C26   C     C_R   0.512138 0.486052 0.631414 -0.114723
C27   C     C_R   0.586986 0.406990 0.682640 -0.112281
C28   C     C_R   0.739618 0.999669 0.499975 0.539483
C29   C     C_R   0.393750 0.485063 0.373410 0.056780
C30   C     C_R   0.328100 0.570914 0.327088 -0.093316
C31   C     C_R   0.345516 0.639624 0.371604 0.011027
C32   C     C_R   0.425468 0.620761 0.467958 0.021262
C33   C     C_R   0.290666 0.730565 0.316751 -0.161238
C34   C     C_3   0.930088 0.101042 0.423337 -0.246786
C35   C     C_R   0.323985 0.806408 0.353237 0.038136
C36   C     C_R   0.467788 0.705081 0.497419 0.144318
C37   C     C_3   0.035490 0.913107 0.472138 -0.230065
C38   C     C_3   0.892313 0.914011 0.469986 -0.225987
C39   C     C_3   0.107130 0.982180 0.608083 -0.212049
C40   C     C_3   0.073915 0.101618 0.422418 -0.241415
C41   C     C_3   0.122090 0.999480 0.500510 0.029966
C42   C     C_3   0.789485 0.811291 0.035391 -0.412660
C43   C     C_3   0.582548 0.699395 0.583937 -0.342347
C44   C     C_3   0.914614 0.886214 0.696374 -0.424269
C45   C     C_R   0.465052 0.186280 0.203870 0.002804
C46   C     C_R   0.554488 0.811591 0.795136 -0.023325
C47   C     C_R   0.364817 0.219884 0.028636 -0.112317
C48   C     C_R   0.388823 0.152598 0.130014 -0.142475
C49   C     C_R   0.524407 0.285869 0.174653 -0.113510
Cu1   Cu    Cu3+1 0.465900 0.918260 0.475680 0.908921
Cu2   Cu    Cu3+1 0.534100 0.081740 0.524320 0.932865
H1    H     H_    0.066209 0.838463 0.528573 0.137762
H2    H     H_    0.582489 0.307859 0.234454 0.143328
H3    H     H_    0.046401 0.922051 0.396013 0.125066
H4    H     H_    0.394989 0.542567 0.794668 0.120992
H5    H     H_    0.697474 0.444088 0.183500 0.114527
H6    H     H_    0.629740 0.388288 0.762343 0.122910
H7    H     H_    0.281871 0.876668 0.309913 0.121641
H8    H     H_    0.272290 0.589657 0.250352 0.143678
H9    H     H_    0.735273 0.258218 0.762240 0.103834
H10   H     H_    0.722857 0.133162 0.691577 0.117837
H11   H     H_    0.436849 0.275816 0.445763 0.168311
H12   H     H_    0.921802 0.164016 0.442689 0.138573
H13   H     H_    0.835985 0.927772 0.391687 0.129917
H14   H     H_    0.490615 0.519491 0.676082 0.127966
H15   H     H_    0.225232 0.744315 0.244105 0.092492
H16   H     H_    0.852500 0.838337 0.521064 0.121300
H17   H     H_    0.144283 0.909762 0.664580 0.122458
H18   H     H_    0.133990 0.165017 0.440943 0.146217
H19   H     H_    0.084190 0.115025 0.344748 0.124331
H20   H     H_    0.870962 0.115175 0.345811 0.115310
H21   H     H_    0.811618 0.894942 0.001865 0.125171
H22   H     H_    0.751118 0.789571 0.105594 0.138868
H23   H     H_    0.168137 0.043131 0.630316 0.132026
H24   H     H_    0.882002 0.778737 0.055194 0.124858
H25   H     H_    0.549473 0.671438 0.657128 0.114163
H26   H     H_    0.654167 0.653124 0.587894 0.090507
H27   H     H_    0.641574 0.770557 0.575927 0.185267
H28   H     H_    0.922733 0.816626 0.688396 0.136712
H29   H     H_    0.974416 0.883356 0.770693 0.134045
H30   H     H_    0.811951 0.886830 0.698255 0.140843
H31   H     H_    0.957329 0.047285 0.626623 0.147346
H32   H     H_    0.426802 0.691667 0.769436 0.122985
H33   H     H_    0.684513 0.922362 0.842276 0.120167
H34   H     H_    0.768539 0.616899 0.139307 0.115687
H35   H     H_    0.302189 0.191077 0.974678 0.153618
H36   H     H_    0.343467 0.075116 0.151051 0.120555
I1    I     I_    0.253477 0.352291 0.782048 -0.469223
I2    I     I_    0.392810 0.426612 0.264947 -0.481034
N1    N     N_R   0.585360 0.204570 0.560800 -0.240349
N2    N     N_R   0.414550 0.795430 0.439160 -0.219745
O1    O     O_R   0.455060 0.022100 0.338110 -0.510562
O2    O     O_R   0.512640 0.160150 0.379180 -0.493847
O3    O     O_R   0.288900 0.930980 0.479450 -0.507075
O4    O     O_R   0.346480 0.069030 0.520520 -0.503494
O5    O     O_R   0.487360 0.839850 0.620820 -0.511925
O6    O     O_R   0.544940 0.977900 0.661890 -0.504226
O7    O     O_R   0.653520 0.930970 0.479480 -0.524392
O8    O     O_R   0.711100 0.069020 0.520550 -0.507136

loop_
_geom_bond_atom_site_label_1
_geom_bond_atom_site_label_2
_ccdc_geom_bond_type
Cu2   O6    S    
C10   H34   S    
C23   H31   S    
C39   H17   S    
C7    H4    S    
C1    C45   S    
C29   I2    S    
C7    C8    A    
C39   C41   S    
C43   H27   S    
C12   C23   S    
C42   H24   S    
C29   C30   A    
C40   H19   S    
C12   C28   S    
C35   H7    S    
C34   C40   S    
C32   C36   A    
Cu2   N1    S    
C30   C31   A    
C11   C14   A    
C49   H2    S    
C16   O6    A    
C4    C41   S    
C18   C19   A    
C39   H23   S    
C24   C29   A    
C47   C48   A    
C31   C33   A    
C9    C10   A    
C14   C42   S    
C25   C32   A    
C21   C22   A    
C18   H9    S    
C37   C41   S    
C33   H15   S    
C38   H13   S    
Cu2   O8    S    
C16   O5    A    
Cu1   O7    S    
C40   H18   S    
C47   H35   S    
C44   H29   S    
C17   C46   A    
C44   H30   S    
C27   H6    S    
C16   C46   S    
C37   H1    S    
Cu1   O3    S    
C25   C26   A    
C20   N1    A    
C23   C44   S    
C8    I1    S    
C20   H11   S    
C5    C9    A    
C37   C38   S    
C2    C49   A    
C4    O4    A    
C31   C32   A    
C45   C49   A    
C30   H8    S    
C42   H21   S    
Cu1   Cu2   S    
C26   C27   A    
C48   H36   S    
C9    H5    S    
C24   C25   A    
C6    C7    A    
Cu2   O2    S    
C4    O3    A    
C37   H3    S    
C36   N2    A    
Cu1   O1    S    
C40   C41   S    
C3    C8    A    
C1    O1    A    
C22   C27   A    
C2    C5    A    
C12   C34   S    
C38   H16   S    
C28   O8    A    
C45   C48   A    
C28   O7    A    
C43   H25   S    
C42   H22   S    
C18   C22   A    
C26   H14   S    
C44   H28   S    
C15   H33   S    
C43   H26   S    
C13   C17   A    
C2    C3    A    
C19   N1    A    
C6    C13   A    
C11   C13   A    
Cu1   O5    S    
C5    C6    A    
C19   H10   S    
C23   C39   S    
C3    C47   A    
C34   H12   S    
C33   C35   A    
C12   C38   S    
C10   C11   A    
Cu1   N2    S    
C20   C21   A    
C1    O2    A    
C21   C24   A    
C14   C15   A    
C36   C43   S    
C15   C46   A    
C17   H32   S    
C34   H20   S    
Cu2   O4    S    
C35   N2    A    
