data_mof_unit_57761.cif
_audit_creation_date              2012-12-10T16:51:28-0500
_audit_creation_method            fapswitch 2.2
_symmetry_space_group_name_H-M    P1
_symmetry_Int_Tables_number       1
_space_group_crystal_system       triclinic
_cell_length_a                    7.769704
_cell_length_b                    8.703585
_cell_length_c                    12.656358
_cell_angle_alpha                 91.661066
_cell_angle_beta                  102.583014
_cell_angle_gamma                 93.912245
_cell_volume                      832.528048257

loop_
_atom_site_label
_atom_site_type_symbol
_atom_type_description
_atom_site_fract_x
_atom_site_fract_y
_atom_site_fract_z
_atom_type_partial_charge
C1    C     C_R   0.048151 0.794653 0.502152 0.998590
C2    C     C_R   0.177197 0.513440 0.824854 -0.112424
C3    C     C_2   0.084231 0.957645 0.516201 -0.200273
C4    C     C_R   0.110173 0.504679 0.708374 0.820653
C5    C     C_2   0.940100 0.043069 0.505590 0.360075
C6    C     C_R   0.958859 0.205962 0.506483 0.821992
C7    C     C_R   0.887526 0.478395 0.292326 0.868968
C8    C     C_R   0.866295 0.361013 0.002378 -0.191912
C9    C     C_R   0.819204 0.436324 0.178417 -0.066092
C10   C     C_R   0.096116 0.609091 0.887532 -0.196503
C11   C     C_R   0.176591 0.647943 0.994742 -0.140376
C12   C     C_R   0.416169 0.487327 0.980284 0.063736
C13   C     C_R   0.336528 0.589781 0.040628 -0.206023
C14   C     C_3   0.699886 0.237870 0.778301 -0.376389
C15   C     C_3   0.730301 0.074320 0.815606 -0.902480
C16   C     C_3   0.502564 0.354792 0.198881 -0.431139
C17   C     C_3   0.552239 0.200781 0.247735 -0.780347
C18   C     C_3   0.279023 0.026819 0.543672 -0.528384
C19   C     C_3   0.426996 0.921604 0.581330 -0.602453
C20   C     C_R   0.338066 0.449520 0.871479 0.061564
C21   C     C_R   0.578871 0.428952 0.024960 -0.009929
C22   C     C_R   0.685425 0.372513 0.957727 0.112981
C23   C     C_R   0.604356 0.324364 0.850713 0.157621
C24   C     C_R   0.426263 0.351705 0.812507 -0.199535
C25   C     C_R   0.635922 0.419051 0.135831 0.113446
C26   C     C_R   0.934689 0.405023 0.110774 -0.246022
F1    F     F_    0.769772 0.980520 0.482168 -0.683598
F2    F     F_    0.529197 0.612031 0.616374 -0.568456
H1    H     H_    0.075833 0.406998 0.142591 0.170550
H2    H     H_    0.800444 0.013916 0.761003 0.267151
H3    H     H_    0.622708 0.231745 0.693269 0.221276
H4    H     H_    0.828081 0.300845 0.776880 0.211983
H5    H     H_    0.561640 0.115548 0.182550 0.252188
H6    H     H_    0.680333 0.213140 0.307200 0.273254
H7    H     H_    0.448777 0.155347 0.289349 0.237906
H8    H     H_    0.482574 0.441668 0.259273 0.211635
H9    H     H_    0.370080 0.328937 0.144701 0.202686
H10   H     H_    0.399615 0.852814 0.649159 0.275119
H11   H     H_    0.448254 0.849033 0.512519 0.317652
H12   H     H_    0.472340 0.377217 0.420742 0.141137
H13   H     H_    0.552718 0.992443 0.609897 0.261208
H14   H     H_    0.309600 0.083618 0.471626 0.255229
H15   H     H_    0.293431 0.112088 0.611936 0.220991
H16   H     H_    0.956601 0.324585 0.954382 0.163262
H17   H     H_    0.974714 0.660280 0.852049 0.177959
H18   H     H_    0.399646 0.628481 0.122806 0.146650
H19   H     H_    0.116560 0.725718 0.041847 0.151288
H20   H     H_    0.360093 0.298274 0.735735 0.153740
H21   H     H_    0.812469 0.075339 0.899095 0.261265
H22   H     H_    0.601719 0.009034 0.813792 0.271656
N1    N     N_2   0.434800 0.456690 0.470850 -0.111034
N2    N     N_2   0.565200 0.543310 0.529150 0.198084
O1    O     O_R   0.893060 0.738880 0.507150 -0.541311
O2    O     O_R   0.172250 0.711130 0.488470 -0.600047
O3    O     O_R   0.944700 0.520730 0.667600 -0.613996
O4    O     O_R   0.223890 0.492980 0.648920 -0.557792
O5    O     O_R   0.827750 0.288870 0.511530 -0.616422
O6    O     O_R   0.106940 0.261120 0.492850 -0.677572
O7    O     O_R   0.776110 0.507020 0.351080 -0.637524
O8    O     O_R   0.055300 0.479270 0.332400 -0.636721
Zn1   Zn    Zn3+2 0.813580 0.518530 0.512470 1.033007
Zn2   Zn    Zn3+2 0.186420 0.481470 0.487530 0.978251

loop_
_geom_bond_atom_site_label_1
_geom_bond_atom_site_label_2
_ccdc_geom_bond_type
C14   C23   S    
O6    Zn2   S    
C2    C4    S    
C23   C24   A    
O5    Zn1   S    
C19   H10   S    
H12   N1    S    
C8    C26   A    
C6    O6    A    
C11   H19   S    
C15   H2    S    
C16   H9    S    
C1    O2    A    
C12   C20   A    
C10   H17   S    
C18   H14   S    
C12   C21   A    
O1    Zn1   S    
C9    C25   A    
C21   C22   A    
C16   H8    S    
F2    N2    S    
C6    O5    A    
C19   H13   S    
C13   H18   S    
N1    Zn2   S    
C17   H5    S    
C3    C18   S    
C19   H11   S    
C7    O7    A    
C9    C26   A    
N2    Zn1   S    
C15   H21   S    
C4    O3    A    
C5    C6    S    
O4    Zn2   S    
O7    Zn1   S    
C10   C11   A    
C2    C20   A    
N1    N2    D    
C24   H20   S    
O3    Zn1   S    
C7    O8    A    
C11   C13   A    
C12   C13   A    
C26   H1    S    
O8    Zn2   S    
C18   C19   S    
C17   H6    S    
C15   H22   S    
C18   H15   S    
C16   C25   S    
C7    C9    S    
C14   H3    S    
C21   C25   A    
C14   C15   S    
C1    O1    A    
C17   H7    S    
C3    C5    D    
C5    F1    S    
O2    Zn2   S    
C8    C22   A    
C20   C24   A    
C22   C23   A    
C4    O4    A    
C8    H16   S    
C14   H4    S    
C16   C17   S    
C1    C3    S    
C2    C10   A    
