data_mof_unit_52978.cif
_audit_creation_date              2012-12-10T18:01:45-0500
_audit_creation_method            fapswitch 2.2
_symmetry_space_group_name_H-M    P1
_symmetry_Int_Tables_number       1
_space_group_crystal_system       triclinic
_cell_length_a                    10.780954
_cell_length_b                    9.647378
_cell_length_c                    19.411095
_cell_angle_alpha                 89.504549
_cell_angle_beta                  92.973184
_cell_angle_gamma                 90.1036
_cell_volume                      2016.11311373

loop_
_atom_site_label
_atom_site_type_symbol
_atom_type_description
_atom_site_fract_x
_atom_site_fract_y
_atom_site_fract_z
_atom_type_partial_charge
C1    C     C_R   0.262955 0.499422 0.500103 0.793278
C2    C     C_R   0.737045 0.500578 0.499897 0.793278
C3    C     C_R   0.496945 0.498737 0.930034 0.524006
C4    C     C_R   0.503055 0.501263 0.069966 0.524007
C5    C     C_R   0.500720 0.500357 0.367725 0.794830
C6    C     C_R   0.499279 0.499643 0.632275 0.794830
C7    C     C_R   0.069981 0.484844 0.563207 0.413285
C8    C     C_R   0.930018 0.515156 0.436793 0.413285
C9    C     C_R   0.941256 0.492983 0.563257 0.428874
C10   C     C_R   0.058744 0.507017 0.436743 0.428874
C11   C     C_R   0.871015 0.503782 0.499959 -0.389706
C12   C     C_R   0.128985 0.496217 0.500041 -0.389706
C13   C     C_R   0.405707 0.073895 0.466759 0.448195
C14   C     C_R   0.594293 0.926105 0.533241 0.448195
C15   C     C_R   0.594372 0.072669 0.533115 0.440752
C16   C     C_R   0.405628 0.927331 0.466885 0.440753
C17   C     C_R   0.427274 0.595162 0.251699 0.312279
C18   C     C_R   0.572726 0.404838 0.748301 0.312279
C19   C     C_R   0.420252 0.593165 0.742797 0.322038
C20   C     C_R   0.579748 0.406835 0.257202 0.322038
C21   C     C_R   0.431683 0.597641 0.180057 0.635414
C22   C     C_R   0.568317 0.402359 0.819943 0.635413
C23   C     C_R   0.422653 0.593502 0.814826 0.636425
C24   C     C_R   0.577347 0.406498 0.185174 0.636426
C25   C     C_R   0.504604 0.502208 0.146068 -0.397913
C26   C     C_R   0.495396 0.497792 0.853931 -0.397912
C27   C     C_R   0.502891 0.500845 0.291616 -0.435071
C28   C     C_R   0.497109 0.499155 0.708384 -0.435072
Cu1   Cu    Cu3+1 0.500000 0.640660 0.500000 0.987910
Cu2   Cu    Cu3+1 0.500000 0.359340 0.500000 0.987910
N1    N     N_R   0.500000 0.852070 0.500000 -0.344938
N2    N     N_R   0.500000 0.147930 0.500000 -0.344938
N3    N     N_R   0.526517 0.382919 0.035733 -0.104193
N4    N     N_R   0.473483 0.617081 0.964267 -0.104193
N5    N     N_R   0.523615 0.381724 0.967160 -0.102455
N6    N     N_R   0.476385 0.618276 0.032840 -0.102455
O1    O     O_R   0.319640 0.618740 0.500000 -0.556951
O2    O     O_R   0.680360 0.381260 0.500000 -0.556952
O3    O     O_R   0.680360 0.618740 0.500000 -0.565480
O4    O     O_R   0.319640 0.381260 0.500000 -0.565480
O5    O     O_R   0.499980 0.618820 0.400140 -0.579157
O6    O     O_R   0.500020 0.381180 0.599860 -0.579157
O7    O     O_R   0.500020 0.618820 0.599860 -0.591079
O8    O     O_R   0.499980 0.381180 0.400140 -0.591080
O9    O     O_3   0.134059 0.468074 0.626358 -0.619965
H1    H     H_    0.220696 0.440070 0.619658 0.313319
O10   O     O_3   0.865941 0.531926 0.373641 -0.619965
H2    H     H_    0.779304 0.559930 0.380342 0.313319
O11   O     O_3   0.887957 0.489418 0.626527 -0.615838
H3    H     H_    0.803299 0.528831 0.621858 0.298801
O12   O     O_3   0.112043 0.510582 0.373473 -0.615838
H4    H     H_    0.196701 0.471169 0.378142 0.298801
O13   O     O_3   0.344469 0.683780 0.280249 -0.587310
H5    H     H_    0.311718 0.637193 0.320984 0.331658
O14   O     O_3   0.655531 0.316220 0.719751 -0.587309
H6    H     H_    0.688282 0.362807 0.679016 0.331657
O15   O     O_3   0.340277 0.685621 0.708757 -0.587589
H7    H     H_    0.317938 0.651354 0.661963 0.351194
O16   O     O_3   0.659723 0.314379 0.291243 -0.587589
H8    H     H_    0.682062 0.348646 0.338037 0.351194
F1    F     F_    0.357273 0.688520 0.143573 -0.529179
F2    F     F_    0.642727 0.311480 0.856427 -0.529179
F3    F     F_    0.348388 0.684358 0.846348 -0.529710
F4    F     F_    0.651613 0.315643 0.153652 -0.529710
O17   O     O_3   0.308538 0.138131 0.430706 -0.622135
H9    H     H_    0.340788 0.222834 0.409565 0.364414
O18   O     O_3   0.691462 0.861869 0.569294 -0.622135
H10   H     H_    0.659212 0.777166 0.590435 0.364414
O19   O     O_3   0.691466 0.135674 0.569121 -0.609182
H11   H     H_    0.659083 0.220920 0.588483 0.371180
O20   O     O_3   0.308534 0.864326 0.430879 -0.609182
H12   H     H_    0.340917 0.779080 0.411516 0.371180

loop_
_geom_bond_atom_site_label_1
_geom_bond_atom_site_label_2
_ccdc_geom_bond_type
C1    O4    A    
C19   C23   A    
O14   H6    S    
C4    N6    A    
O16   H8    S    
Cu1   Cu2   S    
C20   C27   A    
C1    O1    A    
C22   F2    S    
C18   C22   A    
C2    O2    A    
C13   N2    A    
C21   F1    S    
O10   H2    S    
C14   C15   A    
C3    N5    A    
C14   N1    A    
C14   O18   S    
Cu1   O3    S    
C23   F3    S    
C4    C25   S    
C8    O10   S    
Cu2   O4    S    
O20   H12   S    
Cu1   N1    S    
C13   O17   S    
O13   H5    S    
Cu1   O7    S    
C16   N1    A    
Cu2   N2    S    
C19   C28   A    
C9    C11   A    
C5    C27   S    
Cu2   O8    S    
O15   H7    S    
C7    C12   A    
C1    C12   S    
C10   C12   A    
C18   O14   S    
C8    C11   A    
C2    C11   S    
C7    O9    S    
C8    C10   A    
N3    N5    A    
C5    O8    A    
C16   O20   S    
O11   H3    S    
N4    N6    A    
C6    O7    A    
C22   C26   A    
O19   H11   S    
C15   O19   S    
C6    C28   S    
C23   C26   A    
C9    O11   S    
C10   O12   S    
O12   H4    S    
C17   C27   A    
C17   O13   S    
C15   N2    A    
C18   C28   A    
C24   C25   A    
Cu2   O2    S    
C24   F4    S    
O17   H9    S    
C6    O6    A    
C13   C16   A    
Cu1   O1    S    
C7    C9    A    
C21   C25   A    
C4    N3    A    
Cu2   O6    S    
C5    O5    A    
C3    N4    A    
Cu1   O5    S    
O9    H1    S    
C2    O3    A    
C20   C24   A    
C3    C26   S    
C19   O15   S    
O18   H10   S    
C20   O16   S    
C17   C21   A    
