data_mof_unit_55610.cif
_audit_creation_date              2013-03-05T15:44:37-0500
_audit_creation_method            fapswitch 2.2
_symmetry_space_group_name_H-M    P1
_symmetry_Int_Tables_number       1
_space_group_crystal_system       triclinic
_cell_length_a                    18.969624
_cell_length_b                    10.917001
_cell_length_c                    18.878022
_cell_angle_alpha                 89.959733
_cell_angle_beta                  89.870165
_cell_angle_gamma                 89.852658
_cell_volume                      3909.45217009

loop_
_atom_site_label
_atom_site_type_symbol
_atom_site_description
_atom_site_fract_x
_atom_site_fract_y
_atom_site_fract_z
_atom_type_partial_charge
O1    O     O_R   0.787540 0.042690 0.170470 -0.482965
O2    O     O_R   0.212460 0.042690 0.829530 -0.519122
O3    O     O_R   0.287540 0.542690 0.170470 -0.482949
O4    O     O_R   0.712460 0.542690 0.829530 -0.519123
O5    O     O_R   0.765660 0.292160 0.175050 -0.434632
O6    O     O_R   0.234340 0.292160 0.824950 -0.453915
O7    O     O_R   0.265660 0.792160 0.175050 -0.434633
O8    O     O_R   0.734340 0.792160 0.824950 -0.453908
C1    C     C_R   0.731167 0.378549 0.146470 0.567992
C2    C     C_R   0.271556 0.373166 0.855894 0.584106
C3    C     C_R   0.231167 0.878550 0.146470 0.567993
C4    C     C_R   0.771556 0.873168 0.855894 0.584119
O9    O     O_R   0.670190 0.408980 0.168550 -0.531751
O10   O     O_R   0.329810 0.408980 0.831450 -0.531216
O11   O     O_R   0.170190 0.908980 0.168550 -0.531742
O12   O     O_R   0.829810 0.908980 0.831450 -0.531197
O13   O     O_R   0.556580 0.251450 0.175160 -0.511472
O14   O     O_R   0.443420 0.251450 0.824840 -0.523456
O15   O     O_R   0.056580 0.751450 0.175160 -0.511487
O16   O     O_R   0.943420 0.751450 0.824840 -0.523438
C5    C     C_R   0.531303 0.156336 0.146764 0.550496
C6    C     C_R   0.467970 0.154879 0.853657 0.551318
C7    C     C_R   0.031303 0.656336 0.146764 0.550468
C8    C     C_R   0.967970 0.654879 0.853657 0.551324
O17   O     O_R   0.545920 0.049510 0.170320 -0.502208
O18   O     O_R   0.454080 0.049510 0.829680 -0.491907
O19   O     O_R   0.045920 0.549510 0.170320 -0.502212
O20   O     O_R   0.954080 0.549510 0.829680 -0.491898
O21   O     O_R   0.681390 0.957840 0.176710 -0.510763
O22   O     O_R   0.318610 0.957840 0.823290 -0.511517
O23   O     O_R   0.181390 0.457840 0.176710 -0.510753
O24   O     O_R   0.818610 0.457840 0.823290 -0.511500
C9    C     C_R   0.741282 0.968363 0.147846 0.549553
C10   C     C_R   0.260164 0.975541 0.854910 0.545073
C11   C     C_R   0.241282 0.468362 0.147846 0.549561
C12   C     C_R   0.760164 0.475539 0.854909 0.545081
O25   O     O_R   0.787500 0.044280 0.330990 -0.536549
O26   O     O_R   0.212500 0.044280 0.669010 -0.536775
O27   O     O_R   0.287500 0.544280 0.330990 -0.536521
O28   O     O_R   0.712500 0.544280 0.669010 -0.536798
O29   O     O_R   0.765610 0.293630 0.323860 -0.505983
O30   O     O_R   0.234390 0.293630 0.676140 -0.500987
O31   O     O_R   0.265610 0.793630 0.323860 -0.506004
O32   O     O_R   0.734390 0.793630 0.676140 -0.500961
C13   C     C_R   0.727288 0.373487 0.354385 0.547852
C14   C     C_R   0.270387 0.376943 0.647200 0.551832
C15   C     C_R   0.227283 0.873473 0.354390 0.547859
C16   C     C_R   0.770389 0.876943 0.647200 0.551772
O33   O     O_R   0.670140 0.410570 0.329080 -0.531210
O34   O     O_R   0.329860 0.410570 0.670920 -0.523150
O35   O     O_R   0.170140 0.910570 0.329080 -0.531121
O36   O     O_R   0.829860 0.910570 0.670920 -0.523210
O37   O     O_R   0.556540 0.252920 0.323970 -0.510659
O38   O     O_R   0.443460 0.252920 0.676030 -0.512572
O39   O     O_R   0.056540 0.752920 0.323970 -0.510613
O40   O     O_R   0.943460 0.752920 0.676030 -0.512593
C17   C     C_R   0.536591 0.156494 0.356045 0.546725
C18   C     C_R   0.468207 0.157901 0.646746 0.555517
C19   C     C_R   0.036556 0.656498 0.356024 0.546624
C20   C     C_R   0.968179 0.657902 0.646730 0.555449
O41   O     O_R   0.545870 0.051100 0.330840 -0.526527
O42   O     O_R   0.454130 0.051100 0.669160 -0.494174
O43   O     O_R   0.045870 0.551100 0.330840 -0.526508
O44   O     O_R   0.954130 0.551100 0.669160 -0.494107
O45   O     O_R   0.681340 0.959300 0.325510 -0.491373
O46   O     O_R   0.318660 0.959300 0.674490 -0.469882
O47   O     O_R   0.181340 0.459300 0.325510 -0.491360
O48   O     O_R   0.818660 0.459300 0.674490 -0.469854
C21   C     C_R   0.740632 0.974362 0.355527 0.567545
C22   C     C_R   0.259427 0.971234 0.645235 0.551466
C23   C     C_R   0.240631 0.474364 0.355529 0.567519
C24   C     C_R   0.759430 0.471247 0.645231 0.551468
Cr1   Cr    Cr6+3 0.772000 0.169640 0.250110 1.080518
Cr2   Cr    Cr6+3 0.228000 0.169640 0.749890 1.057978
Cr3   Cr    Cr6+3 0.272000 0.669640 0.250110 1.080519
Cr4   Cr    Cr6+3 0.728000 0.669640 0.749890 1.057954
Cr5   Cr    Cr6+3 0.614960 0.323350 0.249260 1.008630
Cr6   Cr    Cr6+3 0.385040 0.323350 0.750740 1.011648
Cr7   Cr    Cr6+3 0.114960 0.823350 0.249260 1.008680
Cr8   Cr    Cr6+3 0.885040 0.823350 0.750740 1.011663
Cr9   Cr    Cr6+3 0.616670 0.010620 0.250840 1.036588
Cr10  Cr    Cr6+3 0.383330 0.010620 0.749160 1.049753
Cr11  Cr    Cr6+3 0.116670 0.510620 0.250840 1.036610
Cr12  Cr    Cr6+3 0.883330 0.510620 0.749160 1.049806
O49   O     O_3   0.667880 0.167870 0.250070 -0.265024
O50   O     O_3   0.332120 0.167870 0.749930 -0.265195
O51   O     O_3   0.167880 0.667870 0.250070 -0.265036
O52   O     O_3   0.832120 0.667870 0.749930 -0.265234
H1    H     H_    0.484844 0.972310 0.068142 0.206216
H2    H     H_    0.470760 0.967820 0.943850 0.203718
H3    H     H_    0.984845 0.472309 0.068142 0.206219
H4    H     H_    0.970762 0.467819 0.943850 0.203724
C25   C     C_R   0.493107 0.161295 0.926858 0.017552
C26   C     C_R   0.501856 0.168121 0.075189 -0.012955
C27   C     C_R   0.993107 0.661294 0.926858 0.017546
C28   C     C_R   0.001856 0.668121 0.075189 -0.012952
C29   C     C_R   0.508063 0.273836 0.960762 0.011723
C30   C     C_R   0.505542 0.279643 0.035789 0.015551
C31   C     C_R   0.008063 0.773835 0.960762 0.011722
C32   C     C_R   0.005542 0.779642 0.035789 0.015555
C33   C     C_R   0.488578 0.058366 0.039957 -0.139405
C34   C     C_R   0.483769 0.055124 0.967605 -0.096985
C35   C     C_R   0.988578 0.558366 0.039957 -0.139403
C36   C     C_R   0.983770 0.555123 0.967605 -0.096985
C37   C     C_R   0.524705 0.380854 0.922075 -0.102533
C38   C     C_R   0.507021 0.396565 0.068247 -0.097111
C39   C     C_R   0.024707 0.880853 0.922075 -0.102532
C40   C     C_R   0.007021 0.896565 0.068247 -0.097112
C41   C     C_R   0.029604 0.993758 0.955789 -0.112745
C42   C     C_R   0.019088 0.002069 0.028451 -0.092831
C43   C     C_R   0.529601 0.493759 0.955789 -0.112752
C44   C     C_R   0.519086 0.502070 0.028451 -0.092833
H5    H     H_    0.534953 0.378377 0.865752 0.140411
H6    H     H_    0.495823 0.409240 0.123845 0.141919
H7    H     H_    0.034955 0.878375 0.865751 0.140419
H8    H     H_    0.995822 0.909240 0.123845 0.141914
H9    H     H_    0.040664 0.075171 0.925121 0.177915
H10   H     H_    0.020884 0.090529 0.054240 0.179459
H11   H     H_    0.540661 0.575172 0.925121 0.177908
H12   H     H_    0.520882 0.590529 0.054240 0.179449
C45   C     C_R   0.688732 0.893523 0.036701 -0.125351
C46   C     C_R   0.305206 0.872797 0.962882 -0.123541
C47   C     C_R   0.188731 0.393526 0.036701 -0.125353
C48   C     C_R   0.805209 0.372800 0.962882 -0.123540
H13   H     H_    0.637242 0.890402 0.061595 0.172516
H14   H     H_    0.344610 0.825665 0.931356 0.166100
H15   H     H_    0.137240 0.390411 0.061594 0.172517
H16   H     H_    0.844616 0.325675 0.931356 0.166112
C49   C     C_R   0.692959 0.884735 0.963081 0.187621
C50   C     C_R   0.306110 0.861391 0.036607 0.200327
C51   C     C_R   0.192959 0.384735 0.963081 0.187617
C52   C     C_R   0.806113 0.361394 0.036607 0.200320
C53   C     C_R   0.759430 0.898241 0.930551 0.012242
C54   C     C_R   0.253394 0.922748 0.076873 0.012849
C55   C     C_R   0.259431 0.398235 0.930552 0.012245
C56   C     C_R   0.753394 0.422746 0.076872 0.012848
C57   C     C_R   0.819954 0.916269 0.972384 -0.142455
C58   C     C_R   0.208873 0.007475 0.043806 -0.166860
C59   C     C_R   0.319955 0.416252 0.972385 -0.142448
C60   C     C_R   0.708870 0.507466 0.043804 -0.166859
H17   H     H_    0.872139 0.922160 0.949356 0.173112
H18   H     H_    0.170224 0.059745 0.073539 0.151047
H19   H     H_    0.372140 0.422136 0.949358 0.173108
H20   H     H_    0.670218 0.559732 0.073536 0.151048
C61   C     C_R   0.814892 0.925814 0.044754 -0.113572
C62   C     C_R   0.209214 0.018864 0.971325 -0.140600
C63   C     C_R   0.314892 0.425797 0.044756 -0.113557
C64   C     C_R   0.709210 0.518853 0.971324 -0.140599
H21   H     H_    0.861867 0.944927 0.075188 0.168416
H22   H     H_    0.173536 0.084857 0.947842 0.175802
H23   H     H_    0.361867 0.444902 0.075191 0.168412
H24   H     H_    0.673529 0.584841 0.947840 0.175802
C65   C     C_R   0.749213 0.919336 0.077029 -0.021383
C66   C     C_R   0.255314 0.948124 0.930036 -0.016702
C67   C     C_R   0.249213 0.419332 0.077030 -0.021379
C68   C     C_R   0.755313 0.448119 0.930035 -0.016706
C69   C     C_R   0.546287 0.068579 0.474901 -0.139493
C70   C     C_R   0.535497 0.072733 0.547186 -0.144585
C71   C     C_R   0.046565 0.568960 0.474935 -0.139467
C72   C     C_R   0.035701 0.573099 0.547214 -0.144779
H25   H     H_    0.574461 0.990812 0.453259 0.134434
H26   H     H_    0.552338 0.995962 0.579488 0.132941
H27   H     H_    0.075055 0.491509 0.453343 0.134553
H28   H     H_    0.052809 0.496603 0.579584 0.132890
C73   C     C_R   0.498476 0.170892 0.576520 0.030024
C74   C     C_R   0.520943 0.163162 0.431147 0.031427
C75   C     C_R   0.998340 0.670924 0.576466 0.029936
C76   C     C_R   0.020896 0.663173 0.431115 0.031364
C77   C     C_R   0.478081 0.270622 0.533741 -0.139281
C78   C     C_R   0.489569 0.266848 0.461027 -0.151848
C79   C     C_R   0.977571 0.770305 0.533606 -0.139247
C80   C     C_R   0.989103 0.766525 0.460903 -0.151953
H29   H     H_    0.449299 0.347709 0.555625 0.139744
H30   H     H_    0.472326 0.342535 0.428140 0.120777
H31   H     H_    0.948476 0.847083 0.555424 0.139955
H32   H     H_    0.971563 0.841908 0.427950 0.120821
C81   C     C_R   0.770169 0.038444 0.475089 -0.163508
C82   C     C_R   0.185199 0.924866 0.543858 -0.176473
C83   C     C_R   0.270208 0.538417 0.475086 -0.163525
C84   C     C_R   0.685209 0.424860 0.543852 -0.176461
H33   H     H_    0.786908 0.126145 0.454325 0.145390
H34   H     H_    0.138525 0.942435 0.575527 0.135726
H35   H     H_    0.286984 0.626094 0.454319 0.145397
H36   H     H_    0.638533 0.442380 0.575527 0.135667
C85   C     C_R   0.773087 0.020035 0.547311 -0.156145
C86   C     C_R   0.178057 0.913182 0.471712 -0.149485
C87   C     C_R   0.273111 0.520019 0.547308 -0.156134
C88   C     C_R   0.678065 0.413170 0.471708 -0.149447
H37   H     H_    0.793455 0.091252 0.581237 0.124685
H38   H     H_    0.125409 0.916751 0.449664 0.148682
H39   H     H_    0.293496 0.591219 0.581234 0.124651
H40   H     H_    0.625416 0.416697 0.449664 0.148581
C89   C     C_R   0.752042 0.908243 0.575223 0.003075
C90   C     C_R   0.237762 0.896734 0.428690 -0.006319
C91   C     C_R   0.252030 0.408255 0.575228 0.003093
C92   C     C_R   0.737771 0.396766 0.428680 -0.006313
C93   C     C_R   0.724998 0.816092 0.530861 -0.126715
C94   C     C_R   0.304271 0.885049 0.458521 -0.147531
C95   C     C_R   0.224937 0.316134 0.530873 -0.126693
C96   C     C_R   0.804287 0.385165 0.458503 -0.147609
H41   H     H_    0.710537 0.727379 0.552147 0.143443
H42   H     H_    0.349849 0.867623 0.425221 0.122914
H43   H     H_    0.210432 0.227446 0.552165 0.143463
H44   H     H_    0.849869 0.367789 0.425199 0.122968
C97   C     C_R   0.721217 0.834398 0.457914 0.104567
C98   C     C_R   0.312497 0.896375 0.531369 0.119517
C99   C     C_R   0.221155 0.334438 0.457926 0.104529
C100  C     C_R   0.812514 0.396515 0.531348 0.119415
C101  C     C_R   0.745912 0.945224 0.429997 0.058010
C102  C     C_R   0.252177 0.921846 0.574169 0.042676
C103  C     C_R   0.245909 0.445221 0.429999 0.057942
C104  C     C_R   0.752190 0.421899 0.574156 0.042700
N1    N     N_2   0.699413 0.737762 0.412608 -0.507508
H45   H     H_    0.727392 0.658114 0.421271 0.257482
C105  C     C_3   0.624204 0.716440 0.412058 -0.290568
H46   H     H_    0.605569 0.688063 0.465461 0.120109
H47   H     H_    0.611898 0.642361 0.373818 0.160510
H48   H     H_    0.595684 0.800284 0.395129 0.171283
N2    N     N_2   0.382047 0.892443 0.559488 -0.470380
H49   H     H_    0.419607 0.926700 0.525308 0.247751
C106  C     C_3   0.402773 0.774624 0.587713 -0.275061
H50   H     H_    0.403707 0.704771 0.544892 0.114590
H51   H     H_    0.366055 0.745651 0.630395 0.161366
H52   H     H_    0.456441 0.781478 0.610742 0.143734
N3    N     N_2   0.199263 0.237847 0.412631 -0.507444
H53   H     H_    0.227201 0.158147 0.421270 0.257516
C107  C     C_3   0.124040 0.216652 0.412137 -0.290524
H54   H     H_    0.105433 0.188280 0.465553 0.120113
H55   H     H_    0.111662 0.142604 0.373896 0.160404
H56   H     H_    0.095551 0.300561 0.395247 0.171371
N4    N     N_2   0.882066 0.392672 0.559461 -0.470360
H57   H     H_    0.919585 0.427192 0.525330 0.247915
C108  C     C_3   0.902899 0.274792 0.587507 -0.275092
H58   H     H_    0.903798 0.205089 0.544605 0.114664
H59   H     H_    0.866261 0.245614 0.630208 0.161355
H60   H     H_    0.956599 0.281652 0.610459 0.143773
N5    N     N_R   0.629538 0.868544 0.922700 0.070321
O53   O     O_R   0.619597 0.930364 0.864591 -0.335992
O54   O     O_R   0.577550 0.805490 0.948924 -0.404126
N6    N     N_R   0.360492 0.788582 0.069008 0.083019
O55   O     O_R   0.392493 0.828125 0.125414 -0.355959
O56   O     O_R   0.386735 0.694808 0.035520 -0.376363
N7    N     N_R   0.129538 0.368547 0.922700 0.070321
O57   O     O_R   0.119598 0.430369 0.864591 -0.335996
O58   O     O_R   0.077550 0.305491 0.948922 -0.404113
N8    N     N_R   0.860501 0.288593 0.069008 0.083009
O59   O     O_R   0.892490 0.328129 0.125422 -0.355949
O60   O     O_R   0.886763 0.194840 0.035510 -0.376373

loop_
_geom_bond_atom_site_label_1
_geom_bond_atom_site_label_2
_geom_bond_distance
_ccdc_geom_bond_type
C18   O42   1.268927 A    
C99   C103  1.400726 A    
C79   C80   1.389962 A    
O4    C12   1.258532 A    
O47   Cr11  1.951685 S    
C69   C70   1.380174 A    
O39   C19   1.272016 A    
C16   C89   1.443971 S    
O20   Cr12  2.074885 S    
C39   C41   1.391013 A    
C77   C78   1.390021 A    
C15   C90   1.439925 S    
C93   C97   1.393359 A    
C43   C44   1.388692 A    
C92   C96   1.388315 A    
C60   C64   1.373836 A    
O29   Cr1   1.945853 S    
O26   C22   1.274687 A    
C29   C30   1.418520 A    
C41   H9    1.081129 S    
C14   C91   1.443979 S    
C38   C44   1.393838 A    
N1    H45   1.030688 S    
C7    C28   1.468719 S    
C53   C57   1.409265 A    
C59   C63   1.373390 A    
C33   C34   1.369605 A    
C45   C65   1.407570 A    
C38   H6    1.079309 S    
C72   H28   1.083937 S    
C37   H5    1.080815 S    
Cr7   O51   1.969861 S    
C11   C67   1.447767 S    
C106  H52   1.110631 S    
O25   C21   1.260459 A    
C105  H47   1.110049 S    
O26   Cr2   2.073094 S    
C27   C31   1.415393 A    
O47   C23   1.271674 A    
C94   C98   1.390023 A    
C5    C26   1.468718 S    
C26   C30   1.428044 A    
C81   C85   1.379216 A    
N7    O57   1.301408 A    
O21   C9    1.264382 A    
O8    Cr4   1.953361 S    
O23   Cr11  1.946124 S    
C71   C76   1.406175 A    
C48   C52   1.397398 A    
C43   H11   1.081127 S    
O30   C14   1.262063 A    
C72   C75   1.393895 A    
C81   C101  1.406212 A    
C84   C104  1.394931 A    
C18   C73   1.450534 S    
C1    O9    1.272059 A    
O44   Cr12  2.067081 S    
O25   Cr1   2.070677 S    
C84   C88   1.375037 A    
C45   H13   1.083567 S    
C62   H22   1.082610 S    
C3    O11   1.272056 A    
C56   C60   1.398597 A    
C99   N3    1.421515 S    
O11   Cr7   2.070955 S    
C4    O12   1.259601 A    
C26   C33   1.394600 A    
C40   C42   1.393841 A    
C50   N6    1.438094 S    
N7    O58   1.300889 A    
C94   H42   1.084333 S    
C84   H36   1.083964 S    
C93   H41   1.083977 S    
O6    Cr2   1.953361 S    
O27   Cr3   2.070677 S    
O3    Cr3   2.065629 S    
C108  H58   1.111759 S    
Cr4   O52   1.975164 S    
C83   H35   1.082412 S    
O2    Cr2   2.065227 S    
O8    C4    1.275748 A    
C48   H16   1.083570 S    
C87   C91   1.388186 A    
Cr9   O49   1.974698 S    
O2    C10   1.258530 A    
C13   C92   1.439897 S    
C10   C66   1.452037 S    
C54   C58   1.398595 A    
C37   C43   1.391011 A    
Cr5   O49   1.969861 S    
C96   C100  1.390007 A    
N5    O53   1.301410 A    
Cr8   O52   1.974324 S    
C95   H43   1.083987 S    
C46   C66   1.398002 A    
C42   H10   1.082447 S    
C97   C101  1.400688 A    
C50   C54   1.421383 A    
C59   H19   1.082323 S    
O34   Cr6   2.067100 S    
C95   C99   1.393364 A    
C100  C104  1.426127 A    
C82   C102  1.394953 A    
C20   O44   1.268926 A    
O7    C3    1.267440 A    
C91   C95   1.407993 A    
N1    C105  1.446203 S    
C73   C77   1.408994 A    
O24   Cr12  1.947411 S    
N8    O60   1.300966 A    
C32   C40   1.416655 A    
C20   C75   1.450422 S    
O30   Cr2   1.944924 S    
O22   C10   1.272365 A    
O1    C9    1.271492 A    
O48   Cr12  1.954062 S    
Cr12  O52   1.970367 S    
C2    C55   1.453592 S    
C90   C94   1.388336 A    
C5    O17   1.277841 A    
C2    O10   1.259603 A    
C3    C54   1.460978 S    
H3    C35   1.081765 S    
N2    H49   1.030941 S    
C44   H12   1.082444 S    
O16   Cr8   1.949453 S    
C83   C103  1.406218 A    
O7    Cr3   1.951571 S    
C17   C74   1.449698 S    
C51   N7    1.437064 S    
Cr10  O50   1.970367 S    
C79   H31   1.083453 S    
O13   C5    1.264896 A    
O40   C20   1.264495 A    
O43   Cr11  2.066059 S    
O48   C24   1.259548 A    
O12   Cr8   2.069486 S    
C46   H14   1.083568 S    
O15   C7    1.264898 A    
C105  H46   1.111663 S    
O5    C1    1.267436 A    
C106  H50   1.111781 S    
C47   C67   1.407568 A    
C96   H44   1.084331 S    
N2    C106  1.445779 S    
O39   Cr7   1.950447 S    
O13   Cr5   1.952537 S    
C98   C102  1.426153 A    
C25   C29   1.415394 A    
O45   Cr9   1.951685 S    
C71   C72   1.380263 A    
C62   C66   1.401065 A    
C12   C68   1.452038 S    
O3    C11   1.271495 A    
C52   C56   1.421392 A    
Cr11  O51   1.974698 S    
Cr1   O49   1.975263 S    
C47   C51   1.395288 A    
N6    O56   1.300918 A    
C13   O33   1.251857 A    
N4    C108  1.445675 S    
C89   C93   1.407982 A    
Cr2   O50   1.975164 S    
O15   Cr7   1.952537 S    
C108  H59   1.110199 S    
C39   H7    1.080815 S    
C82   H34   1.083965 S    
C6    O18   1.265047 A    
C85   H37   1.080422 S    
C49   C53   1.409318 A    
Cr3   O51   1.975263 S    
O14   Cr6   1.949453 S    
C107  H55   1.110108 S    
O21   Cr9   1.946124 S    
C74   C78   1.396283 A    
C7    O19   1.277840 A    
C4    C53   1.453596 S    
N5    O54   1.300887 A    
O9    Cr5   2.070955 S    
C58   H18   1.083801 S    
O37   Cr5   1.950447 S    
C22   C102  1.453175 S    
C6    C25   1.464649 S    
C71   H27   1.081793 S    
C19   O43   1.257197 A    
C105  H48   1.109270 S    
C21   C101  1.444808 S    
C69   H25   1.081894 S    
C47   H15   1.083564 S    
N4    H57   1.030886 S    
C8    O20   1.265046 A    
C63   C67   1.387594 A    
C27   C36   1.402040 A    
C107  H54   1.111704 S    
O31   Cr3   1.945853 S    
O38   C18   1.264575 A    
C76   C80   1.396020 A    
C57   C61   1.373384 A    
O45   C21   1.271680 A    
C57   H17   1.082326 S    
N8    O59   1.301408 A    
C45   C49   1.395287 A    
O37   C17   1.272045 A    
O22   Cr10  1.947411 S    
O28   C24   1.274668 A    
H1    C33   1.081764 S    
O14   C6    1.273625 A    
C25   C34   1.402039 A    
C87   H39   1.080398 S    
C29   C37   1.413393 A    
C86   C90   1.403429 A    
O5    Cr1   1.951571 S    
C64   H24   1.082607 S    
C85   C89   1.388205 A    
O17   Cr9   2.073034 S    
O40   Cr8   1.948982 S    
C69   C74   1.406273 A    
O6    C2    1.275745 A    
C15   O35   1.251863 A    
O24   C12   1.272365 A    
C17   O41   1.257217 A    
C78   H30   1.083504 S    
C98   N2    1.423776 S    
C46   C50   1.397391 A    
C31   C39   1.413393 A    
C14   O34   1.269921 A    
C51   C55   1.409316 A    
C30   C38   1.416651 A    
C31   C32   1.418521 A    
C75   C79   1.408906 A    
C88   H40   1.083424 S    
C55   C59   1.409257 A    
O1    Cr1   2.065629 S    
C40   H8    1.079314 S    
H2    C34   1.082915 S    
C48   C68   1.398003 A    
C61   C65   1.387603 A    
C106  H51   1.110244 S    
O32   C16   1.262083 A    
O29   C13   1.271256 A    
C41   C42   1.388697 A    
C8    C27   1.464649 S    
O46   Cr10  1.954062 S    
C77   H29   1.083564 S    
C52   N8    1.438115 S    
C24   C104  1.453139 S    
C58   C62   1.373841 A    
C81   H33   1.082406 S    
C63   H23   1.082181 S    
C28   C32   1.428045 A    
O23   C11   1.264382 A    
O19   Cr11  2.073034 S    
N6    O55   1.301399 A    
N3    C107  1.446230 S    
O38   Cr6   1.948982 S    
O33   Cr5   2.070551 S    
C9    C65   1.447767 S    
O10   Cr6   2.069486 S    
O42   Cr10  2.067081 S    
C108  H60   1.110618 S    
O35   Cr7   2.070551 S    
O4    Cr4   2.065227 S    
C49   N5    1.437065 S    
C70   H26   1.084033 S    
C100  N4    1.423726 S    
C97   N1    1.421500 S    
C82   C86   1.375049 A    
C1    C56   1.460981 S    
O28   Cr4   2.073094 S    
C16   O36   1.269898 A    
C107  H56   1.109352 S    
C83   C87   1.379203 A    
O46   C22   1.259553 A    
C88   C92   1.403429 A    
O18   Cr10  2.074885 S    
Cr6   O50   1.974324 S    
H4    C36   1.082918 S    
C28   C35   1.394602 A    
C35   C36   1.369605 A    
O27   C23   1.260476 A    
C23   C103  1.444829 S    
O41   Cr9   2.066059 S    
C86   H38   1.083441 S    
C64   C68   1.401059 A    
O32   Cr4   1.944924 S    
C60   H20   1.083803 S    
O36   Cr8   2.067100 S    
O31   C15   1.271256 A    
O16   C8    1.273626 A    
C61   H21   1.082187 S    
C19   C76   1.449544 S    
C80   H32   1.083397 S    
C70   C73   1.394051 A    
N3    H53   1.030696 S    
