data_mof_unit_44217.cif
_audit_creation_date              2012-12-10T17:59:15-0500
_audit_creation_method            fapswitch 2.2
_symmetry_space_group_name_H-M    P1
_symmetry_Int_Tables_number       1
_space_group_crystal_system       triclinic
_cell_length_a                    10.807031
_cell_length_b                    9.515498
_cell_length_c                    10.758805
_cell_angle_alpha                 89.462749
_cell_angle_beta                  88.882156
_cell_angle_gamma                 89.998424
_cell_volume                      1106.11478382

loop_
_atom_site_label
_atom_site_type_symbol
_atom_type_description
_atom_site_fract_x
_atom_site_fract_y
_atom_site_fract_z
_atom_type_partial_charge
C1    C     C_R   0.262283 0.499998 0.495142 0.773709
C2    C     C_3   0.614628 0.543362 0.921144 -0.431303
C3    C     C_R   0.064246 0.372104 0.491495 -0.205380
C4    C     C_R   0.064589 0.626642 0.473961 -0.192476
C5    C     C_R   0.936339 0.372145 0.494732 -0.194382
C6    C     C_R   0.936527 0.626892 0.476989 -0.202903
C7    C     C_R   0.871994 0.499794 0.490277 -0.017983
C8    C     C_R   0.128732 0.499637 0.486345 0.001649
C9    C     C_R   0.432438 0.075292 0.415845 -0.028990
C10   C     C_R   0.432442 0.926450 0.415846 -0.034656
C11   C     C_R   0.567132 0.924719 0.584605 -0.031198
C12   C     C_R   0.567050 0.073556 0.584667 -0.016781
C13   C     C_R   0.500499 0.500442 0.259744 0.769078
C14   C     C_R   0.738002 0.500000 0.497435 0.786965
C15   C     C_R   0.490038 0.498997 0.739867 0.746697
C16   C     C_3   0.399552 0.610098 0.077698 -0.403092
C17   C     C_3   0.457699 0.352627 0.076541 -0.400808
C18   C     C_3   0.388357 0.605524 0.934076 -0.124118
C19   C     C_3   0.463413 0.342610 0.933446 -0.125969
C20   C     C_3   0.623106 0.538795 0.064219 -0.404086
C21   C     C_3   0.495573 0.500688 0.122068 0.129371
C22   C     C_3   0.483498 0.495698 0.878004 0.077074
Cu1   Cu    Cu3+1 0.500020 0.640660 0.500000 0.923221
Cu2   Cu    Cu3+1 0.500020 0.359340 0.500000 0.930562
H1    H     H_    0.429655 0.717412 0.104658 0.157092
H2    H     H_    0.521086 0.271314 0.114726 0.159834
H3    H     H_    0.621221 0.867985 0.652128 0.113400
H4    H     H_    0.620951 0.128938 0.652293 0.111573
H5    H     H_    0.310019 0.593159 0.127931 0.146270
H6    H     H_    0.363357 0.327896 0.113913 0.158836
H7    H     H_    0.421468 0.710614 0.900785 0.134924
H8    H     H_    0.549903 0.283877 0.909590 0.137020
H9    H     H_    0.654460 0.642720 0.098337 0.169523
H10   H     H_    0.693137 0.459412 0.092316 0.159548
H11   H     H_    0.635186 0.652149 0.887652 0.169513
H12   H     H_    0.688089 0.474787 0.880264 0.151480
H13   H     H_    0.112393 0.272422 0.495254 0.143686
H14   H     H_    0.113053 0.726068 0.465898 0.141076
H15   H     H_    0.888207 0.272481 0.502159 0.145601
H16   H     H_    0.888428 0.726490 0.470664 0.146648
H17   H     H_    0.378101 0.132035 0.348518 0.114827
H18   H     H_    0.378133 0.871072 0.348536 0.113469
N1    N     N_R   0.500030 0.852070 0.500030 -0.156118
N2    N     N_R   0.500030 0.147930 0.500030 -0.153102
O1    O     O_R   0.319660 0.618740 0.499990 -0.588620
O2    O     O_R   0.319660 0.381260 0.499990 -0.591310
O3    O     O_R   0.499990 0.618790 0.317690 -0.589754
O4    O     O_R   0.499990 0.381210 0.317690 -0.593180
O5    O     O_R   0.680370 0.618830 0.500010 -0.584612
O6    O     O_R   0.680370 0.381170 0.500010 -0.585380
O7    O     O_R   0.500030 0.618780 0.682310 -0.592665
O8    O     O_R   0.500030 0.381220 0.682310 -0.587433
C23   C     C_R   0.253774 0.595282 0.893539 0.071662
C24   C     C_R   0.211854 0.685090 0.798477 -0.182542
C25   C     C_R   0.086878 0.688380 0.767640 -0.129857
C26   C     C_R   0.002260 0.599095 0.827856 -0.103138
C27   C     C_R   0.042048 0.508225 0.921282 -0.149661
C28   C     C_R   0.166289 0.507301 0.955176 -0.122369
H19   H     H_    0.275388 0.755508 0.749913 0.156157
H20   H     H_    0.055371 0.761473 0.697551 0.124983
H21   H     H_    0.905773 0.601046 0.802655 0.117369
H22   H     H_    0.976370 0.439124 0.968321 0.125001
H23   H     H_    0.193519 0.435916 0.028231 0.129202
C29   C     C_R   0.360689 0.244094 0.889060 0.106844
C30   C     C_R   0.272512 0.279180 0.798920 -0.039781
C31   C     C_R   0.175917 0.186954 0.772828 -0.154753
C32   C     C_R   0.168093 0.056395 0.832007 -0.129024
C33   C     C_R   0.258183 0.016311 0.916071 -0.142503
C34   C     C_R   0.354338 0.108239 0.943091 -0.190409
H24   H     H_    0.273988 0.378613 0.750679 0.130814
H25   H     H_    0.105320 0.217702 0.708443 0.129345
H26   H     H_    0.091972 0.986690 0.812829 0.125403
H27   H     H_    0.252759 0.914811 0.962002 0.136548
H28   H     H_    0.422513 0.074395 0.009457 0.114361

loop_
_geom_bond_atom_site_label_1
_geom_bond_atom_site_label_2
_ccdc_geom_bond_type
C2    H11   S    
Cu2   O8    S    
C25   C26   A    
C16   C21   S    
Cu1   O1    S    
C10   H18   S    
C1    C8    S    
C4    C8    A    
C27   H22   S    
C23   C24   A    
C12   H4    S    
C17   H2    S    
C1    O2    A    
Cu1   O5    S    
C14   O5    A    
C30   H24   S    
C16   H1    S    
Cu1   N1    S    
C26   C27   A    
C32   H26   S    
C18   C23   S    
C7    C14   S    
C33   C34   A    
C2    C22   S    
Cu1   Cu2   S    
C11   N1    A    
C15   O7    A    
C9    C10   A    
C20   H10   S    
C31   C32   A    
C25   H20   S    
C17   H6    S    
C19   H8    S    
C24   H19   S    
C15   C22   S    
Cu2   O6    S    
Cu1   O3    S    
C2    C20   S    
C32   C33   A    
Cu2   O4    S    
C19   C22   S    
C4    C6    A    
C3    C8    A    
C5    C7    A    
C33   H27   S    
C15   O8    A    
C17   C21   S    
Cu1   O7    S    
C31   H25   S    
C11   H3    S    
C19   C29   S    
C11   C12   A    
C13   C21   S    
C34   H28   S    
C29   C34   A    
C20   H9    S    
C4    H14   S    
C5    H15   S    
Cu2   N2    S    
C6    H16   S    
C13   O3    A    
C2    H12   S    
C28   H23   S    
C24   C25   A    
C9    N2    A    
C10   N1    A    
C18   C22   S    
C3    C5    A    
C13   O4    A    
C23   C28   A    
C6    C7    A    
C9    H17   S    
Cu2   O2    S    
C29   C30   A    
C16   H5    S    
C12   N2    A    
C1    O1    A    
C27   C28   A    
C14   O6    A    
C17   C19   S    
C20   C21   S    
C3    H13   S    
C16   C18   S    
C30   C31   A    
C26   H21   S    
C18   H7    S    
