data_mof_unit_55182.cif
_audit_creation_date              2012-12-11T15:09:34-0500
_audit_creation_method            fapswitch 2.2
_symmetry_space_group_name_H-M    P1
_symmetry_Int_Tables_number       1
_space_group_crystal_system       triclinic
_cell_length_a                    21.071816
_cell_length_b                    7.129197
_cell_length_c                    14.016057
_cell_angle_alpha                 89.999437
_cell_angle_beta                  98.645202
_cell_angle_gamma                 89.999656
_cell_volume                      2081.64074435

loop_
_atom_site_label
_atom_site_type_symbol
_atom_type_description
_atom_site_fract_x
_atom_site_fract_y
_atom_site_fract_z
_atom_type_partial_charge
O1    O     O_R   0.447130 0.507140 0.597350 -0.540060
O2    O     O_R   0.552870 0.007140 0.402650 -0.540057
O3    O     O_R   0.578910 0.181280 0.586990 -0.538305
O4    O     O_R   0.421090 0.681280 0.413010 -0.538305
C1    C     C_R   0.604502 0.344450 0.607369 0.725345
C2    C     C_R   0.395498 0.844452 0.392631 0.725351
O5    O     O_R   0.449230 0.177860 0.608640 -0.543473
O6    O     O_R   0.550770 0.677860 0.391360 -0.543473
O7    O     O_R   0.422260 0.000770 0.424450 -0.534847
O8    O     O_R   0.577740 0.500770 0.575550 -0.534848
C3    C     C_R   0.432275 0.346188 0.633527 0.708341
C4    C     C_R   0.567725 0.846188 0.366473 0.708348
O9    O     O_3   0.491310 0.336980 0.439550 -0.375171
O10   O     O_3   0.508690 0.836980 0.560450 -0.375175
V1    V     V_3+5 0.501610 0.064760 0.511210 1.417411
V2    V     V_3+5 0.498390 0.564760 0.488790 1.417412
C5    C     C_R   0.616855 0.939455 0.126152 -0.158087
C6    C     C_R   0.383140 0.439603 0.873830 -0.158095
H1    H     H_    0.530072 0.965354 0.186931 0.115092
H2    H     H_    0.469918 0.465520 0.813040 0.115102
H3    H     H_    0.693054 0.932801 0.995509 0.126562
H4    H     H_    0.306943 0.433024 0.004476 0.126563
H5    H     H_    0.593753 0.982454 0.055173 0.120350
H6    H     H_    0.406237 0.482690 0.944795 0.120352
C7    C     C_R   0.607751 0.857121 0.290276 -0.036121
C8    C     C_R   0.392251 0.357129 0.709728 -0.036134
C9    C     C_R   0.916251 0.868239 0.299115 -0.164450
C10   C     C_R   0.083749 0.368108 0.700888 -0.164448
C11   C     C_R   0.879886 0.884802 0.373024 -0.126245
C12   C     C_R   0.120113 0.384592 0.626974 -0.126243
C13   C     C_R   0.813467 0.886229 0.352380 -0.158348
C14   C     C_R   0.186533 0.386056 0.647618 -0.158355
C15   C     C_R   0.781388 0.861663 0.257165 0.050673
C16   C     C_R   0.218614 0.361603 0.742840 0.050670
C17   C     C_R   0.818158 0.863426 0.179124 0.044306
C18   C     C_R   0.181844 0.363441 0.820881 0.044304
C19   C     C_R   0.713085 0.854320 0.237685 0.061184
C20   C     C_R   0.286918 0.354307 0.762321 0.061192
C21   C     C_R   0.682776 0.901694 0.143889 0.069667
C22   C     C_R   0.317223 0.401783 0.856105 0.069666
C23   C     C_R   0.718059 0.907849 0.067893 -0.176874
C24   C     C_R   0.281940 0.407991 0.932099 -0.176873
C25   C     C_R   0.784209 0.874790 0.082472 0.093807
C26   C     C_R   0.215792 0.374901 0.917529 0.093815
C27   C     C_R   0.673168 0.805195 0.307501 0.093937
C28   C     C_R   0.326840 0.305146 0.692519 0.093915
C29   C     C_R   0.580436 0.927489 0.200517 -0.208587
C30   C     C_R   0.419559 0.427598 0.799467 -0.208576
C31   C     C_R   0.886777 0.861373 0.202832 -0.062952
C32   C     C_R   0.113226 0.361357 0.797173 -0.062944
H7    H     H_    0.968144 0.869255 0.316884 0.102292
H8    H     H_    0.031856 0.369088 0.683119 0.102291
H9    H     H_    0.787560 0.913455 0.411797 0.135098
H10   H     H_    0.212437 0.413225 0.588193 0.135099
H11   H     H_    0.903352 0.900222 0.446802 0.120949
H12   H     H_    0.096647 0.399923 0.553190 0.120947
C33   C     C_1   0.166637 0.857247 0.168189 -0.193931
C34   C     C_1   0.833363 0.357250 0.831811 -0.193931
C35   C     C_1   0.219037 0.854951 0.219280 0.004677
C36   C     C_1   0.780964 0.354953 0.780720 0.004677
C37   C     C_1   0.280758 0.853420 0.279375 0.000052
C38   C     C_1   0.719242 0.353419 0.720625 0.000053
C39   C     C_1   0.333098 0.851034 0.330648 -0.197341
C40   C     C_1   0.666902 0.351031 0.669352 -0.197343
O11   O     O_R   0.922300 0.202240 0.924350 -0.537099
O12   O     O_R   0.077700 0.702240 0.075650 -0.537108
O13   O     O_R   0.050780 0.535130 0.891350 -0.541562
O14   O     O_R   0.949220 0.035130 0.108650 -0.541557
C41   C     C_R   0.069806 0.368484 0.868900 0.701917
C42   C     C_R   0.930196 0.868485 0.131103 0.701917
O15   O     O_R   0.921100 0.531560 0.912990 -0.540544
O16   O     O_R   0.078900 0.031560 0.087010 -0.540543
O17   O     O_R   0.947120 0.708470 0.097370 -0.540292
O18   O     O_R   0.052880 0.208470 0.902630 -0.540288
C43   C     C_R   0.895867 0.363604 0.893483 0.713103
C44   C     C_R   0.104133 0.863603 0.106516 0.713101
O19   O     O_3   0.008710 0.375800 0.060400 -0.372261
O20   O     O_3   0.991290 0.875800 0.939600 -0.372261
V3    V     V_3+5 0.998380 0.648080 0.988790 1.410453
V4    V     V_3+5 0.001620 0.148080 0.011210 1.410468
C45   C     C_3   0.695911 0.676782 0.392144 -0.797409
H13   H     H_    0.662398 0.556853 0.392404 0.222983
H14   H     H_    0.742930 0.610934 0.387149 0.215758
H15   H     H_    0.698052 0.754411 0.461237 0.196161
C46   C     C_3   0.304111 0.176646 0.607910 -0.797404
H16   H     H_    0.337635 0.056732 0.607692 0.223003
H17   H     H_    0.257096 0.110789 0.612916 0.215758
H18   H     H_    0.301970 0.254216 0.538798 0.196164
C47   C     C_3   0.814650 0.854946 0.992273 -0.734886
H19   H     H_    0.778683 0.855667 0.925597 0.192243
H20   H     H_    0.847310 0.973569 0.985566 0.218827
H21   H     H_    0.839561 0.718369 0.993153 0.217645
C48   C     C_3   0.185352 0.355150 0.007733 -0.734938
H22   H     H_    0.221318 0.355949 0.074409 0.192257
H23   H     H_    0.152689 0.473783 0.014401 0.218857
H24   H     H_    0.160441 0.218576 0.006895 0.217634

loop_
_geom_bond_atom_site_label_1
_geom_bond_atom_site_label_2
_ccdc_geom_bond_type
O14   V4    S    
O15   C43   A    
C48   H22   S    
C9    C11   A    
O1    C3    A    
O16   C44   A    
O2    C4    A    
C2    O7    A    
O15   V3    S    
C45   H13   S    
O3    V1    S    
C21   C23   A    
H4    C24   S    
C46   H16   S    
O5    C3    A    
O12   V3    S    
C25   C47   S    
C6    H6    S    
C33   C44   S    
C32   C41   S    
O20   V4    S    
C33   C35   T    
C34   C36   T    
C36   C38   S    
C5    C21   A    
C37   C39   T    
C6    C22   A    
C38   C40   T    
C26   C48   S    
C10   C32   A    
C17   C31   A    
C13   C15   A    
C47   H20   S    
C17   C25   A    
C7    C29   A    
C8    C30   A    
C28   C46   S    
O5    V1    S    
O6    V2    S    
O11   V4    S    
O18   V4    S    
C11   C13   A    
C23   C25   A    
C24   C26   A    
C14   H10   S    
C45   H14   S    
C9    H7    S    
C34   C43   S    
O19   V3    S    
C35   C37   S    
C46   H17   S    
C12   C14   A    
O13   V3    S    
O4    C2    A    
O20   V3    S    
C11   H11   S    
C3    C8    S    
C12   H12   S    
C15   C19   A    
C1    C40   S    
O13   C41   A    
C14   C16   A    
C2    C39   S    
O4    V2    S    
O6    C4    A    
O12   C44   A    
C42   O17   A    
O17   V3    S    
C41   O18   A    
O1    V2    S    
C5    H5    S    
C13   H9    S    
C47   H21   S    
O2    V1    S    
H2    C30   S    
H3    C23   S    
O14   C42   A    
C48   H24   S    
C31   C42   S    
C18   C26   A    
C19   C27   A    
C7    C27   A    
C45   H15   S    
C18   C32   A    
C46   H18   S    
C16   C20   A    
C27   C45   S    
C5    C29   A    
O3    C1    A    
C6    C30   A    
O9    V2    S    
O11   C43   A    
C4    C7    S    
C10   C12   A    
O7    V1    S    
C1    O8    A    
C19   C21   A    
O8    V2    S    
C20   C22   A    
C10   H8    S    
C48   H23   S    
O19   V4    S    
C22   C24   A    
C15   C17   A    
C16   C18   A    
C20   C28   A    
C8    C28   A    
O16   V4    S    
H1    C29   S    
O10   V1    S    
C47   H19   S    
C9    C31   A    
