data_mof_unit_15848.cif
_audit_creation_date              2012-10-26T19:25:53-0400
_audit_creation_method            fapswitch 2.2
_symmetry_space_group_name_H-M    P1
_symmetry_Int_Tables_number       1
_space_group_crystal_system       triclinic
_cell_length_a                    15.032812
_cell_length_b                    13.874815
_cell_length_c                    11.687274
_cell_angle_alpha                 90.06623
_cell_angle_beta                  87.857693
_cell_angle_gamma                 90.292583
_cell_volume                      2435.96552675

loop_
_atom_site_label
_atom_site_type_symbol
_atom_type_description
_atom_site_fract_x
_atom_site_fract_y
_atom_site_fract_z
_atom_type_partial_charge
C1    C     C_R   0.329204 0.499464 0.499277 0.548372
C2    C     C_R   0.556885 0.205941 0.426641 0.134871
C3    C     C_R   0.556598 0.794629 0.426370 0.138858
C4    C     C_R   0.443046 0.205496 0.573276 0.137713
C5    C     C_R   0.565810 0.897199 0.436267 -0.007933
C6    C     C_R   0.434001 0.102915 0.563484 -0.008099
C7    C     C_R   0.434250 0.896628 0.563661 -0.009717
C8    C     C_R   0.565952 0.103512 0.436530 -0.010432
C9    C     C_R   0.499994 0.948553 0.499930 0.010073
C10   C     C_R   0.499972 0.051601 0.499968 0.010312
C11   C     C_R   0.639554 0.949702 0.387660 -0.010538
C12   C     C_R   0.670715 0.500148 0.500699 0.537582
C13   C     C_R   0.360327 0.050316 0.612173 -0.011146
C14   C     C_R   0.360492 0.948347 0.612335 -0.012064
C15   C     C_R   0.639689 0.051671 0.387994 -0.013721
C16   C     C_R   0.501325 0.499989 0.284140 0.573834
C17   C     C_R   0.499007 0.500020 0.715849 0.566559
C18   C     C_1   0.501335 0.499961 0.162392 0.077588
C19   C     C_1   0.499100 0.500055 0.837586 0.075590
C20   C     C_1   0.500741 0.499982 0.059879 0.048811
C21   C     C_1   0.499745 0.500031 0.940095 0.049313
C22   C     C_R   0.817751 0.498703 0.401199 -0.004223
C23   C     C_R   0.908163 0.471961 0.402394 0.049722
C24   C     C_R   0.184238 0.500230 0.605367 -0.003894
C25   C     C_R   0.767510 0.499169 0.504439 -0.023018
C26   C     C_R   0.232145 0.495593 0.500137 -0.029104
C27   C     C_R   0.808069 0.487508 0.610252 -0.000130
C28   C     C_R   0.188860 0.479837 0.396968 0.000961
C29   C     C_R   0.902634 0.482149 0.613534 -0.020332
C30   C     C_R   0.095228 0.465571 0.399076 -0.024178
C31   C     C_R   0.952304 0.474939 0.507470 0.005304
C32   C     C_R   0.046437 0.473622 0.505361 0.007673
C33   C     C_2   0.776254 0.533491 0.294882 0.277276
C34   C     C_R   0.091556 0.480792 0.609320 0.054042
C35   C     C_2   0.230882 0.537407 0.706945 0.265594
C36   C     C_2   0.749374 0.478063 0.714533 0.263522
C37   C     C_2   0.240612 0.491450 0.286969 0.256989
C38   C     C_1   0.906185 0.493642 0.829444 0.186260
C39   C     C_1   0.094859 0.393527 0.201828 0.184590
C40   C     C_2   0.085428 0.430321 0.818312 0.296735
C41   C     C_2   0.907595 0.393900 0.205755 0.304891
C42   C     C_2   0.400400 0.744196 0.672602 0.311693
C43   C     C_2   0.600920 0.256289 0.328365 0.313337
C44   C     C_2   0.600566 0.744516 0.328318 0.306257
C45   C     C_R   0.949620 0.479967 0.717542 -0.045633
C46   C     C_2   0.398712 0.255767 0.671125 0.305780
C47   C     C_1   0.720477 0.900483 0.349056 0.242867
C48   C     C_1   0.279238 0.099375 0.650476 0.243620
C49   C     C_1   0.279617 0.898184 0.650878 0.240227
C50   C     C_1   0.720921 0.101566 0.350372 0.238386
C51   C     C_R   0.048770 0.436917 0.300502 -0.055299
C52   C     C_R   0.042509 0.468087 0.714195 0.036278
C53   C     C_R   0.955148 0.438652 0.302698 0.033612
C54   C     C_R   0.443605 0.794253 0.573795 0.135462
Cu1   Cu    Cu3+1 0.500000 0.597420 0.500000 0.996855
Cu2   Cu    Cu3+1 0.500000 0.402580 0.500000 0.995983
H1    H     H_    0.706101 0.521302 0.281344 0.090783
H2    H     H_    0.356044 0.316869 0.659104 0.141194
H3    H     H_    0.298179 0.514625 0.723137 0.093956
H4    H     H_    0.751814 0.413435 0.766504 0.123811
H5    H     H_    0.217083 0.540195 0.222260 0.125755
H6    H     H_    0.061707 0.451450 0.903437 0.135930
H7    H     H_    0.934860 0.399579 0.118735 0.138796
H8    H     H_    0.358995 0.681686 0.661490 0.140851
H9    H     H_    0.643225 0.318262 0.339801 0.145514
H10   H     H_    0.643018 0.683378 0.340328 0.134420
N1    N     N_R   0.500000 0.743810 0.500000 -0.283605
N2    N     N_R   0.500000 0.256190 0.500000 -0.283808
N3    N     N_1   0.872393 0.504830 0.919108 -0.222774
N4    N     N_1   0.131040 0.358638 0.123123 -0.203137
N5    N     N_1   0.785106 0.861667 0.318524 -0.203814
N6    N     N_1   0.214478 0.138067 0.680759 -0.197061
N7    N     N_1   0.215038 0.858594 0.681358 -0.199921
N8    N     N_1   0.785875 0.140805 0.320680 -0.189866
O1    O     O_R   0.370260 0.582280 0.500020 -0.536165
O2    O     O_2   0.195603 0.596961 0.770637 -0.469731
O3    O     O_2   0.699464 0.543416 0.743831 -0.458730
O4    O     O_2   0.307063 0.443578 0.265944 -0.461340
O5    O     O_2   0.145585 0.371611 0.809559 -0.463392
O6    O     O_2   0.839451 0.347015 0.223090 -0.478381
O7    O     O_2   0.410751 0.774029 0.769574 -0.455045
O8    O     O_2   0.590431 0.227135 0.231138 -0.454465
O9    O     O_2   0.589846 0.772879 0.230944 -0.459025
O10   O     O_2   0.409372 0.227572 0.768584 -0.458703
O11   O     O_R   0.629740 0.417720 0.499980 -0.540838
O12   O     O_R   0.629740 0.582280 0.499980 -0.503951
O13   O     O_R   0.370260 0.417720 0.500020 -0.498293
O14   O     O_R   0.500010 0.582270 0.337200 -0.506482
O15   O     O_R   0.499990 0.417730 0.662800 -0.508853
O16   O     O_R   0.499990 0.582270 0.662800 -0.480653
O17   O     O_R   0.500010 0.417730 0.337200 -0.473573
O18   O     O_2   0.819782 0.579336 0.223150 -0.453336

loop_
_geom_bond_atom_site_label_1
_geom_bond_atom_site_label_2
_ccdc_geom_bond_type
C1    O13   A    
C39   C51   S    
Cu1   Cu2   S    
C27   C29   A    
C44   H10   S    
C30   C51   A    
C44   O9    D    
C41   O6    D    
C4    C46   S    
C12   O11   A    
C19   C21   T    
C24   C26   A    
C5    C11   A    
Cu1   O16   S    
C2    N2    A    
C36   O3    D    
C50   N8    T    
C14   C49   S    
C40   H6    S    
C35   H3    S    
C15   C50   S    
Cu1   O14   S    
C38   C45   S    
C11   C47   S    
C7    C14   A    
C22   C25   A    
C9    C10   A    
Cu1   O1    S    
C38   N3    T    
C13   C14   A    
C46   H2    S    
C42   O7    D    
C11   C15   A    
C48   N6    T    
C23   C53   A    
Cu2   O17   S    
C35   O2    D    
C3    N1    A    
C3    C44   S    
C24   C35   S    
C1    O1    A    
C17   O15   A    
C4    C6    A    
C33   O18   D    
C4    N2    A    
Cu2   O13   S    
C54   N1    A    
C45   C52   A    
C3    C5    A    
C40   C52   S    
C24   C34   A    
C29   C45   A    
C51   C53   A    
C23   C31   A    
C5    C9    A    
C37   H5    S    
C31   C32   A    
C2    C43   S    
C43   H9    S    
C47   N5    T    
C40   O5    D    
C41   C53   S    
C46   O10   D    
C16   C18   S    
Cu2   O15   S    
C8    C15   A    
C1    C26   S    
C49   N7    T    
C41   H7    S    
C42   H8    S    
C7    C9    A    
C22   C33   S    
C33   H1    S    
C34   C52   A    
C2    C8    A    
C17   O16   A    
C36   H4    S    
C6    C10   A    
C13   C48   S    
Cu1   N1    S    
C27   C36   S    
C25   C27   A    
C37   O4    D    
C26   C28   A    
C12   O12   A    
C12   C25   S    
Cu1   O12   S    
C28   C30   A    
C29   C31   A    
Cu2   N2    S    
C42   C54   S    
C6    C13   A    
C30   C32   A    
Cu2   O11   S    
C28   C37   S    
C17   C19   S    
C39   N4    T    
C18   C20   T    
C20   C21   S    
C16   O17   A    
C8    C10   A    
C16   O14   A    
C43   O8    D    
C22   C23   A    
C7    C54   A    
C32   C34   A    
