data_mof_unit_47777.cif
_audit_creation_date              2012-10-26T20:04:26-0400
_audit_creation_method            fapswitch 2.2
_symmetry_space_group_name_H-M    P1
_symmetry_Int_Tables_number       1
_space_group_crystal_system       triclinic
_cell_length_a                    15.064784
_cell_length_b                    13.685195
_cell_length_c                    14.33186
_cell_angle_alpha                 89.9987
_cell_angle_beta                  88.591378
_cell_angle_gamma                 89.999843
_cell_volume                      2953.82793467

loop_
_atom_site_label
_atom_site_type_symbol
_atom_type_description
_atom_site_fract_x
_atom_site_fract_y
_atom_site_fract_z
_atom_type_partial_charge
C1    C     C_R   0.328904 0.499910 0.500491 0.603103
C2    C     C_R   0.958694 0.522293 0.330630 -0.141240
C3    C     C_R   0.439694 0.793301 0.554992 0.037321
C4    C     C_R   0.560557 0.206742 0.445316 0.024951
C5    C     C_R   0.560306 0.793303 0.445008 0.037320
C6    C     C_R   0.439443 0.206740 0.554684 0.024947
C7    C     C_R   0.561880 0.896395 0.443852 -0.017025
C8    C     C_R   0.437982 0.103670 0.555978 -0.018659
C9    C     C_R   0.438119 0.896393 0.556148 -0.017025
C10   C     C_R   0.562017 0.103672 0.444022 -0.018658
C11   C     C_R   0.500000 0.948204 0.500000 0.051645
C12   C     C_R   0.671095 0.499910 0.499509 0.603103
C13   C     C_R   0.500000 0.051870 0.500000 0.050950
C14   C     C_R   0.623571 0.948679 0.388136 -0.146624
C15   C     C_R   0.376317 0.051393 0.611719 -0.147929
C16   C     C_R   0.376429 0.948675 0.611864 -0.146626
C17   C     C_R   0.623683 0.051397 0.388280 -0.147929
C18   C     C_R   0.499111 0.499960 0.330927 0.570008
C19   C     C_R   0.500889 0.499959 0.669073 0.570008
C20   C     C_1   0.497209 0.499735 0.228747 -0.015840
C21   C     C_1   0.502792 0.499730 0.771252 -0.015841
C22   C     C_1   0.496766 0.499410 0.143355 -0.042712
C23   C     C_R   0.953098 0.511081 0.500056 -0.006127
C24   C     C_1   0.503236 0.499406 0.856645 -0.042715
C25   C     C_1   0.498713 0.499182 0.042711 -0.028408
C26   C     C_1   0.501289 0.499180 0.957289 -0.028410
C27   C     C_R   0.815374 0.510306 0.413964 -0.081749
C28   C     C_R   0.184625 0.510319 0.586036 -0.081748
C29   C     C_R   0.767543 0.500098 0.498645 -0.003004
C30   C     C_R   0.232456 0.500100 0.501356 -0.003005
C31   C     C_R   0.811019 0.492275 0.583592 0.227844
C32   C     C_R   0.188980 0.492269 0.416410 0.227842
C33   C     C_R   0.903724 0.509035 0.585784 -0.000932
C34   C     C_R   0.046901 0.511082 0.499944 -0.006127
C35   C     C_R   0.096276 0.509028 0.414216 -0.000933
C36   C     C_R   0.768272 0.513145 0.324511 0.026484
C37   C     C_R   0.757217 0.426673 0.273495 -0.100991
C38   C     C_R   0.726765 0.430653 0.182286 -0.121830
C39   C     C_R   0.707262 0.520791 0.141864 -0.109928
C40   C     C_R   0.715305 0.606867 0.193513 -0.123818
C41   C     C_R   0.745931 0.603228 0.284711 -0.091353
C42   C     C_R   0.231728 0.513179 0.675487 0.026485
C43   C     C_R   0.242770 0.426722 0.726534 -0.101011
C44   C     C_R   0.273227 0.430729 0.817740 -0.121831
C45   C     C_R   0.908829 0.513028 0.414309 -0.013980
C46   C     C_R   0.292749 0.520877 0.858127 -0.109927
C47   C     C_R   0.284717 0.606936 0.806448 -0.123817
C48   C     C_R   0.254086 0.603271 0.715253 -0.091333
C49   C     C_3   0.780021 0.375852 0.696362 0.004696
C50   C     C_3   0.721490 0.299160 0.650113 -0.257437
C51   C     C_3   0.734863 0.198065 0.692308 -0.495657
C52   C     C_3   0.219977 0.375839 0.303650 0.004698
C53   C     C_3   0.278509 0.299150 0.349904 -0.257435
C54   C     C_3   0.265136 0.198053 0.307718 -0.495658
C55   C     C_R   0.902890 0.551185 0.759544 0.069748
C56   C     C_R   0.091171 0.513038 0.585691 -0.013980
C57   C     C_R   0.845754 0.632442 0.762593 -0.034875
C58   C     C_R   0.806571 0.662503 0.847202 -0.105352
C59   C     C_R   0.824863 0.612607 0.929539 -0.104623
C60   C     C_R   0.881671 0.531875 0.927392 -0.117742
C61   C     C_R   0.920823 0.501311 0.842843 -0.118549
C62   C     C_R   0.097108 0.551172 0.240453 0.069749
C63   C     C_R   0.154242 0.632432 0.237401 -0.034877
C64   C     C_R   0.193416 0.662501 0.152789 -0.105360
C65   C     C_R   0.175118 0.612610 0.070452 -0.104626
C66   C     C_R   0.118315 0.531875 0.072604 -0.117737
C67   C     C_R   0.948771 0.523338 0.670445 -0.021888
C68   C     C_R   0.079171 0.501302 0.157155 -0.118548
C69   C     C_R   0.051229 0.523324 0.329554 -0.021888
C70   C     C_R   0.041305 0.522310 0.669369 -0.141242
Cu1   Cu    Cu3+1 0.500000 0.597420 0.500000 0.952639
Cu2   Cu    Cu3+1 0.500000 0.402580 0.500000 0.905721
H1    H     H_    0.074088 0.532150 0.735089 0.132019
H2    H     H_    0.671948 0.089929 0.344749 0.098730
H3    H     H_    0.775206 0.356855 0.303200 0.096919
H4    H     H_    0.719703 0.364091 0.142382 0.104405
H5    H     H_    0.685186 0.523795 0.070688 0.121793
H6    H     H_    0.699388 0.676485 0.162254 0.100921
H7    H     H_    0.755251 0.670502 0.323048 0.099123
H8    H     H_    0.224767 0.356898 0.696856 0.096924
H9    H     H_    0.280279 0.364179 0.857668 0.104412
H10   H     H_    0.314830 0.523901 0.929300 0.121792
H11   H     H_    0.300647 0.676563 0.837681 0.100920
H12   H     H_    0.925911 0.532126 0.264909 0.132019
H13   H     H_    0.244775 0.670534 0.676893 0.099118
H14   H     H_    0.765390 0.374942 0.772718 0.159249
H15   H     H_    0.851254 0.355126 0.687185 0.120081
H16   H     H_    0.650622 0.320006 0.659553 0.211728
H17   H     H_    0.738409 0.295402 0.574328 0.168134
H18   H     H_    0.805142 0.174750 0.682883 0.143595
H19   H     H_    0.691782 0.144470 0.656824 0.159229
H20   H     H_    0.716762 0.198728 0.767909 0.145359
H21   H     H_    0.234607 0.374926 0.227294 0.159247
H22   H     H_    0.148744 0.355114 0.312831 0.120080
H23   H     H_    0.392788 0.752347 0.598001 0.115769
H24   H     H_    0.349377 0.319995 0.340462 0.211731
H25   H     H_    0.261592 0.295394 0.425690 0.168134
H26   H     H_    0.194856 0.174738 0.317146 0.143595
H27   H     H_    0.308217 0.144459 0.343206 0.159231
H28   H     H_    0.283236 0.198713 0.232117 0.145359
H29   H     H_    0.832351 0.673047 0.699610 0.112366
H30   H     H_    0.762773 0.725200 0.849096 0.103132
H31   H     H_    0.795550 0.637140 0.995046 0.106787
H32   H     H_    0.895894 0.493464 0.991352 0.108253
H33   H     H_    0.965204 0.439037 0.842248 0.088357
H34   H     H_    0.607708 0.247723 0.402610 0.118571
H35   H     H_    0.167647 0.673034 0.300383 0.112367
H36   H     H_    0.237211 0.725200 0.150893 0.103132
H37   H     H_    0.204423 0.637151 0.004943 0.106794
H38   H     H_    0.104088 0.493468 0.008643 0.108251
H39   H     H_    0.034793 0.439027 0.157752 0.088359
H40   H     H_    0.607212 0.752351 0.401998 0.115772
H41   H     H_    0.392293 0.247719 0.597390 0.118572
H42   H     H_    0.671748 0.910147 0.344489 0.098754
H43   H     H_    0.328052 0.089924 0.655251 0.098732
H44   H     H_    0.328252 0.910142 0.655511 0.098751
N1    N     N_R   0.500000 0.743810 0.500000 -0.233454
N2    N     N_R   0.500000 0.256190 0.500000 -0.241977
O1    O     O_R   0.370260 0.582280 0.500020 -0.495181
O2    O     O_3   0.239307 0.471284 0.336339 -0.570161
O3    O     O_R   0.629740 0.417720 0.499980 -0.512993
O4    O     O_R   0.629740 0.582280 0.499980 -0.495177
O5    O     O_R   0.370260 0.417720 0.500020 -0.512989
O6    O     O_R   0.500000 0.582290 0.376050 -0.478619
O7    O     O_R   0.500000 0.417710 0.623950 -0.494974
O8    O     O_R   0.500000 0.582290 0.623950 -0.478614
O9    O     O_R   0.500000 0.417710 0.376050 -0.494970
O10   O     O_3   0.760692 0.471296 0.663665 -0.570161

loop_
_geom_bond_atom_site_label_1
_geom_bond_atom_site_label_2
_ccdc_geom_bond_type
C66   C68   A    
C34   C56   A    
C8    C13   A    
C23   C45   A    
Cu2   O3    S    
C27   C29   A    
C49   H15   S    
Cu1   O4    S    
C2    H12   S    
C54   H28   S    
C28   C56   A    
C38   H4    S    
C53   C54   S    
C7    C11   A    
C37   C38   A    
C39   H5    S    
C36   C37   A    
C19   C21   S    
C9    C16   A    
C24   C26   S    
C51   H18   S    
C38   C39   A    
C51   H20   S    
C10   C17   A    
C15   C16   A    
C34   C35   A    
C1    O1    A    
C3    N1    A    
C51   H19   S    
C46   H10   S    
C7    C14   A    
C12   O3    A    
C23   C33   A    
C22   C25   S    
C31   C33   A    
Cu1   O8    S    
C52   H22   S    
C58   H30   S    
C47   H11   S    
C2    C69   A    
C61   H33   S    
C18   C20   S    
C50   H16   S    
C27   C45   A    
C37   H3    S    
C59   C60   A    
C10   C13   A    
C53   H24   S    
C14   C17   A    
C4    N2    A    
C36   C41   A    
C31   O10   S    
C32   O2    S    
C16   H44   S    
C44   C46   A    
C64   H36   S    
C2    C45   A    
Cu1   N1    S    
Cu2   O9    S    
C32   C35   A    
Cu1   O6    S    
C44   H9    S    
C39   C40   A    
C5    C7    A    
C6    C8    A    
C53   H25   S    
C25   C26   T    
C14   H42   S    
C4    H34   S    
C19   O7    A    
C62   C69   S    
C5    N1    A    
C60   C61   A    
C68   H39   S    
C43   C44   A    
C1    O5    A    
C6    H41   S    
C62   C63   A    
C3    C9    A    
C18   O9    A    
C50   H17   S    
C47   C48   A    
C23   C34   A    
C70   H1    S    
C50   C51   S    
C52   H21   S    
C42   C48   A    
C66   H38   S    
C9    C11   A    
C65   H37   S    
C52   O2    S    
C40   C41   A    
C20   C22   T    
C49   C50   S    
C8    C15   A    
C56   C70   A    
C55   C57   A    
Cu2   O5    S    
C17   H2    S    
C40   H6    S    
C54   H27   S    
C42   C43   A    
C63   H35   S    
C52   C53   S    
C33   C67   A    
C49   O10   S    
C46   C47   A    
C49   H14   S    
C12   C29   S    
C41   H7    S    
C55   C67   S    
C5    H40   S    
Cu1   O1    S    
C27   C36   S    
C57   H29   S    
C19   O8    A    
C62   C68   A    
Cu2   O7    S    
C67   C70   A    
C59   H31   S    
C64   C65   A    
C28   C30   A    
C58   C59   A    
Cu1   Cu2   S    
C29   C31   A    
C30   C32   A    
C11   C13   A    
C57   C58   A    
C55   C61   A    
C28   C42   S    
C1    C30   S    
C43   H8    S    
C15   H43   S    
C63   C64   A    
C12   O4    A    
C35   C69   A    
C65   C66   A    
C21   C24   T    
Cu2   N2    S    
C48   H13   S    
C54   H26   S    
C3    H23   S    
C60   H32   S    
C4    C10   A    
C6    N2    A    
C18   O6    A    
