data_mof_unit_5423.cif
_audit_creation_date              2012-12-10T18:20:37-0500
_audit_creation_method            fapswitch 2.2
_symmetry_space_group_name_H-M    P1
_symmetry_Int_Tables_number       1
_space_group_crystal_system       triclinic
_cell_length_a                    15.880048
_cell_length_b                    10.618631
_cell_length_c                    9.438535
_cell_angle_alpha                 89.847433
_cell_angle_beta                  89.866448
_cell_angle_gamma                 90.080626
_cell_volume                      1591.555462

loop_
_atom_site_label
_atom_site_type_symbol
_atom_type_description
_atom_site_fract_x
_atom_site_fract_y
_atom_site_fract_z
_atom_type_partial_charge
C1    C     C_R   0.500012 0.259456 0.500257 0.790935
C2    C     C_R   0.499988 0.740544 0.499743 0.790953
C3    C     C_3   0.569379 0.957880 0.566039 -0.148249
C4    C     C_3   0.430621 0.042120 0.433959 -0.148352
C5    C     C_3   0.499985 0.877552 0.499026 -0.012728
C6    C     C_3   0.500015 0.122448 0.500973 -0.012782
C7    C     C_3   0.430995 0.957627 0.567696 -0.166976
C8    C     C_3   0.569005 0.042373 0.432302 -0.167112
C9    C     C_3   0.469245 0.604503 0.050659 -0.013687
C10   C     C_3   0.530756 0.395498 0.949341 -0.013628
C11   C     C_3   0.424144 0.512516 0.949521 -0.128322
C12   C     C_3   0.575856 0.487484 0.050479 -0.128553
C13   C     C_3   0.544591 0.590777 0.950348 0.115568
C14   C     C_3   0.455409 0.409223 0.049652 0.115581
C15   C     C_R   0.340067 0.499819 0.500127 0.812983
C16   C     C_R   0.659932 0.500181 0.499873 0.812991
C17   C     C_3   0.972358 0.420698 0.599725 0.004693
C18   C     C_3   0.027641 0.579302 0.400275 0.004689
C19   C     C_3   0.028584 0.382250 0.472517 -0.289900
C20   C     C_3   0.971416 0.617750 0.527482 -0.289907
C21   C     C_1   0.250528 0.499683 0.500378 -0.150845
C22   C     C_1   0.749472 0.500317 0.499622 -0.150862
C23   C     C_3   0.027859 0.537119 0.625946 -0.041942
C24   C     C_3   0.972141 0.462881 0.374055 -0.041942
C25   C     C_3   0.083477 0.500261 0.499421 0.112466
C26   C     C_3   0.916523 0.499739 0.500579 0.112467
C27   C     C_1   0.175094 0.499767 0.500155 0.021683
C28   C     C_1   0.824906 0.500233 0.499845 0.021671
C29   C     C_3   0.500391 0.040230 0.634858 -0.087863
C30   C     C_3   0.499609 0.959770 0.365140 -0.088003
Cu1   Cu    Cu3+1 0.500020 0.499990 0.643150 0.955625
Cu2   Cu    Cu3+1 0.499980 0.500010 0.356850 0.955522
H1    H     H_    0.052246 0.286051 0.449698 0.154330
H2    H     H_    0.947754 0.713949 0.550302 0.154326
H3    H     H_    0.626085 0.920172 0.619993 0.157250
H4    H     H_    0.373916 0.079829 0.380002 0.157214
H5    H     H_    0.500722 0.075693 0.745426 0.177694
H6    H     H_    0.499278 0.924307 0.254573 0.177647
H7    H     H_    0.374590 0.919745 0.623019 0.152050
H8    H     H_    0.625410 0.080255 0.376980 0.152041
H9    H     H_    0.360279 0.522227 0.903245 0.149417
H10   H     H_    0.639721 0.477774 0.096755 0.149426
H11   H     H_    0.443770 0.692362 0.097611 0.151853
H12   H     H_    0.556231 0.307638 0.902388 0.151850
N1    N     N_3   0.500060 0.499970 0.858290 -0.198277
N2    N     N_3   0.499940 0.500030 0.141710 -0.198315
O1    O     O_R   0.500040 0.316850 0.620870 -0.587450
O2    O     O_R   0.499960 0.683150 0.379130 -0.587484
O3    O     O_R   0.500000 0.316860 0.379090 -0.569979
O4    O     O_R   0.500000 0.683140 0.620910 -0.569836
O5    O     O_R   0.379090 0.499980 0.620870 -0.577746
O6    O     O_R   0.620910 0.500020 0.379130 -0.577755
O7    O     O_R   0.379060 0.499990 0.379090 -0.586063
O8    O     O_R   0.620940 0.500010 0.620910 -0.586034
C31   C     C_2   0.943935 0.331197 0.713185 0.381312
H13   H     H_    0.990395 0.281389 0.775912 0.073254
O9    O     O_2   0.869128 0.313980 0.735807 -0.526178
C32   C     C_2   0.056065 0.668803 0.286815 0.381323
H14   H     H_    0.009605 0.718610 0.224087 0.073242
O10   O     O_2   0.130872 0.686021 0.264193 -0.526165
C33   C     C_1   0.941154 0.422138 0.235070 0.233177
N3    N     N_1   0.916751 0.390147 0.125479 -0.255947
C34   C     C_1   0.058845 0.577862 0.764930 0.233184
N4    N     N_1   0.083248 0.609853 0.874521 -0.255934
C35   C     C_2   0.597464 0.694762 0.890373 0.388850
H15   H     H_    0.652289 0.672778 0.826503 0.074188
O11   O     O_2   0.579378 0.804449 0.913404 -0.564853
C36   C     C_2   0.402531 0.305224 0.109616 0.388747
H16   H     H_    0.347787 0.327199 0.173711 0.074308
O12   O     O_2   0.420509 0.195537 0.086283 -0.564842

loop_
_geom_bond_atom_site_label_1
_geom_bond_atom_site_label_2
_ccdc_geom_bond_type
C31   H13   S    
C4    H4    S    
C24   C33   S    
C7    C29   S    
C14   N2    S    
C13   C35   S    
C17   C23   S    
C18   C24   S    
C17   C26   S    
C15   O7    A    
C7    H7    S    
C24   C26   S    
C11   C14   S    
C32   O10   D    
C30   H6    S    
C3    C29   S    
C9    C13   S    
Cu2   O6    S    
C12   H10   S    
C2    O4    A    
C18   C32   S    
C36   H16   S    
C35   O11   D    
C15   O5    A    
C17   C31   S    
C20   H2    S    
C23   C34   S    
C21   C27   T    
C9    N2    S    
C22   C28   T    
Cu2   O2    S    
C18   C25   S    
C4    C7    S    
C9    H11   S    
C10   H12   S    
C1    C6    S    
C12   N2    S    
C3    C8    S    
C19   H1    S    
C5    C7    S    
C1    O1    A    
C6    C8    S    
C2    O2    A    
C32   H14   S    
Cu1   Cu2   S    
C20   C23   S    
C3    H3    S    
C10   N1    S    
C9    C11   S    
C10   C12   S    
C4    C6    S    
C31   O9    D    
C10   C14   S    
C11   N1    S    
C2    C5    S    
Cu1   O4    S    
Cu2   O7    S    
C5    C30   S    
C16   C22   S    
Cu2   N2    S    
C16   O6    A    
Cu1   O5    S    
C3    C5    S    
C25   C27   S    
C26   C28   S    
C8    C30   S    
C19   C24   S    
C13   N1    S    
C20   C26   S    
C17   C19   S    
C11   H9    S    
C18   C20   S    
C23   C25   S    
Cu1   O8    S    
C33   N3    T    
C19   C25   S    
C16   O8    A    
Cu2   O3    S    
C34   N4    T    
C15   C21   S    
C6    C29   S    
C12   C13   S    
C36   O12   D    
C35   H15   S    
Cu1   N1    S    
C29   H5    S    
C14   C36   S    
Cu1   O1    S    
C8    H8    S    
C1    O3    A    
C4    C30   S    
