data_mof_unit_29126.cif
_audit_creation_date              2012-12-11T15:39:02-0500
_audit_creation_method            fapswitch 2.2
_symmetry_space_group_name_H-M    P1
_symmetry_Int_Tables_number       1
_space_group_crystal_system       triclinic
_cell_length_a                    14.309548
_cell_length_b                    14.831124
_cell_length_c                    33.248755
_cell_angle_alpha                 97.915886
_cell_angle_beta                  90.49552
_cell_angle_gamma                 118.769072
_cell_volume                      6103.49737359

loop_
_atom_site_label
_atom_site_type_symbol
_atom_type_description
_atom_site_fract_x
_atom_site_fract_y
_atom_site_fract_z
_atom_type_partial_charge
C1    C     C_R   0.616563 0.910138 0.436776 0.562675
C2    C     C_R   0.733970 0.402929 0.184127 0.054585
C3    C     C_R   0.726121 0.898187 0.653133 -0.108338
C4    C     C_R   0.649789 0.798854 0.660395 0.035328
C5    C     C_R   0.635983 0.864344 0.586233 0.023152
C6    C     C_R   0.052706 0.781525 0.063646 0.543678
C7    C     C_R   0.743975 0.486449 0.066057 0.544456
C8    C     C_R   0.742207 0.789760 0.066065 0.578175
C9    C     C_R   0.021250 0.731803 0.947370 0.541527
C10   C     C_R   0.711729 0.436332 0.949420 0.562996
C11   C     C_R   0.710109 0.739544 0.950339 0.586053
C12   C     C_R   0.825514 0.428130 0.163104 -0.049935
C13   C     C_R   0.826758 0.449079 0.123428 -0.107344
C14   C     C_R   0.749970 0.314479 0.240862 0.262325
C15   C     C_R   0.743211 0.303748 0.281938 -0.008869
C16   C     C_R   0.723241 0.371366 0.309818 0.025532
C17   C     C_R   0.711720 0.451213 0.296470 -0.104919
C18   C     C_R   0.718146 0.462210 0.255537 -0.137066
C19   C     C_R   0.735794 0.393356 0.227414 0.031200
C20   C     C_R   0.599984 0.328020 0.364327 -0.138845
C21   C     C_R   0.593786 0.205041 0.456514 0.547917
C22   C     C_R   0.567456 0.287444 0.400178 -0.120673
C23   C     C_R   0.739446 0.297003 0.412556 -0.090417
C24   C     C_R   0.772506 0.337907 0.376694 0.237738
C25   C     C_R   0.700755 0.349523 0.351490 0.026516
C26   C     C_R   0.635316 0.267563 0.423690 -0.024671
C27   C     C_R   0.245966 0.878268 0.393119 -0.067687
C28   C     C_R   0.236751 0.960375 0.380282 -0.110574
C29   C     C_R   0.214898 0.958699 0.339079 0.205883
C30   C     C_R   0.201057 0.873868 0.310121 0.036886
C31   C     C_R   0.202567 0.788102 0.323035 0.213296
C32   C     C_R   0.295763 0.892763 0.434339 0.550089
C33   C     C_R   0.224727 0.790545 0.364322 -0.076219
C34   C     C_R   0.203721 0.811023 0.161761 0.215024
C35   C     C_R   0.173334 0.789396 0.120040 -0.088946
C36   C     C_R   0.093209 0.901368 0.129567 -0.108593
C37   C     C_R   0.122401 0.922707 0.171458 0.207228
C38   C     C_R   0.173834 0.873948 0.187894 0.045650
C39   C     C_1   0.185047 0.878360 0.231279 0.150878
C40   C     C_1   0.191859 0.877313 0.267288 0.148167
C41   C     C_R   0.113307 0.830182 0.103916 -0.060644
C42   C     C_R   0.636857 0.879206 0.394767 0.018752
C43   C     C_R   0.614394 0.905407 0.551502 0.543856
C44   C     C_R   0.557860 0.791805 0.367704 0.225885
C45   C     C_R   0.570349 0.782654 0.325903 -0.061080
C46   C     C_R   0.660621 0.858107 0.310764 -0.011140
C47   C     C_R   0.742715 0.939161 0.337444 -0.108358
C48   C     C_R   0.731342 0.949354 0.379087 -0.151061
C49   C     C_R   0.782895 0.915419 0.175135 -0.075036
C50   C     C_R   0.798333 0.901131 0.133944 -0.134018
C51   C     C_R   0.611814 0.766853 0.119668 0.233779
C52   C     C_R   0.597236 0.781803 0.161086 -0.051737
C53   C     C_R   0.683645 0.852835 0.188883 -0.004457
C54   C     C_R   0.589519 0.198847 0.571089 0.543561
C55   C     C_1   0.673432 0.855006 0.231726 0.029194
C56   C     C_1   0.667037 0.855665 0.267736 0.021390
C57   C     C_R   0.714832 0.823054 0.106070 0.025612
C58   C     C_R   0.621373 0.246225 0.614464 0.019499
C59   C     C_R   0.554928 0.275142 0.637306 -0.126505
C60   C     C_R   0.569360 0.295032 0.679809 -0.101161
C61   C     C_R   0.650400 0.286632 0.699905 0.041892
C62   C     C_R   0.721417 0.264944 0.677476 -0.108775
C63   C     C_R   0.707343 0.245225 0.634949 -0.123420
C64   C     C_R   0.748564 0.318994 0.846202 -0.055219
C65   C     C_R   0.289339 0.887133 0.548539 0.544613
C66   C     C_R   0.761155 0.348640 0.888575 0.240345
C67   C     C_R   0.592998 0.351876 0.885220 -0.150150
C68   C     C_R   0.581082 0.321646 0.843109 -0.086737
C69   C     C_R   0.661266 0.310167 0.823419 0.005929
C70   C     C_1   0.658585 0.299374 0.779844 0.018527
C71   C     C_1   0.656036 0.293743 0.743390 0.010654
C72   C     C_R   0.686064 0.372110 0.908318 0.026278
C73   C     C_R   0.067675 0.754173 0.908410 0.020690
C74   C     C_R   0.086842 0.846659 0.894795 -0.110352
C75   C     C_R   0.106642 0.858443 0.854498 -0.103851
C76   C     C_R   0.736519 0.445581 0.104490 0.016269
C77   C     C_R   0.108118 0.778237 0.827296 0.030980
C78   C     C_R   0.097203 0.689169 0.841547 -0.108910
C79   C     C_R   0.077113 0.677163 0.881934 -0.105350
C80   C     C_R   0.185041 0.760050 0.761948 -0.067914
C81   C     C_R   0.193636 0.768677 0.720812 0.254515
C82   C     C_R   0.130607 0.801671 0.700973 0.035485
C83   C     C_R   0.060154 0.825945 0.722692 -0.154855
C84   C     C_R   0.052304 0.817566 0.763834 -0.120786
C85   C     C_R   0.115328 0.785328 0.783742 -0.009327
C86   C     C_R   0.190997 0.921590 0.650408 -0.107765
C87   C     C_R   0.643223 0.415027 0.125044 -0.106694
C88   C     C_R   0.230119 0.943017 0.612682 -0.121183
C89   C     C_R   0.167656 0.758823 0.590286 -0.103192
C90   C     C_R   0.127946 0.737490 0.627879 -0.066845
C91   C     C_R   0.145089 0.819528 0.658744 0.056241
C92   C     C_R   0.223961 0.862346 0.583248 0.025059
C93   C     C_R   0.663476 0.739007 0.910687 -0.048930
C94   C     C_R   0.619051 0.646265 0.882464 -0.142075
C95   C     C_R   0.603241 0.647531 0.841207 0.198730
C96   C     C_R   0.630541 0.742256 0.827809 -0.010280
C97   C     C_R   0.664902 0.833970 0.856377 0.227420
C98   C     C_R   0.642195 0.394259 0.164637 -0.103466
C99   C     C_R   0.681382 0.832438 0.897922 0.252459
C100  C     C_R   0.539613 0.712804 0.759354 -0.031452
C101  C     C_R   0.544747 0.724975 0.718460 -0.083925
C102  C     C_R   0.644246 0.772657 0.701909 0.023314
C103  C     C_R   0.738194 0.803874 0.726585 -0.102826
C104  C     C_R   0.732928 0.791517 0.767441 -0.053191
C105  C     C_R   0.633860 0.747872 0.784086 0.106036
C106  C     C_R   0.571708 0.729746 0.629039 -0.100490
C107  C     C_R   0.564724 0.762253 0.592296 -0.106004
C108  C     C_R   0.719460 0.930586 0.616294 -0.121772
Cr1   Cr    Cr6+3 0.424820 0.846020 0.489780 1.099223
Cr2   Cr    Cr6+3 0.657880 0.078580 0.505700 1.027862
Cr3   Cr    Cr6+3 0.417280 0.075360 0.504550 1.030106
Cr4   Cr    Cr6+3 0.903360 0.812540 0.006510 1.077279
Cr5   Cr    Cr6+3 0.914630 0.587050 0.006280 1.108932
Cr6   Cr    Cr6+3 0.673560 0.582680 0.008540 1.100298
H1    H     H_    0.572478 0.411544 0.111250 0.162948
H2    H     H_    0.899971 0.472921 0.108414 0.155353
H3    H     H_    0.849889 0.971403 0.196538 0.199954
H4    H     H_    0.794302 0.016358 0.398667 0.163182
H5    H     H_    0.519597 0.734987 0.171781 0.190342
H6    H     H_    0.507826 0.718434 0.305055 0.179467
H7    H     H_    0.809371 0.307313 0.830885 0.158367
H8    H     H_    0.784742 0.258830 0.692840 0.119807
H9    H     H_    0.759681 0.222833 0.618319 0.130485
H10   H     H_    0.488004 0.276500 0.622503 0.132572
H11   H     H_    0.532866 0.367267 0.899112 0.156842
H12   H     H_    0.081070 0.907736 0.914704 0.147781
H13   H     H_    0.091111 0.658134 0.633949 0.140349
H14   H     H_    0.748940 0.239812 0.291828 0.176060
H15   H     H_    0.235092 0.736563 0.777209 0.147849
H16   H     H_    0.117415 0.928802 0.844223 0.126845
H17   H     H_    0.012146 0.852286 0.707840 0.111029
H18   H     H_    0.272742 0.023419 0.607882 0.131347
H19   H     H_    0.605158 0.574013 0.891892 0.167701
H20   H     H_    0.786696 0.953450 0.676878 0.116973
H21   H     H_    0.462727 0.678818 0.771991 0.150516
H22   H     H_    0.815681 0.839659 0.714495 0.097471
H23   H     H_    0.806159 0.817989 0.786390 0.117293
H24   H     H_    0.513232 0.652050 0.633589 0.119383
H25   H     H_    0.500300 0.709058 0.569424 0.137463
H26   H     H_    0.570836 0.374463 0.180593 0.140908
H27   H     H_    0.543781 0.336474 0.345271 0.158002
O1    O     O_R   0.318160 0.824460 0.443680 -0.472881
O2    O     O_R   0.645130 0.163230 0.552140 -0.501987
O3    O     O_R   0.498360 0.178430 0.555780 -0.516111
O4    O     O_R   0.328690 0.978040 0.538950 -0.505266
O5    O     O_3   0.499990 0.999990 0.500010 -0.253976
O6    O     O_R   0.828710 0.851830 0.052170 -0.509113
O7    O     O_R   0.005980 0.823990 0.047210 -0.501010
O8    O     O_R   0.031900 0.688850 0.050170 -0.502929
O9    O     O_R   0.830940 0.518420 0.048680 -0.495669
O10   O     O_R   0.668160 0.499860 0.053480 -0.496737
O11   O     O_R   0.689170 0.693840 0.050110 -0.445737
O12   O     O_R   0.525040 0.857250 0.449830 -0.436508
O13   O     O_R   0.803860 0.812940 0.962540 -0.456464
O14   O     O_R   0.982950 0.787950 0.964120 -0.506758
O15   O     O_R   0.007050 0.649970 0.960540 -0.482428
O16   O     O_R   0.807910 0.482370 0.965590 -0.437841
O17   O     O_R   0.643310 0.460980 0.963840 -0.524806
O18   O     O_R   0.666140 0.657800 0.967020 -0.497939
O19   O     O_3   0.830520 0.660760 0.007110 -0.283558
O20   O     O_R   0.684760 0.998800 0.456360 -0.525837
O21   O     O_R   0.647540 0.166310 0.470260 -0.501845
O22   O     O_R   0.500960 0.181750 0.467450 -0.509607
O23   O     O_R   0.331100 0.981120 0.457080 -0.504630
O24   O     O_R   0.315560 0.821140 0.532010 -0.506550
O25   O     O_R   0.522630 0.854180 0.531710 -0.495117
O26   O     O_R   0.682160 0.995480 0.544690 -0.519960
H28   H     H_    0.486891 0.265755 0.408080 0.167583
H29   H     H_    0.897199 0.435825 0.178000 0.182558
H30   H     H_    0.793824 0.284274 0.430795 0.161435
H31   H     H_    0.190551 0.735140 0.100664 0.190913
Cl1   Cl    Cl    0.271707 0.751165 0.180716 -0.506524
Cl2   Cl    Cl    0.183248 0.678859 0.287959 -0.466954
H32   H     H_    0.231099 0.726237 0.373454 0.220593
H33   H     H_    0.252513 0.028832 0.401883 0.172167
Cl3   Cl    Cl    0.085462 0.003964 0.202938 -0.545610
H34   H     H_    0.047176 0.933802 0.117745 0.163025
Cl4   Cl    Cl    0.211819 0.067076 0.324469 -0.521081
H35   H     H_    0.877938 0.946003 0.124534 0.163743
H36   H     H_    0.813671 0.997153 0.325909 0.170304
Cl5   Cl    Cl    0.439971 0.693563 0.383569 -0.537343
Cl6   Cl    Cl    0.499522 0.675277 0.086381 -0.518343
Cl7   Cl    Cl    0.874439 0.358968 0.914735 -0.517320
Cl8   Cl    Cl    0.903265 0.371609 0.363894 -0.536875
H37   H     H_    0.512250 0.313278 0.825674 0.175264
H38   H     H_    0.514433 0.312480 0.697006 0.139291
H39   H     H_    0.062275 0.604952 0.891624 0.173632
Cl9   Cl    Cl    0.289658 0.744535 0.696051 -0.654462
H40   H     H_    0.996983 0.836167 0.780134 0.118907
H41   H     H_    0.204092 0.985483 0.674087 0.118056
H42   H     H_    0.098267 0.626451 0.820939 0.122918
H43   H     H_    0.160423 0.695171 0.567745 0.137548
Cl10  Cl    Cl    0.767892 0.223053 0.206808 -0.544183
Cl11  Cl    Cl    0.726836 0.948132 0.933594 -0.431062
H44   H     H_    0.471236 0.701177 0.700262 0.173396
Cl12  Cl    Cl    0.559154 0.530865 0.806598 -0.647169
Cl13  Cl    Cl    0.691693 0.951872 0.839877 -0.500688
H45   H     H_    0.775410 0.009741 0.612488 0.129143
H46   H     H_    0.695099 0.503207 0.317566 0.137669
H47   H     H_    0.707297 0.523358 0.245554 0.130850

loop_
_geom_bond_atom_site_label_1
_geom_bond_atom_site_label_2
_ccdc_geom_bond_type
C65   C92   S    
C54   O3    A    
C21   C26   S    
C95   Cl12  S    
C21   O22   A    
C24   Cl8   S    
C35   H31   S    
C73   C74   A    
C95   C96   A    
Cr6   O11   S    
C55   C56   T    
C51   Cl6   S    
C2    C12   A    
C81   C82   A    
Cr2   O21   S    
C11   O18   A    
C74   H12   S    
C77   C78   A    
C27   C33   A    
C2    C98   A    
C99   Cl11  S    
C100  C105  A    
C80   C85   A    
C79   H39   S    
C83   C84   A    
C28   C29   A    
C8    O11   A    
C37   C38   A    
C34   C35   A    
C86   C91   A    
Cr3   O4    S    
C54   C58   S    
C38   C39   S    
C86   C88   A    
C106  H24   S    
C106  C107  A    
C15   C16   A    
C65   O24   A    
C59   H10   S    
C94   H19   S    
C18   C19   A    
C104  H23   S    
C67   C72   A    
C23   C26   A    
Cr6   O17   S    
C22   C26   A    
C11   O13   A    
C6    O8    A    
C66   C72   A    
C88   C92   A    
C9    O15   A    
C16   C17   A    
Cr4   O14   S    
C4    C102  S    
C90   H13   S    
C31   C33   A    
Cr1   O1    S    
C51   C57   A    
C29   C30   A    
Cr1   O12   S    
C93   C99   A    
C81   Cl9   S    
C32   O1    A    
C100  H21   S    
C87   C98   A    
C22   H28   S    
C11   C93   S    
C54   O2    A    
C5    C43   S    
C1    O20   A    
C59   C60   A    
Cr4   O13   S    
C108  H45   S    
C36   C41   A    
C61   C62   A    
C42   C44   A    
Cr6   O10   S    
C35   C41   A    
C20   H27   S    
C104  C105  A    
C97   C99   A    
Cr2   O20   S    
C64   H7    S    
C53   C55   S    
C16   C25   S    
C49   H3    S    
C86   H41   S    
C74   C75   A    
Cr3   O23   S    
C12   H29   S    
C102  C103  A    
C13   H2    S    
C101  C102  A    
Cr5   O8    S    
Cr3   O22   S    
C84   C85   A    
Cr3   O5    S    
C39   C40   T    
C78   C79   A    
C68   C69   A    
C48   H4    S    
C58   C59   A    
C45   C46   A    
C4    C106  A    
C6    C41   S    
C82   C91   S    
C67   C68   A    
C98   H26   S    
C60   C61   A    
C64   C66   A    
C103  H22   S    
C83   H17   S    
C47   H36   S    
C97   Cl13  S    
C8    C57   S    
C7    O9    A    
C6    O7    A    
Cr2   O26   S    
C47   C48   A    
C10   O16   A    
C13   C76   A    
C23   C24   A    
C96   C97   A    
C62   C63   A    
C17   C18   A    
C73   C79   A    
C30   C40   S    
C84   H40   S    
C93   C94   A    
C42   C48   A    
C64   C69   A    
C24   C25   A    
C89   C92   A    
C1    O12   A    
C33   H32   S    
C75   C77   A    
C76   C87   A    
Cr6   O19   S    
C70   C71   T    
Cr1   O24   S    
Cr3   O3    S    
C7    O10   A    
C45   H6    S    
C14   Cl10  S    
C20   C22   A    
C68   H37   S    
C49   C50   A    
C94   C95   A    
C29   Cl4   S    
C18   H47   S    
C8    O6    A    
C88   H18   S    
Cr5   O15   S    
C65   O4    A    
C3    C4    A    
C62   H8    S    
C34   Cl1   S    
C44   C45   A    
C96   C105  S    
C5    C107  A    
C43   O25   A    
C58   C63   A    
C10   O17   A    
C46   C47   A    
C36   C37   A    
C60   H38   S    
C21   O21   A    
Cr4   O19   S    
C2    C19   S    
C34   C38   A    
C50   C57   A    
C87   H1    S    
Cr5   O9    S    
C9    C73   S    
C36   H34   S    
C80   C81   A    
C63   H9    S    
C75   H16   S    
C28   H33   S    
C7    C76   S    
C43   O26   A    
C3    C108  A    
Cr4   O6    S    
C15   H14   S    
C3    H20   S    
C66   Cl7   S    
C67   H11   S    
C50   H35   S    
C78   H42   S    
C51   C52   A    
C37   Cl3   S    
C61   C71   S    
C90   C91   A    
C30   C31   A    
C23   H30   S    
C49   C53   A    
C32   O23   A    
C14   C19   A    
C100  C101  A    
C89   H43   S    
C17   H46   S    
Cr5   O19   S    
C107  H25   S    
Cr2   O2    S    
C80   H15   S    
C69   C70   S    
Cr6   O18   S    
Cr1   O5    S    
Cr1   O25   S    
C27   C32   S    
C77   C85   S    
C52   H5    S    
Cr4   O7    S    
C1    C42   S    
C12   C13   A    
C9    O14   A    
C31   Cl2   S    
C82   C83   A    
C20   C25   A    
C46   C56   S    
C103  C104  A    
C14   C15   A    
Cr5   O16   S    
C89   C90   A    
Cr2   O5    S    
C44   Cl5   S    
C101  H44   S    
C52   C53   A    
C27   C28   A    
C5    C108  A    
C10   C72   S    
