data_mof_unit_39231.cif
_audit_creation_date              2012-12-10T17:05:40-0500
_audit_creation_method            fapswitch 2.2
_symmetry_space_group_name_H-M    P1
_symmetry_Int_Tables_number       1
_space_group_crystal_system       triclinic
_cell_length_a                    15.901559
_cell_length_b                    10.897624
_cell_length_c                    9.87086
_cell_angle_alpha                 110.817829
_cell_angle_beta                  98.108878
_cell_angle_gamma                 90.87753
_cell_volume                      1578.89377874

loop_
_atom_site_label
_atom_site_type_symbol
_atom_type_description
_atom_site_fract_x
_atom_site_fract_y
_atom_site_fract_z
_atom_type_partial_charge
C1    C     C_R   0.491390 0.253191 0.441570 0.787976
C2    C     C_3   0.957481 0.434132 0.608049 0.669509
C3    C     C_3   0.916319 0.498344 0.494854 0.017332
C4    C     C_3   0.956536 0.646575 0.547957 0.365663
C5    C     C_3   0.055589 0.640762 0.547668 0.203938
C6    C     C_1   0.823800 0.498886 0.495209 0.122021
C7    C     C_1   0.175890 0.497620 0.500950 0.074537
C8    C     C_1   0.251416 0.499240 0.502962 -0.155113
C9    C     C_2   0.481595 0.110998 0.413113 0.172744
C10   C     C_2   0.447689 0.069698 0.508951 0.275684
C11   C     C_2   0.498154 0.888663 0.587523 -0.052700
C12   C     C_R   0.340581 0.500004 0.501215 0.838518
C13   C     C_2   0.447151 0.928602 0.490599 0.380701
C14   C     C_2   0.495761 0.527922 0.086415 -0.068389
C15   C     C_2   0.480537 0.514032 0.925653 0.562522
C16   C     C_R   0.503022 0.746872 0.558560 0.878023
C17   C     C_R   0.659425 0.499919 0.498745 0.796305
C18   C     C_3   0.054545 0.417939 0.592249 -0.192446
C19   C     C_3   0.036322 0.418652 0.331485 0.375844
C20   C     C_3   0.935056 0.415992 0.332292 0.402945
C21   C     C_1   0.748535 0.499316 0.496175 -0.166736
C22   C     C_3   0.082948 0.495033 0.495346 -0.043822
Cu1   Cu    Cu3+1 0.514650 0.521810 0.644910 1.028865
Cu2   Cu    Cu3+1 0.485350 0.478190 0.355090 0.978216
H1    H     H_    0.531529 0.615782 0.164952 0.152706
H2    H     H_    0.058642 0.311704 0.528523 0.230383
H3    H     H_    0.073057 0.683417 0.468096 0.149240
N1    N     N_2   0.463320 0.445430 0.137380 -0.140523
N2    N     N_2   0.536720 0.554500 0.862620 -0.144017
O1    O     O_R   0.507820 0.332330 0.577400 -0.504316
O2    O     O_R   0.483070 0.295500 0.332660 -0.604020
O3    O     O_R   0.391820 0.518430 0.622420 -0.499300
O4    O     O_R   0.367070 0.481600 0.377680 -0.566782
O5    O     O_R   0.516930 0.704500 0.667340 -0.582707
O6    O     O_R   0.492180 0.667670 0.422600 -0.537226
O7    O     O_R   0.632930 0.518400 0.622320 -0.573868
O8    O     O_R   0.608180 0.481570 0.377580 -0.575796
O9    O     O_3   0.916231 0.309267 0.574217 -0.747085
H4    H     H_    0.940968 0.274182 0.650087 0.345955
C23   C     C_3   0.115711 0.433831 0.735345 -0.849208
H5    H     H_    0.134258 0.537208 0.806103 0.247426
H6    H     H_    0.086096 0.384440 0.799654 0.242950
H7    H     H_    0.175357 0.385391 0.708537 0.259175
O10   O     O_3   0.943625 0.509600 0.752056 -0.689673
H8    H     H_    0.993180 0.571520 0.806735 0.348044
C24   C     C_3   0.918854 0.726060 0.452607 -0.763844
H9    H     H_    0.938307 0.832366 0.511609 0.245060
H10   H     H_    0.941648 0.699580 0.346033 0.237884
H11   H     H_    0.848195 0.715621 0.432844 0.231541
O11   O     O_3   0.394841 0.837449 0.372331 -0.709537
H12   H     H_    0.361096 0.885212 0.317096 0.336904
O12   O     O_3   0.412898 0.157822 0.622742 -0.727028
H13   H     H_    0.385622 0.107376 0.672985 0.318653
C25   C     C_3   0.552665 0.985857 0.722342 -0.918924
H14   H     H_    0.594089 0.934873 0.782669 0.249461
H15   H     H_    0.594600 0.049736 0.690118 0.253721
H16   H     H_    0.511747 0.047799 0.798156 0.248006
O13   O     O_3   0.508789 0.019777 0.292189 -0.751733
H17   H     H_    0.534868 0.067742 0.238222 0.324751
O14   O     O_3   0.403093 0.458297 0.842172 -0.673441
H18   H     H_    0.360897 0.464886 0.908959 0.309403
C26   C     C_3   0.616065 0.623850 0.949891 -0.611673
H19   H     H_    0.654435 0.654990 0.881070 0.244923
H20   H     H_    0.603337 0.714970 0.038832 0.182928
H21   H     H_    0.653705 0.559069 0.996564 0.193385
C27   C     C_3   0.434484 0.311227 0.039904 -0.512104
H22   H     H_    0.469403 0.239982 0.078478 0.210636
H23   H     H_    0.365325 0.294151 0.038337 0.193348
H24   H     H_    0.447978 0.286124 0.926574 0.207538
C28   C     C_3   0.062770 0.479272 0.220588 -0.827790
H25   H     H_    0.133033 0.492814 0.231641 0.220099
H26   H     H_    0.040177 0.411135 0.106344 0.252884
H27   H     H_    0.036649 0.575002 0.231950 0.221403
O15   O     O_3   0.061300 0.287650 0.282821 -0.743411
H28   H     H_    0.122902 0.288383 0.275381 0.343959
C29   C     C_3   0.894586 0.271118 0.273966 -0.631942
H29   H     H_    0.826198 0.268154 0.285137 0.215235
H30   H     H_    0.898408 0.222273 0.155410 0.216289
H31   H     H_    0.927951 0.208372 0.328005 0.264161
O16   O     O_3   0.893677 0.475118 0.237149 -0.750256
H32   H     H_    0.897503 0.420234 0.133908 0.350040
O17   O     O_3   0.104806 0.722191 0.680960 -0.675331
H33   H     H_    0.085956 0.703390 0.762893 0.365102
O18   O     O_3   0.941346 0.719369 0.691488 -0.699312
H34   H     H_    0.879141 0.727387 0.690083 0.345521

loop_
_geom_bond_atom_site_label_1
_geom_bond_atom_site_label_2
_ccdc_geom_bond_type
C27   H23   S    
C2    C18   S    
C15   O14   S    
C19   C20   S    
C18   H2    S    
C29   H31   S    
C3    C6    S    
C10   O12   S    
C7    C8    T    
C4    C24   S    
O10   H8    S    
C24   H11   S    
Cu1   N2    S    
C29   H30   S    
C16   O6    A    
O9    H4    S    
C27   H24   S    
C1    O2    A    
C20   C29   S    
C9    O13   S    
C24   H9    S    
C18   C23   S    
C26   H20   S    
C16   O5    A    
C5    H3    S    
C23   H7    S    
C5    C22   S    
C2    O10   S    
Cu1   Cu2   S    
C28   H25   S    
C17   O7    A    
C9    C10   D    
C23   H6    S    
C27   H22   S    
C12   O3    A    
C15   N2    D    
C25   H15   S    
C24   H10   S    
Cu2   O6    S    
O15   H28   S    
C20   O16   S    
Cu1   O1    S    
C19   C22   S    
C1    C9    S    
C29   H29   S    
Cu2   O8    S    
O16   H32   S    
O13   H17   S    
C6    C21   T    
C17   C21   S    
O14   H18   S    
N1    C27   S    
C26   H19   S    
C11   C16   S    
C2    O9    S    
C4    O18   S    
C8    C12   S    
Cu1   O5    S    
C28   H27   S    
O11   H12   S    
C3    C20   S    
C17   O8    A    
O18   H34   S    
N2    C26   S    
C11   C25   S    
C23   H5    S    
Cu1   O7    S    
C3    C4    S    
O12   H13   S    
C25   H14   S    
C26   H21   S    
C18   C22   S    
C19   O15   S    
Cu2   N1    S    
C4    C5    S    
C10   C13   S    
C7    C22   S    
Cu2   O4    S    
Cu1   O3    S    
C2    C3    S    
Cu2   O2    S    
C5    O17   S    
C11   C13   D    
C1    O1    A    
C14   H1    S    
C13   O11   S    
O17   H33   S    
C14   C15   S    
C19   C28   S    
C28   H26   S    
C14   N1    D    
C12   O4    A    
C25   H16   S    
