data_mof_unit_18355.cif
_audit_creation_date              2012-12-10T18:35:21-0500
_audit_creation_method            fapswitch 2.2
_symmetry_space_group_name_H-M    P1
_symmetry_Int_Tables_number       1
_space_group_crystal_system       triclinic
_cell_length_a                    15.0583
_cell_length_b                    15.550605
_cell_length_c                    16.802445
_cell_angle_alpha                 91.444039
_cell_angle_beta                  100.396409
_cell_angle_gamma                 97.065099
_cell_volume                      3836.04685207

loop_
_atom_site_label
_atom_site_type_symbol
_atom_type_description
_atom_site_fract_x
_atom_site_fract_y
_atom_site_fract_z
_atom_type_partial_charge
C1    C     C_R   0.556655 0.662052 0.513010 0.871575
C2    C     C_R   0.443190 0.338005 0.490380 0.876518
C3    C     C_R   0.589275 0.754052 0.531482 -0.057834
C4    C     C_R   0.409687 0.246585 0.496441 -0.064552
C5    C     C_R   0.709345 0.872463 0.576645 -0.202132
C6    C     C_R   0.288990 0.130309 0.502725 -0.202228
C7    C     C_R   0.681988 0.784580 0.556050 -0.198131
C8    C     C_R   0.316834 0.217103 0.490521 -0.198047
C9    C     C_R   0.524636 0.811249 0.529472 -0.246038
C10   C     C_R   0.473817 0.189381 0.515590 -0.243628
C11   C     C_R   0.550040 0.898701 0.552956 0.085070
C12   C     C_R   0.448033 0.103681 0.532618 0.088124
C13   C     C_R   0.644111 0.929994 0.573844 0.178435
C14   C     C_R   0.353920 0.073101 0.522663 0.175737
C15   C     C_R   0.484176 0.956593 0.550536 0.068840
C16   C     C_R   0.513689 0.046569 0.554246 0.063667
C17   C     C_R   0.607708 0.076284 0.578822 -0.223175
C18   C     C_R   0.389983 0.927719 0.543594 -0.210572
C19   C     C_R   0.671681 0.018440 0.589915 -0.234997
C20   C     C_R   0.326094 0.985663 0.531410 -0.231983
C21   C     C_R   0.170953 0.653098 0.402363 -0.289916
C22   C     C_R   0.829188 0.347048 0.597768 -0.287937
C23   C     C_R   0.511475 0.499684 0.349548 0.861763
C24   C     C_R   0.490975 0.506594 0.650732 0.853635
C25   C     C_R   0.255463 0.624682 0.412164 0.560953
C26   C     C_R   0.744802 0.375661 0.588323 0.564321
C27   C     C_R   0.205149 0.505209 0.485598 -0.151896
C28   C     C_R   0.794608 0.494362 0.513746 -0.155573
C29   C     C_R   0.116414 0.530296 0.474996 0.002156
C30   C     C_R   0.883289 0.469157 0.524107 0.001735
C31   C     C_R   0.101248 0.606488 0.433074 0.080150
C32   C     C_R   0.898589 0.393167 0.566313 0.082716
C33   C     C_R   0.043180 0.483838 0.505241 0.102236
C34   C     C_R   0.956405 0.515411 0.493538 0.101694
C35   C     C_R   0.945757 0.592314 0.452176 -0.234488
C36   C     C_R   0.053789 0.406850 0.546475 -0.233317
C37   C     C_R   0.016887 0.636537 0.422228 -0.192997
C38   C     C_R   0.982803 0.362860 0.576770 -0.192540
C39   C     C_R   0.522677 0.514127 0.266379 -0.038226
C40   C     C_R   0.495968 0.533553 0.735160 -0.028182
C41   C     C_R   0.450381 0.537197 0.209692 -0.206748
C42   C     C_R   0.581480 0.559700 0.783824 -0.200633
C43   C     C_R   0.464203 0.560444 0.133286 -0.138166
C44   C     C_R   0.587431 0.595273 0.861308 -0.157545
C45   C     C_R   0.550986 0.561797 0.113033 0.203238
C46   C     C_R   0.507878 0.603096 0.891744 0.202858
C47   C     C_R   0.622531 0.536832 0.169029 -0.180168
C48   C     C_R   0.422496 0.580379 0.842301 -0.167305
C49   C     C_R   0.608664 0.513213 0.245282 -0.191150
C50   C     C_R   0.416449 0.545605 0.764210 -0.193163
C51   C     C_2   0.566519 0.578146 0.031069 -0.227927
C52   C     C_2   0.511689 0.619950 0.978163 -0.240089
H1    H     H_    0.383355 0.537957 0.224453 0.160303
H2    H     H_    0.643865 0.554243 0.761613 0.161070
H3    H     H_    0.633412 0.144026 0.591732 0.193452
H4    H     H_    0.364020 0.860776 0.549423 0.155962
H5    H     H_    0.005802 0.695299 0.390528 0.143063
H6    H     H_    0.993921 0.304145 0.608540 0.141600
H7    H     H_    0.775310 0.548725 0.479444 0.147833
H8    H     H_    0.224301 0.450598 0.519585 0.147041
H9    H     H_    0.159926 0.711499 0.370014 0.167003
H10   H     H_    0.840350 0.288856 0.630424 0.161680
H11   H     H_    0.883299 0.620764 0.442028 0.135396
H12   H     H_    0.116149 0.378231 0.556382 0.133984
H13   H     H_    0.349822 0.527725 0.726821 0.154593
H14   H     H_    0.665841 0.495921 0.288046 0.161386
H15   H     H_    0.458180 0.652073 0.996665 0.149426
H16   H     H_    0.619018 0.545425 0.011154 0.152695
H17   H     H_    0.689243 0.535536 0.153653 0.130133
H18   H     H_    0.360610 0.585703 0.865429 0.128141
H19   H     H_    0.654069 0.614332 0.898276 0.132073
H20   H     H_    0.406176 0.574981 0.090140 0.125944
H21   H     H_    0.743186 0.043366 0.607948 0.148067
H22   H     H_    0.254504 0.961392 0.525826 0.146497
H23   H     H_    0.544166 0.212184 0.514827 0.189642
H24   H     H_    0.454263 0.787006 0.506625 0.191857
H25   H     H_    0.266059 0.260839 0.476629 0.155760
H26   H     H_    0.733096 0.740895 0.558893 0.157180
H27   H     H_    0.781356 0.895614 0.593781 0.135693
H28   H     H_    0.216908 0.107854 0.496322 0.135618
N1    N     N_R   0.271750 0.551950 0.454510 -0.151396
N2    N     N_R   0.728250 0.448050 0.545490 -0.150654
O1    O     O_R   0.615140 0.606020 0.522930 -0.624970
O2    O     O_R   0.384860 0.393980 0.477070 -0.619680
O3    O     O_R   0.468580 0.639400 0.493740 -0.608595
O4    O     O_R   0.531420 0.360600 0.506260 -0.607879
O5    O     O_R   0.581950 0.481350 0.400520 -0.613441
O6    O     O_R   0.418050 0.518650 0.599480 -0.612916
O7    O     O_R   0.435380 0.514730 0.371330 -0.646337
O8    O     O_R   0.564620 0.485270 0.628670 -0.649587
Zn1   Zn    Zn3+2 0.597860 0.477710 0.519490 0.940589
Zn2   Zn    Zn3+2 0.402140 0.522290 0.480510 0.943736
O9    O     O_3   0.679612 0.326988 0.621546 -0.808193
H29   H     H_    0.635088 0.364636 0.632085 0.377818
O10   O     O_3   0.321091 0.673814 0.379823 -0.788568
H30   H     H_    0.364713 0.635781 0.367830 0.372844

loop_
_geom_bond_atom_site_label_1
_geom_bond_atom_site_label_2
_ccdc_geom_bond_type
C15   C18   A    
C43   H20   S    
O5    Zn1   S    
C27   C29   A    
C2    O2    A    
O10   H30   S    
C4    C8    A    
C39   C41   A    
C21   C31   A    
O9    H29   S    
C22   C32   A    
C35   C37   A    
C3    C7    A    
C27   H8    S    
C23   C39   S    
C6    C14   A    
C45   C51   S    
C15   C16   A    
C46   C52   S    
C33   C36   A    
C44   H19   S    
C34   C35   A    
C47   H17   S    
C17   C19   A    
C38   H6    S    
N1    Zn2   S    
C11   C15   A    
C12   C16   A    
C29   C33   A    
C16   C17   A    
C23   O7    A    
C9    H24   S    
C32   C38   A    
C5    H27   S    
C17   H3    S    
C21   H9    S    
C18   H4    S    
C26   O9    S    
C40   C42   A    
C26   N2    A    
C23   O5    A    
C25   N1    A    
C41   C43   A    
C42   C44   A    
O3    Zn2   S    
C44   C46   A    
C45   C47   A    
C1    O3    A    
C46   C48   A    
C49   H14   S    
C30   C34   A    
C28   N2    A    
C51   C52   D    
C14   C20   A    
C27   N1    A    
C47   C49   A    
C5    C7    A    
C13   C19   A    
C6    C8    A    
N2    Zn1   S    
C31   C37   A    
C1    C3    S    
C2    C4    S    
C3    C9    A    
C22   H10   S    
C43   C45   A    
C10   H23   S    
C6    H28   S    
C19   H21   S    
C33   C34   A    
C20   H22   S    
O6    Zn2   S    
O7    Zn2   S    
C9    C11   A    
C41   H1    S    
C52   H15   S    
C10   C12   A    
C7    H26   S    
C39   C49   A    
C12   C14   A    
C25   O10   S    
C8    H25   S    
C4    C10   A    
C36   C38   A    
C28   H7    S    
C21   C25   A    
C5    C13   A    
C24   O6    A    
C48   H18   S    
C24   O8    A    
C1    O1    A    
O1    Zn1   S    
O4    Zn1   S    
C28   C30   A    
C29   C31   A    
C42   H2    S    
C30   C32   A    
C11   C13   A    
O8    Zn1   S    
C40   C50   A    
C48   C50   A    
C24   C40   S    
C2    O4    A    
C18   C20   A    
C51   H16   S    
C50   H13   S    
C22   C26   A    
C35   H11   S    
O2    Zn2   S    
C36   H12   S    
C37   H5    S    
