data_mof_unit_66200.cif
_audit_creation_date              2012-10-26T17:55:01-0400
_audit_creation_method            fapswitch 2.2
_symmetry_space_group_name_H-M    P1
_symmetry_Int_Tables_number       1
_space_group_crystal_system       triclinic
_cell_length_a                    21.685905
_cell_length_b                    21.685906
_cell_length_c                    30.168271
_cell_angle_alpha                 89.999987
_cell_angle_beta                  89.999977
_cell_angle_gamma                 90.0
_cell_volume                      14187.4891537

loop_
_atom_site_label
_atom_site_type_symbol
_atom_type_description
_atom_site_fract_x
_atom_site_fract_y
_atom_site_fract_z
_atom_type_partial_charge
C1    C     C_R   0.500000 0.118856 0.500000 0.546920
C2    C     C_R   0.000000 0.500000 0.773300 0.060451
C3    C     C_R   0.958938 0.538183 0.842902 -0.134479
C4    C     C_R   0.538183 0.958938 0.157097 -0.134479
C5    C     C_R   0.041062 0.538183 0.157097 -0.134479
C6    C     C_R   0.461817 0.041062 0.157097 -0.134479
C7    C     C_R   0.958937 0.461817 0.157097 -0.134479
C8    C     C_R   0.038183 0.541062 0.342902 -0.134479
C9    C     C_R   0.541062 0.961817 0.342902 -0.134479
C10   C     C_R   0.961817 0.458938 0.342903 -0.134479
C11   C     C_R   0.458938 0.038183 0.342902 -0.134479
C12   C     C_R   0.038183 0.458938 0.657097 -0.134479
C13   C     C_R   0.500000 1.000000 0.226700 0.060451
C14   C     C_R   0.541062 0.038183 0.657097 -0.134479
C15   C     C_R   0.961817 0.541062 0.657097 -0.134479
C16   C     C_R   0.458937 0.961817 0.657097 -0.134479
C17   C     C_R   0.500000 1.000000 0.865985 -0.004633
C18   C     C_R   1.000000 0.500000 0.865985 -0.004633
C19   C     C_R   0.500000 1.000000 0.134015 -0.004633
C20   C     C_R   1.000000 0.500000 0.134015 -0.004633
C21   C     C_R   1.000000 0.500000 0.365985 -0.004633
C22   C     C_R   0.500000 0.000000 0.365985 -0.004633
C23   C     C_R   1.000000 0.500000 0.634015 -0.004633
C24   C     C_R   1.000000 0.500000 0.226700 0.060451
C25   C     C_R   0.500000 0.000000 0.634015 -0.004633
C26   C     C_R   0.460754 0.959369 0.796580 0.012813
C27   C     C_R   0.959369 0.539246 0.796580 0.012813
C28   C     C_R   0.539246 0.040631 0.796580 0.012813
C29   C     C_R   0.040631 0.460754 0.796580 0.012813
C30   C     C_R   0.460754 0.040631 0.203420 0.012813
C31   C     C_R   0.959369 0.460754 0.203420 0.012813
C32   C     C_R   0.539246 0.959369 0.203420 0.012813
C33   C     C_R   0.040631 0.539246 0.203420 0.012813
C34   C     C_R   0.960754 0.459369 0.296580 0.012813
C35   C     C_R   1.000000 0.500000 0.273300 0.060451
C36   C     C_R   0.459369 0.039246 0.296580 0.012813
C37   C     C_R   0.039246 0.540631 0.296580 0.012813
C38   C     C_R   0.540631 0.960754 0.296580 0.012813
C39   C     C_R   0.960754 0.540631 0.703420 0.012813
C40   C     C_R   0.459369 0.960754 0.703420 0.012813
C41   C     C_R   0.039246 0.459369 0.703420 0.012813
C42   C     C_R   0.540631 0.039246 0.703420 0.012813
C43   C     C_R   0.500000 0.000000 0.273300 0.060451
C44   C     C_R   0.000000 0.500000 0.726700 0.060451
C45   C     C_R   0.500000 1.000000 0.726700 0.060451
C46   C     C_R   0.421084 0.920066 0.773140 -0.131746
C47   C     C_R   0.920065 0.578916 0.773140 -0.131746
C48   C     C_R   0.578916 0.079934 0.773140 -0.131746
C49   C     C_R   0.118856 0.500000 0.500000 0.546919
C50   C     C_R   0.079935 0.421084 0.773140 -0.131746
C51   C     C_R   0.421084 0.079935 0.226860 -0.131746
C52   C     C_R   0.920065 0.421084 0.226860 -0.131746
C53   C     C_R   0.578916 0.920065 0.226860 -0.131746
C54   C     C_R   0.079935 0.578916 0.226860 -0.131746
C55   C     C_R   0.921084 0.420066 0.273140 -0.131746
C56   C     C_R   0.420065 0.078916 0.273140 -0.131746
C57   C     C_R   0.078916 0.579934 0.273140 -0.131746
C58   C     C_R   0.579934 0.921084 0.273140 -0.131746
C59   C     C_R   0.921084 0.579935 0.726860 -0.131746
C60   C     C_R   0.500000 0.881144 0.500000 0.546920
C61   C     C_R   0.420065 0.921084 0.726860 -0.131746
C62   C     C_R   0.078916 0.420065 0.726860 -0.131746
C63   C     C_R   0.579935 0.078916 0.726860 -0.131746
C64   C     C_R   0.539932 0.217855 0.471759 -0.133098
C65   C     C_R   0.217855 0.460068 0.471758 -0.133099
C66   C     C_R   0.460068 0.782145 0.471758 -0.133098
C67   C     C_R   0.782145 0.539932 0.471758 -0.133099
C68   C     C_R   0.539932 0.782145 0.528242 -0.133099
C69   C     C_R   0.217855 0.539932 0.528242 -0.133099
C70   C     C_R   0.460068 0.217854 0.528242 -0.133099
C71   C     C_R   0.881144 0.500000 0.500000 0.546920
C72   C     C_R   0.782145 0.460068 0.528242 -0.133098
C73   C     C_R   0.039932 0.717855 0.971758 -0.133098
C74   C     C_R   0.717855 0.960068 0.971758 -0.133099
C75   C     C_R   0.960068 0.282145 0.971758 -0.133098
C76   C     C_R   0.282145 0.039932 0.971758 -0.133099
C77   C     C_R   0.039932 0.282145 0.028241 -0.133099
C78   C     C_R   0.717854 0.039932 0.028242 -0.133099
C79   C     C_R   0.960068 0.717854 0.028241 -0.133099
C80   C     C_R   0.282145 0.960068 0.028242 -0.133098
C81   C     C_R   0.500000 0.185757 0.500000 0.025777
C82   C     C_R   0.000000 0.618856 0.000000 0.546920
C83   C     C_R   0.185757 0.500000 0.500000 0.025777
C84   C     C_R   0.500000 0.814242 0.500000 0.025777
C85   C     C_R   0.814242 0.500000 0.500000 0.025778
C86   C     C_R   1.000000 0.685757 0.000000 0.025777
C87   C     C_R   0.685757 0.000000 0.000000 0.025777
C88   C     C_R   1.000000 0.314243 1.000000 0.025777
C89   C     C_R   0.314242 1.000000 1.000000 0.025778
C90   C     C_R   0.500000 1.000000 0.585666 0.548249
C91   C     C_R   1.000000 0.500000 0.585666 0.548250
C92   C     C_R   0.500000 1.000000 0.414334 0.548250
C93   C     C_R   0.618856 1.000000 0.000000 0.546919
C94   C     C_R   1.000000 0.500000 0.414334 0.548249
C95   C     C_R   1.000000 0.500000 0.085666 0.548249
C96   C     C_R   0.500000 0.000000 0.085666 0.548250
C97   C     C_R   0.000000 0.500000 0.914334 0.548250
C98   C     C_R   0.500000 0.000000 0.914334 0.548249
C99   C     C_R   0.539176 0.281970 0.471216 -0.132936
C100  C     C_R   0.281970 0.460825 0.471216 -0.132937
C101  C     C_R   0.460824 0.718030 0.471216 -0.132937
C102  C     C_R   0.718030 0.539175 0.471216 -0.132937
C103  C     C_R   0.539176 0.718030 0.528784 -0.132937
C104  C     C_R   0.000000 0.381144 0.000000 0.546920
C105  C     C_R   0.281970 0.539176 0.528784 -0.132937
C106  C     C_R   0.460824 0.281970 0.528784 -0.132936
C107  C     C_R   0.718030 0.460824 0.528784 -0.132937
C108  C     C_R   0.039176 0.781970 0.971216 -0.132936
C109  C     C_R   0.781970 0.960825 0.971216 -0.132937
C110  C     C_R   0.960824 0.218030 0.971216 -0.132937
C111  C     C_R   0.218030 0.039175 0.971216 -0.132937
C112  C     C_R   0.039176 0.218029 0.028784 -0.132937
C113  C     C_R   0.781970 0.039176 0.028784 -0.132937
C114  C     C_R   0.960824 0.781970 0.028784 -0.132936
C115  C     C_R   0.381144 1.000000 1.000000 0.546920
C116  C     C_R   0.218030 0.960824 0.028784 -0.132937
C117  C     C_R   0.500000 0.314071 0.500000 0.026083
C118  C     C_R   0.314071 0.500000 0.500000 0.026083
C119  C     C_R   0.500000 0.685929 0.500000 0.026083
C120  C     C_R   0.685929 0.500000 0.500000 0.026083
C121  C     C_R   0.000000 0.814071 0.000000 0.026083
C122  C     C_R   0.814071 0.000000 0.000000 0.026083
C123  C     C_R   0.000000 0.185929 0.000000 0.026083
C124  C     C_R   0.185929 1.000000 1.000000 0.026083
C125  C     C_R   0.380978 0.500000 0.500000 0.546634
C126  C     C_R   0.500000 0.000000 0.773300 0.060451
C127  C     C_R   0.500000 0.619021 0.500000 0.546634
C128  C     C_R   0.619021 0.500000 0.500000 0.546634
C129  C     C_R   0.500000 0.380978 0.500000 0.546634
C130  C     C_R   0.880978 0.000000 0.000000 0.546634
C131  C     C_R   1.000000 0.119021 0.000000 0.546634
C132  C     C_R   0.119021 1.000000 1.000000 0.546634
C133  C     C_R   1.000000 0.880978 0.000000 0.546634
C134  C     C_R   0.538183 0.041062 0.842902 -0.134479
C135  C     C_R   0.041062 0.461817 0.842902 -0.134479
C136  C     C_R   0.461817 0.958938 0.842903 -0.134479
Cu1   Cu    Cu3+1 0.438190 1.000000 0.500000 0.930866
Cu2   Cu    Cu3+1 0.500000 0.500000 0.544440 0.931019
Cu3   Cu    Cu3+1 0.000000 0.000000 0.955560 0.931020
Cu4   Cu    Cu3+1 1.000000 1.000000 0.044440 0.931019
Cu5   Cu    Cu3+1 0.000000 0.561810 0.500000 0.930866
Cu6   Cu    Cu3+1 0.561810 1.000000 0.500000 0.930866
Cu7   Cu    Cu3+1 0.000000 0.438190 0.500000 0.930866
Cu8   Cu    Cu3+1 0.938190 0.500000 0.000000 0.930866
Cu9   Cu    Cu3+1 0.500000 0.061810 0.000000 0.930866
Cu10  Cu    Cu3+1 0.061810 0.500000 0.000000 0.930866
Cu11  Cu    Cu3+1 0.500000 0.938190 0.000000 0.930866
Cu12  Cu    Cu3+1 0.500000 0.500000 0.455560 0.931020
H1    H     H_    0.390608 0.888803 0.790610 0.111916
H2    H     H_    0.388803 0.109392 0.290610 0.111916
H3    H     H_    0.109392 0.611197 0.290610 0.111916
H4    H     H_    0.611197 0.890608 0.290610 0.111916
H5    H     H_    0.890608 0.611197 0.709390 0.111916
H6    H     H_    0.388803 0.890608 0.709390 0.111916
H7    H     H_    0.109392 0.388803 0.709390 0.111916
H8    H     H_    0.611197 0.109392 0.709389 0.111916
H9    H     H_    0.570777 0.193300 0.449696 0.123053
H10   H     H_    0.193300 0.429224 0.449695 0.123052
H11   H     H_    0.429223 0.806700 0.449696 0.123053
H12   H     H_    0.888803 0.609392 0.790610 0.111916
H13   H     H_    0.806700 0.570776 0.449695 0.123052
H14   H     H_    0.570777 0.806699 0.550304 0.123053
H15   H     H_    0.193300 0.570776 0.550305 0.123052
H16   H     H_    0.429223 0.193300 0.550304 0.123053
H17   H     H_    0.806699 0.429223 0.550304 0.123052
H18   H     H_    0.070777 0.693300 0.949696 0.123053
H19   H     H_    0.693300 0.929224 0.949695 0.123052
H20   H     H_    0.929223 0.306700 0.949696 0.123053
H21   H     H_    0.306700 0.070776 0.949695 0.123052
H22   H     H_    0.070777 0.306699 0.050304 0.123053
H23   H     H_    0.609392 0.111197 0.790610 0.111916
H24   H     H_    0.693300 0.070776 0.050305 0.123052
H25   H     H_    0.929223 0.693300 0.050304 0.123052
H26   H     H_    0.306700 0.929223 0.050305 0.123052
H27   H     H_    0.569783 0.306521 0.448981 0.123148
H28   H     H_    0.306521 0.430218 0.448980 0.123148
H29   H     H_    0.430217 0.693480 0.448981 0.123148
H30   H     H_    0.693479 0.569782 0.448980 0.123148
H31   H     H_    0.569783 0.693479 0.551019 0.123148
H32   H     H_    0.306520 0.569782 0.551020 0.123148
H33   H     H_    0.430217 0.306520 0.551019 0.123148
H34   H     H_    0.111197 0.390608 0.790610 0.111916
H35   H     H_    0.693479 0.430218 0.551020 0.123148
H36   H     H_    0.069783 0.806521 0.948981 0.123148
H37   H     H_    0.806521 0.930218 0.948980 0.123148
H38   H     H_    0.930217 0.193479 0.948981 0.123148
H39   H     H_    0.193479 0.069782 0.948980 0.123148
H40   H     H_    0.069783 0.193479 0.051019 0.123148
H41   H     H_    0.806521 0.069782 0.051020 0.123148
H42   H     H_    0.930217 0.806520 0.051019 0.123148
H43   H     H_    0.193479 0.930218 0.051020 0.123148
H44   H     H_    0.567916 0.072340 0.861080 0.119000
H45   H     H_    0.390608 0.111197 0.209390 0.111916
H46   H     H_    0.072340 0.432084 0.861080 0.119000
H47   H     H_    0.432084 0.927660 0.861080 0.119000
H48   H     H_    0.927660 0.567916 0.861080 0.119000
H49   H     H_    0.567916 0.927660 0.138920 0.119000
H50   H     H_    0.072340 0.567916 0.138920 0.119000
H51   H     H_    0.432084 0.072340 0.138920 0.119000
H52   H     H_    0.927660 0.432084 0.138920 0.119000
H53   H     H_    0.067916 0.572340 0.361080 0.119000
H54   H     H_    0.572340 0.932084 0.361080 0.119000
H55   H     H_    0.932084 0.427660 0.361080 0.119000
H56   H     H_    0.888803 0.390608 0.209390 0.111916
H57   H     H_    0.427660 0.067916 0.361080 0.119000
H58   H     H_    0.067916 0.427660 0.638920 0.119000
H59   H     H_    0.572340 0.067916 0.638920 0.119000
H60   H     H_    0.932084 0.572340 0.638920 0.119000
H61   H     H_    0.427660 0.932084 0.638920 0.119000
H62   H     H_    0.609392 0.888803 0.209390 0.111916
H63   H     H_    0.111197 0.609392 0.209389 0.111916
H64   H     H_    0.890608 0.388803 0.290610 0.111916
O1    O     O_R   0.447800 0.090100 0.499990 -0.510483
O2    O     O_R   0.590100 0.052200 0.999990 -0.510483
O3    O     O_R   0.052200 0.409900 0.999990 -0.510483
O4    O     O_R   0.409900 0.947800 0.999990 -0.510483
O5    O     O_R   0.947800 0.409900 0.000010 -0.510483
O6    O     O_R   0.590100 0.947800 0.000010 -0.510483
O7    O     O_R   0.052200 0.590100 0.000010 -0.510483
O8    O     O_R   0.409900 0.052200 0.000010 -0.510483
O9    O     O_R   0.447790 0.999890 0.564870 -0.509312
O10   O     O_R   0.999890 0.552210 0.564870 -0.509313
O11   O     O_R   0.552210 0.000110 0.564870 -0.509312
O12   O     O_R   0.090100 0.552200 0.499990 -0.510483
O13   O     O_R   0.000110 0.447790 0.564870 -0.509313
O14   O     O_R   0.447790 0.000110 0.435130 -0.509313
O15   O     O_R   0.999890 0.447790 0.435130 -0.509312
O16   O     O_R   0.552210 0.999890 0.435130 -0.509313
O17   O     O_R   0.000110 0.552210 0.435130 -0.509312
O18   O     O_R   0.947790 0.499890 0.064870 -0.509312
O19   O     O_R   0.499890 0.052210 0.064870 -0.509313
O20   O     O_R   0.052210 0.500110 0.064870 -0.509312
O21   O     O_R   0.500110 0.947790 0.064870 -0.509313
O22   O     O_R   0.947790 0.500110 0.935130 -0.509313
O23   O     O_R   0.552200 0.909900 0.499990 -0.510483
O24   O     O_R   0.499890 0.947790 0.935130 -0.509312
O25   O     O_R   0.052210 0.499890 0.935130 -0.509313
O26   O     O_R   0.500110 0.052210 0.935130 -0.509312
O27   O     O_R   0.409730 0.499930 0.462460 -0.510802
O28   O     O_R   0.499930 0.590270 0.462460 -0.510802
O29   O     O_R   0.590270 0.500070 0.462460 -0.510802
O30   O     O_R   0.500070 0.409730 0.462460 -0.510802
O31   O     O_R   0.409730 0.500070 0.537540 -0.510802
O32   O     O_R   0.499930 0.409730 0.537540 -0.510802
O33   O     O_R   0.590270 0.499930 0.537540 -0.510802
O34   O     O_R   0.909900 0.447800 0.499990 -0.510483
O35   O     O_R   0.500070 0.590270 0.537540 -0.510802
O36   O     O_R   0.909730 0.999930 0.962460 -0.510802
O37   O     O_R   0.999930 0.090270 0.962460 -0.510802
O38   O     O_R   0.090270 0.000070 0.962460 -0.510802
O39   O     O_R   0.000070 0.909730 0.962460 -0.510802
O40   O     O_R   0.909730 0.000070 0.037540 -0.510802
O41   O     O_R   0.999930 0.909730 0.037540 -0.510802
O42   O     O_R   0.090270 0.999930 0.037540 -0.510802
O43   O     O_R   0.000070 0.090270 0.037540 -0.510802
O44   O     O_R   0.447800 0.909900 0.500010 -0.510483
O45   O     O_R   0.090100 0.447800 0.500010 -0.510483
O46   O     O_R   0.552200 0.090100 0.500010 -0.510483
O47   O     O_R   0.909900 0.552200 0.500010 -0.510483
O48   O     O_R   0.947800 0.590100 0.999990 -0.510483

loop_
_geom_bond_atom_site_label_1
_geom_bond_atom_site_label_2
_ccdc_geom_bond_type
C78   C87   A    
Cu1   Cu6   S    
C89   C115  S    
C114  H42   S    
C53   C58   A    
C90   O11   A    
Cu12  O27   S    
C67   C102  A    
C72   H17   S    
C79   H25   S    
C13   C32   A    
Cu7   O45   S    
C95   O18   A    
C108  C121  A    
C30   C51   A    
C102  C120  A    
C61   H6    S    
C74   C109  A    
C72   C85   A    
C59   H5    S    
C132  O38   A    
C5    C20   A    
Cu10  O20   S    
C6    C19   A    
C12   C23   A    
C25   C90   S    
Cu1   O14   S    
C29   C135  A    
C2    C29   A    
C28   C134  A    
C128  O33   A    
Cu8   O18   S    
C8    H53   S    
C35   C37   A    
C63   H8    S    
C34   C35   A    
Cu5   Cu7   S    
C26   C126  A    
C6    H51   S    
C131  O43   A    
C9    C22   A    
C65   C83   A    
C21   C94   S    
C57   H3    S    
Cu10  O25   S    
Cu5   O17   S    
Cu1   O9    S    
C60   O44   A    
C62   H7    S    
C124  C132  S    
C3    C18   A    
C51   C56   A    
Cu6   O46   S    
C96   O19   A    
C134  H44   S    
C80   C89   A    
C115  O8    A    
C70   C81   A    
C74   H19   S    
Cu2   O35   S    
C88   C104  S    
C55   H64   S    
C38   C58   A    
C114  C121  A    
C49   O45   A    
C109  C122  A    
C64   C99   A    
C110  H38   S    
C82   O7    A    
C80   C116  A    
C77   C88   A    
Cu2   Cu12  S    
C77   H22   S    
Cu4   O40   S    
C64   H9    S    
C100  H28   S    
C113  C122  A    
C96   O21   A    
C68   C103  A    
C2    C27   A    
C118  C125  S    
Cu6   O23   S    
C74   C87   A    
C117  C129  S    
C10   H55   S    
C133  O39   A    
Cu10  O3    S    
C125  O27   A    
C52   C55   A    
C132  O42   A    
Cu5   O10   S    
C14   C42   A    
C123  C131  S    
Cu11  O24   S    
C15   C23   A    
Cu9   O19   S    
C92   O14   A    
C127  O28   A    
C71   C85   S    
C14   H59   S    
C91   O13   A    
Cu12  O30   S    
C128  O29   A    
C4    C19   A    
C66   C101  A    
C28   C48   A    
Cu3   O37   S    
C60   O23   A    
C41   C62   A    
Cu7   O13   S    
Cu3   O36   S    
C66   H11   S    
Cu9   Cu11  S    
C58   H4    S    
C47   H12   S    
C10   C21   A    
C40   C45   A    
C104  O5    A    
C3    H48   S    
Cu3   O39   S    
C67   C85   A    
C24   C35   A    
C7    C31   A    
C108  H36   S    
C46   C61   A    
C82   O48   A    
C68   C84   A    
C69   H15   S    
C13   C30   A    
C101  H29   S    
C95   O20   A    
C104  O3    A    
C90   O9    A    
Cu8   Cu10  S    
Cu11  O4    S    
C51   H45   S    
C2    C44   A    
C130  O36   A    
C53   H62   S    
C48   C63   A    
C33   C54   A    
C109  H37   S    
C82   C86   S    
Cu4   O42   S    
C66   C84   A    
C6    C30   A    
Cu7   O34   S    
C40   C61   A    
C107  H35   S    
C93   O6    A    
C52   H56   S    
C42   C45   A    
C101  C119  A    
C77   C112  A    
C64   C81   A    
C106  H33   S    
C12   C41   A    
C69   C83   A    
C110  C123  A    
C99   C117  A    
C48   H23   S    
C67   H13   S    
C97   O25   A    
C72   C107  A    
C45   C126  A    
C50   H34   S    
C39   C59   A    
Cu9   O26   S    
C17   C136  A    
C78   H24   S    
C8    C21   A    
Cu5   O47   S    
C1    C81   S    
C99   H27   S    
C18   C135  A    
C10   C34   A    
Cu4   O43   S    
C71   O47   A    
C91   O10   A    
C15   C39   A    
C112  C123  A    
C4    C32   A    
C127  O35   A    
C94   O15   A    
C136  H47   S    
Cu10  O7    S    
Cu11  O21   S    
C4    H49   S    
C18   C97   S    
C20   C95   S    
C16   C40   A    
C130  O40   A    
C49   O12   A    
C70   C106  A    
Cu12  O29   S    
C102  H30   S    
C41   C44   A    
C23   C91   S    
C105  C118  A    
Cu3   O38   S    
C100  C118  A    
C8    C37   A    
C105  H32   S    
C133  O41   A    
C32   C53   A    
C13   C43   A    
Cu2   O32   S    
C36   C56   A    
C19   C96   S    
C1    O46   A    
C17   C98   S    
C27   C47   A    
C16   C25   A    
C11   C36   A    
C75   C110  A    
C69   C105  A    
C116  C124  A    
Cu1   O1    S    
C93   O2    A    
Cu12  O28   S    
C116  H43   S    
C103  C119  A    
C15   H60   S    
C65   C100  A    
Cu7   O15   S    
C73   H18   S    
C73   C108  A    
C70   H16   S    
C112  H40   S    
Cu3   Cu4   S    
C120  C128  S    
Cu6   O16   S    
C5    H50   S    
C98   O26   A    
C129  O32   A    
C68   H14   S    
C28   C126  A    
C113  H41   S    
C76   C89   A    
C11   C22   A    
C111  H39   S    
C24   C33   A    
C31   C52   A    
Cu8   O22   S    
C75   H20   S    
C49   C83   S    
C3    C27   A    
C7    H52   S    
C24   C31   A    
C80   H26   S    
C38   C43   A    
C106  C117  A    
Cu2   O33   S    
C135  H46   S    
C1    O1    A    
Cu8   O5    S    
C60   C84   S    
C107  C120  A    
C94   O17   A    
Cu9   O8    S    
C29   C50   A    
C76   C111  A    
C50   C62   A    
C97   O22   A    
C87   C93   S    
C39   C44   A    
C9    C38   A    
C115  O4    A    
C125  O31   A    
C103  H31   S    
C5    C33   A    
C14   C25   A    
C54   H63   S    
C76   H21   S    
Cu8   O48   S    
C73   C86   A    
Cu1   O44   S    
C26   C136  A    
C9    H54   S    
C26   C46   A    
Cu5   O12   S    
C47   C59   A    
Cu9   O2    S    
C78   C113  A    
C75   C88   A    
C34   C55   A    
C46   H1    S    
C98   O24   A    
C92   O16   A    
C16   H61   S    
C7    C20   A    
C129  O30   A    
C79   C114  A    
C17   C134  A    
Cu11  O6    S    
C22   C92   S    
C36   C43   A    
Cu4   O41   S    
C11   H57   S    
C71   O34   A    
C121  C133  S    
Cu6   O11   S    
C111  C124  A    
C56   H2    S    
C42   C63   A    
C122  C130  S    
C79   C86   A    
C37   C57   A    
Cu2   O31   S    
C131  O37   A    
C65   H10   S    
C12   H58   S    
C54   C57   A    
C119  C127  S    
