data_mof_unit_24264.cif
_audit_creation_date              2012-12-10T17:33:57-0500
_audit_creation_method            fapswitch 2.2
_symmetry_space_group_name_H-M    P1
_symmetry_Int_Tables_number       1
_space_group_crystal_system       triclinic
_cell_length_a                    10.672252
_cell_length_b                    12.027704
_cell_length_c                    12.872467
_cell_angle_alpha                 93.394796
_cell_angle_beta                  90.276574
_cell_angle_gamma                 86.749869
_cell_volume                      1646.79009369

loop_
_atom_site_label
_atom_site_type_symbol
_atom_type_description
_atom_site_fract_x
_atom_site_fract_y
_atom_site_fract_z
_atom_type_partial_charge
C1    C     C_R   0.499134 0.521990 0.700364 0.948634
C2    C     C_R   0.514236 0.447580 0.974171 0.178400
C3    C     C_R   0.483565 0.552262 0.025891 0.166178
C4    C     C_R   0.742001 0.499825 0.497372 0.962444
C5    C     C_R   0.476243 0.559926 0.132560 -0.184304
C6    C     C_R   0.529964 0.360701 0.137209 -0.176268
C7    C     C_R   0.536612 0.352039 0.029735 -0.184193
C8    C     C_R   0.363123 0.954533 0.418514 0.354909
C9    C     C_R   0.380414 0.838086 0.424913 -0.059060
C10   C     C_R   0.559197 0.858875 0.533080 0.067779
C11   C     C_R   0.547004 0.976542 0.529166 -0.034067
C12   C     C_3   0.121507 0.500983 0.505221 -0.132963
C13   C     C_R   0.448435 0.025265 0.470619 -0.071092
C14   C     C_R   0.439649 0.143208 0.466967 0.045763
C15   C     C_R   0.616737 0.161872 0.577208 0.021563
C16   C     C_R   0.500418 0.477986 0.299657 0.936971
C17   C     C_R   0.630320 0.046715 0.583415 -0.213092
C18   C     C_R   0.257947 0.499989 0.502491 0.889723
C19   C     C_3   0.938129 0.378704 0.481423 -0.294878
C20   C     C_3   0.080125 0.380306 0.477931 -0.418578
C21   C     C_3   0.925757 0.577165 0.416086 0.284168
C22   C     C_3   0.920393 0.548346 0.610172 -0.371564
C23   C     C_3   0.069571 0.570482 0.414784 -0.401318
C24   C     C_3   0.878375 0.499623 0.500351 -0.141355
C25   C     C_2   0.663071 0.808747 0.592936 0.941398
C26   C     C_2   0.858289 0.503492 0.704847 0.927941
C27   C     C_2   0.122174 0.472859 0.701228 0.903815
C28   C     C_3   0.068075 0.547660 0.616335 0.245297
C29   C     C_R   0.501048 0.464934 0.188247 -0.055987
C30   C     C_R   0.497590 0.534991 0.811804 -0.024738
C31   C     C_R   0.461212 0.647783 0.970305 -0.160701
C32   C     C_R   0.468249 0.639152 0.862850 -0.059854
C33   C     C_R   0.521469 0.439894 0.867516 -0.251847
H1    H     H_    0.903854 0.337727 0.408256 0.248382
H2    H     H_    0.367297 0.184785 0.422146 0.188100
H3    H     H_    0.912338 0.324519 0.543812 0.254991
H4    H     H_    0.681347 0.214960 0.618286 0.170614
H5    H     H_    0.706139 0.013921 0.630811 0.179764
H6    H     H_    0.316044 0.783163 0.385972 0.195267
H7    H     H_    0.122572 0.318138 0.529929 0.255244
H8    H     H_    0.112904 0.350915 0.398369 0.226868
H9    H     H_    0.105688 0.530315 0.339867 0.208542
H10   H     H_    0.882501 0.636111 0.613360 0.205360
H11   H     H_    0.087973 0.853969 0.587846 0.404730
H12   H     H_    0.896280 0.664786 0.440520 0.196154
H13   H     H_    0.074086 0.940293 0.265375 0.408174
H14   H     H_    0.721501 0.746388 0.727835 0.363140
H15   H     H_    0.799583 0.423496 0.182669 0.390962
H16   H     H_    0.770417 0.380033 0.768668 0.340295
H17   H     H_    0.124786 0.324679 0.767728 0.363717
H18   H     H_    0.104407 0.655666 0.417457 0.243576
H19   H     H_    0.452417 0.640549 0.171984 0.175416
H20   H     H_    0.549348 0.286846 0.180135 0.189479
H21   H     H_    0.437733 0.728367 0.009722 0.167280
H22   H     H_    0.559944 0.271442 0.990290 0.159332
H23   H     H_    0.448836 0.713017 0.820007 0.215540
H24   H     H_    0.544717 0.359150 0.828148 0.160231
N1    N     N_R   0.523380 0.207800 0.519350 -0.124949
N2    N     N_R   0.476620 0.792180 0.480650 -0.162232
O1    O     O_R   0.506240 0.421700 0.658830 -0.630299
O2    O     O_2   0.245375 0.701926 0.668732 -0.275025
O3    O     O_3   0.055947 0.781100 0.563883 -0.547649
O4    O     O_2   0.152476 0.085877 0.417722 -0.322412
O5    O     O_2   0.278980 0.069722 0.258476 -0.300188
O6    O     O_3   0.146625 0.903023 0.300101 -0.534609
O7    O     O_2   0.769757 0.808207 0.558993 -0.615128
O8    O     O_R   0.641575 0.773731 0.692372 -0.801838
O9    O     O_2   0.739553 0.626093 0.280515 -0.286357
O10   O     O_2   0.950058 0.598389 0.208159 -0.249259
O11   O     O_3   0.835371 0.423486 0.253806 -0.587292
O12   O     O_R   0.491240 0.609310 0.646410 -0.569328
O13   O     O_2   0.857188 0.559042 0.787593 -0.568883
O14   O     O_R   0.804999 0.399871 0.699391 -0.799049
O15   O     O_2   0.200673 0.506882 0.763061 -0.565609
O16   O     O_R   0.082031 0.364922 0.709055 -0.811790
O17   O     O_R   0.692710 0.406190 0.506230 -0.601958
O18   O     O_R   0.677700 0.593810 0.493810 -0.620898
O19   O     O_R   0.508760 0.390690 0.353590 -0.628966
O20   O     O_R   0.493760 0.578300 0.341170 -0.606105
O21   O     O_R   0.322300 0.406190 0.506190 -0.642421
O22   O     O_R   0.307290 0.593810 0.493770 -0.581504
O23   O     O_2   0.042482 0.727624 0.754110 -0.224663
S1    S     S_3+6 0.106879 0.692159 0.652916 0.041465
S2    S     S_3+6 0.232859 0.007499 0.347336 0.007988
S3    S     S_3+6 0.861284 0.557647 0.285989 0.023500
Zn1   Zn    Zn3+2 0.510020 0.374730 0.508290 0.985281
Zn2   Zn    Zn3+2 0.489980 0.625270 0.491710 1.049893

loop_
_geom_bond_atom_site_label_1
_geom_bond_atom_site_label_2
_ccdc_geom_bond_type
O3    S1    S    
C8    C13   A    
C26   O13   D    
C19   C20   S    
C25   O8    S    
C7    H22   S    
C26   O14   S    
O20   Zn2   S    
C20   H8    S    
C12   C23   S    
C1    O12   A    
C23   H9    S    
C12   C28   S    
C19   H3    S    
C4    C24   S    
C9    H6    S    
C18   O22   A    
C15   H4    S    
O21   Zn1   S    
O5    S2    D    
C2    C7    A    
C8    C9    A    
C5    H19   S    
C27   O15   D    
C21   H12   S    
O19   Zn1   S    
C22   C28   S    
C13   C14   A    
C28   S1    S    
O9    S3    D    
C27   O16   S    
N1    Zn1   S    
H14   O8    S    
C5    C29   A    
C14   N1    A    
C21   S3    S    
H13   O6    S    
O2    S1    D    
C1    O1    A    
C14   H2    S    
O1    Zn1   S    
O6    S2    S    
H11   O3    S    
C16   C29   S    
C9    N2    A    
C23   H18   S    
C31   C32   A    
C12   C20   S    
C3    C31   A    
O22   Zn2   S    
O12   Zn2   S    
C10   C25   S    
C21   C23   S    
C15   N1    A    
C22   C24   S    
C6    H20   S    
O17   Zn1   S    
O10   S3    D    
C2    C33   A    
C16   O19   A    
C15   C17   A    
C11   C17   A    
C33   H24   S    
C30   C33   A    
C8    S2    S    
C25   O7    D    
H15   O11   S    
C3    C5    A    
C19   H1    S    
C6    C7    A    
O4    S2    D    
C16   O20   A    
C2    C3    A    
C4    O18   A    
H17   O16   S    
C30   C32   A    
C11   C13   A    
C20   H7    S    
C1    C30   S    
C19   C24   S    
H16   O14   S    
C17   H5    S    
C31   H21   S    
N2    Zn2   S    
C4    O17   A    
C10   C11   A    
C6    C29   A    
O18   Zn2   S    
C18   O21   A    
O23   S1    D    
C22   C26   S    
C21   C24   S    
C12   C18   S    
C27   C28   S    
O11   S3    S    
C10   N2    A    
C32   H23   S    
C22   H10   S    
