data_mof_unit_68331.cif
_audit_creation_date              2012-12-10T19:24:03-0500
_audit_creation_method            fapswitch 2.2
_symmetry_space_group_name_H-M    P1
_symmetry_Int_Tables_number       1
_space_group_crystal_system       triclinic
_cell_length_a                    10.864774
_cell_length_b                    10.628365
_cell_length_c                    9.967842
_cell_angle_alpha                 91.578531
_cell_angle_beta                  88.245697
_cell_angle_gamma                 88.889771
_cell_volume                      1149.82279272

loop_
_atom_site_label
_atom_site_type_symbol
_atom_type_description
_atom_site_fract_x
_atom_site_fract_y
_atom_site_fract_z
_atom_type_partial_charge
C1    C     C_R   0.510278 0.258281 0.498791 0.917434
C2    C     C_R   0.489723 0.741719 0.501208 0.917420
C3    C     C_3   0.444471 0.967603 0.616539 0.129483
C4    C     C_3   0.555525 0.032398 0.383455 0.129455
C5    C     C_3   0.458404 0.395476 0.047029 -0.124121
C6    C     C_3   0.541597 0.604524 0.952971 -0.124128
C7    C     C_3   0.567470 0.408391 0.946345 -0.118131
C8    C     C_3   0.432530 0.591609 0.053655 -0.118138
C9    C     C_3   0.392545 0.487437 0.956087 0.232466
C10   C     C_3   0.607455 0.512563 0.043913 0.232454
C11   C     C_R   0.258601 0.484686 0.501826 0.944638
C12   C     C_R   0.741398 0.515317 0.498174 0.944642
C13   C     C_3   0.024875 0.446680 0.618496 0.250450
C14   C     C_3   0.975122 0.553322 0.381506 0.250460
C15   C     C_3   0.942632 0.393931 0.507133 0.238037
C16   C     C_3   0.057366 0.606070 0.492869 0.238038
C17   C     C_3   0.878711 0.522860 0.493230 -0.278986
C18   C     C_3   0.121287 0.477141 0.506771 -0.278991
C19   C     C_3   0.960885 0.576263 0.603222 0.072800
C20   C     C_3   0.039113 0.423738 0.396779 0.072798
C21   C     C_3   0.567824 0.036146 0.605383 0.143579
C22   C     C_3   0.432172 0.963853 0.394611 0.143581
C23   C     C_3   0.613514 0.946517 0.488313 0.141526
C24   C     C_3   0.386482 0.053482 0.511680 0.141555
C25   C     C_3   0.489884 0.878169 0.500449 -0.249372
C26   C     C_3   0.510112 0.121831 0.499546 -0.249366
H1    H     H_    0.627477 0.332659 0.899585 0.142569
H2    H     H_    0.372524 0.667342 0.100416 0.142563
H3    H     H_    0.421754 0.307390 0.088458 0.117621
H4    H     H_    0.578248 0.692610 0.911542 0.117632
N1    N     N_3   0.499910 0.500030 0.863290 -0.113378
N2    N     N_3   0.500090 0.499970 0.136710 -0.113380
O1    O     O_R   0.500010 0.313960 0.616610 -0.635766
O2    O     O_R   0.499990 0.686040 0.383390 -0.635778
O3    O     O_R   0.500060 0.313950 0.383350 -0.636706
O4    O     O_R   0.499940 0.686050 0.616650 -0.636709
O5    O     O_R   0.313930 0.499970 0.616610 -0.623732
O6    O     O_R   0.686070 0.500030 0.383390 -0.623729
O7    O     O_R   0.313980 0.499960 0.383350 -0.597061
O8    O     O_R   0.686020 0.500040 0.616650 -0.597057
Zn1   Zn    Zn3+2 0.499970 0.500010 0.655740 0.935430
Zn2   Zn    Zn3+2 0.500030 0.499990 0.344260 0.935424
Br1   Br    Br    0.848402 0.242132 0.508915 -0.647447
Br2   Br    Br    0.151583 0.757875 0.491092 -0.647449
Br3   Br    Br    0.028119 0.335146 0.767852 -0.624840
Br4   Br    Br    0.971873 0.664866 0.232157 -0.624839
C27   C     C_3   0.923161 0.684194 0.701374 -0.388710
C28   C     C_3   0.017148 0.707931 0.809096 -0.794345
H5    H     H_    0.039544 0.619709 0.858203 0.285195
H6    H     H_    0.103540 0.745452 0.765996 0.273797
H7    H     H_    0.979208 0.777791 0.885042 0.262034
H8    H     H_    0.916102 0.771914 0.645504 0.231400
H9    H     H_    0.830426 0.666893 0.743855 0.210968
C29   C     C_3   0.076831 0.315803 0.298629 -0.388748
C30   C     C_3   0.982845 0.292062 0.190910 -0.794389
H10   H     H_    0.896454 0.254555 0.234016 0.273807
H11   H     H_    0.960455 0.380277 0.141793 0.285198
H12   H     H_    0.020779 0.222194 0.114970 0.262041
H13   H     H_    0.169562 0.333101 0.256144 0.210982
H14   H     H_    0.083888 0.228087 0.354501 0.231409
C31   C     C_3   0.730406 0.863243 0.470742 -0.401996
C32   C     C_3   0.848328 0.935455 0.449751 -0.753277
H15   H     H_    0.842196 0.998801 0.364108 0.291635
H16   H     H_    0.871401 0.988087 0.542332 0.286808
H17   H     H_    0.924783 0.868167 0.425704 0.298437
H18   H     H_    0.736296 0.804088 0.559710 0.177951
H19   H     H_    0.721430 0.797062 0.383949 0.223742
C33   C     C_3   0.269594 0.136761 0.529245 -0.402032
C34   C     C_3   0.151669 0.064559 0.550253 -0.753288
H20   H     H_    0.128578 0.011928 0.457678 0.286794
H21   H     H_    0.157807 0.001216 0.635894 0.291663
H22   H     H_    0.075220 0.131852 0.574302 0.298435
H23   H     H_    0.278576 0.202955 0.616027 0.223713
H24   H     H_    0.263706 0.195904 0.440269 0.177974
C35   C     C_3   0.635609 0.085624 0.728582 -0.311266
C36   C     C_3   0.704664 0.983192 0.801341 -0.885879
H25   H     H_    0.641680 0.909181 0.835470 0.246460
H26   H     H_    0.778948 0.939616 0.737180 0.270081
H27   H     H_    0.748972 0.026674 0.889260 0.263817
H28   H     H_    0.700964 0.158293 0.699753 0.267149
H29   H     H_    0.568191 0.132486 0.799955 0.202893
C37   C     C_3   0.364384 0.914382 0.271411 -0.311268
C38   C     C_3   0.295314 0.016813 0.198670 -0.885789
H30   H     H_    0.221005 0.060350 0.262831 0.270070
H31   H     H_    0.358276 0.090863 0.164569 0.246450
H32   H     H_    0.251022 0.973331 0.110741 0.263800
H33   H     H_    0.431796 0.867535 0.200023 0.202870
H34   H     H_    0.299043 0.841700 0.300236 0.267135
C39   C     C_3   0.381003 0.920113 0.744823 -0.328674
C40   C     C_3   0.343185 0.026096 0.845507 -0.896995
H35   H     H_    0.406375 0.026058 0.930789 0.247497
H36   H     H_    0.346642 0.120316 0.801441 0.271672
H37   H     H_    0.247711 0.011750 0.883869 0.265084
H38   H     H_    0.299132 0.865955 0.716829 0.225342
H39   H     H_    0.443207 0.853232 0.794350 0.207451
C41   C     C_3   0.618990 0.079868 0.255159 -0.328637
C42   C     C_3   0.656765 0.973864 0.154477 -0.896817
H40   H     H_    0.653195 0.879629 0.198536 0.271590
H41   H     H_    0.593597 0.973978 0.069168 0.247470
H42   H     H_    0.752281 0.988121 0.116149 0.265084
H43   H     H_    0.556796 0.146762 0.205638 0.207427
H44   H     H_    0.700876 0.134010 0.283137 0.225312
C43   C     C_3   0.266360 0.475276 0.904845 -0.368123
C44   C     C_3   0.182027 0.443843 0.020815 -0.844051
H45   H     H_    0.196829 0.342829 0.041271 0.266972
H46   H     H_    0.197162 0.504442 0.111207 0.297543
H47   H     H_    0.087451 0.458547 0.992366 0.292888
H48   H     H_    0.238931 0.565406 0.860211 0.230201
H49   H     H_    0.267844 0.397256 0.828747 0.259829
C45   C     C_3   0.733638 0.524725 0.095157 -0.368120
C46   C     C_3   0.817974 0.556158 0.979192 -0.844067
H50   H     H_    0.802843 0.495564 0.888799 0.297549
H51   H     H_    0.803175 0.657172 0.958737 0.266975
H52   H     H_    0.912550 0.541451 0.007644 0.292889
H53   H     H_    0.732153 0.602745 0.171254 0.259830
H54   H     H_    0.761065 0.434595 0.139791 0.230206

loop_
_geom_bond_atom_site_label_1
_geom_bond_atom_site_label_2
_ccdc_geom_bond_type
C7    C10   S    
C21   C26   S    
C11   C18   S    
C12   O8    A    
C41   H44   S    
C46   H50   S    
O2    Zn2   S    
C36   H27   S    
C30   H10   S    
C44   H46   S    
C42   H40   S    
O4    Zn1   S    
C1    O1    A    
C14   Br4   S    
C29   H14   S    
C13   C18   S    
C22   C37   S    
C24   C26   S    
O6    Zn2   S    
C19   C27   S    
C33   H24   S    
C37   H33   S    
C7    H1    S    
C11   O5    A    
C39   H38   S    
C34   H21   S    
O3    Zn2   S    
C45   C46   S    
C32   H16   S    
C4    C41   S    
C31   H18   S    
C28   H7    S    
C27   C28   S    
C8    C9    S    
C22   C25   S    
C12   C17   S    
C43   H48   S    
C46   H52   S    
C35   H28   S    
C16   Br2   S    
C18   C20   S    
C27   H9    S    
C5    N2    S    
C2    O2    A    
C28   H6    S    
C6    N1    S    
C41   H43   S    
C12   O6    A    
C14   C17   S    
C3    C24   S    
C34   H20   S    
C44   H45   S    
C42   H41   S    
O7    Zn2   S    
C5    H3    S    
C29   H13   S    
C15   C20   S    
C7    N1    S    
C13   C19   S    
C8    N2    S    
C14   C20   S    
C3    C25   S    
C36   H25   S    
C20   C29   S    
C5    C7    S    
C4    C23   S    
C24   C33   S    
C35   H29   S    
C6    C8    S    
C33   H23   S    
C39   H39   S    
C34   H22   S    
C35   C36   S    
C5    C9    S    
C32   H15   S    
C4    C22   S    
C31   H19   S    
C40   H36   S    
C38   H30   S    
C9    C43   S    
C41   C42   S    
C46   H51   S    
C30   H11   S    
C11   O7    A    
C28   H5    S    
C38   H31   S    
C13   C15   S    
C1    C26   S    
C8    H2    S    
C22   C24   S    
C3    C21   S    
C45   H54   S    
C42   H42   S    
C1    O3    A    
C40   H37   S    
C2    O4    A    
C15   C17   S    
C29   C30   S    
O8    Zn1   S    
N1    Zn1   S    
C32   H17   S    
C6    H4    S    
C33   C34   S    
C36   H26   S    
C6    C10   S    
C4    C26   S    
C27   H8    S    
C21   C35   S    
C3    C39   S    
C43   H49   S    
O1    Zn1   S    
C21   C23   S    
C15   Br1   S    
C13   Br3   S    
C40   H35   S    
C16   C19   S    
C37   H34   S    
C17   C19   S    
C10   C45   S    
C2    C25   S    
C14   C16   S    
C23   C25   S    
O5    Zn1   S    
C31   C32   S    
C9    N1    S    
C10   N2    S    
C23   C31   S    
C38   H32   S    
C16   C18   S    
C37   C38   S    
C30   H12   S    
C43   C44   S    
N2    Zn2   S    
C39   C40   S    
C45   H53   S    
C44   H47   S    
