data_mof_unit_12166.cif
_audit_creation_date              2012-12-10T17:43:35-0500
_audit_creation_method            fapswitch 2.2
_symmetry_space_group_name_H-M    P1
_symmetry_Int_Tables_number       1
_space_group_crystal_system       triclinic
_cell_length_a                    14.922745
_cell_length_b                    10.685279
_cell_length_c                    9.982029
_cell_angle_alpha                 90.237902
_cell_angle_beta                  88.182167
_cell_angle_gamma                 93.241382
_cell_volume                      1588.32083165

loop_
_atom_site_label
_atom_site_type_symbol
_atom_type_description
_atom_site_fract_x
_atom_site_fract_y
_atom_site_fract_z
_atom_type_partial_charge
C1    C     C_R   0.504442 0.261538 0.499607 0.901473
C2    C     C_R   0.909146 0.601766 0.550159 0.029382
C3    C     C_R   0.950959 0.296161 0.382919 -0.176112
C4    C     C_R   0.044045 0.298620 0.383605 -0.231930
C5    C     C_R   0.091965 0.398967 0.443399 0.136530
C6    C     C_R   0.046656 0.496841 0.505903 0.058315
C7    C     C_R   0.094854 0.595930 0.571263 0.027658
C8    C     C_R   0.049499 0.697443 0.623807 -0.258640
C9    C     C_R   0.957602 0.701483 0.610939 -0.153210
C10   C     C_R   0.184755 0.404345 0.439630 -0.362033
C11   C     C_R   0.231785 0.500681 0.506327 -0.194150
C12   C     C_R   0.327359 0.501543 0.501904 0.965492
C13   C     C_R   0.187991 0.592727 0.579279 0.367934
C14   C     C_R   0.640836 0.142603 0.647871 -0.217825
C15   C     C_R   0.700314 0.082955 0.727316 -0.275096
C16   C     C_R   0.693848 0.953481 0.739398 0.707365
C17   C     C_R   0.630202 0.882981 0.667601 -0.237634
C18   C     C_R   0.569557 0.941304 0.584312 -0.089646
C19   C     C_R   0.573384 0.072629 0.578490 0.108691
C20   C     C_R   0.511569 0.130121 0.498765 -0.123282
C21   C     C_R   0.451986 0.062173 0.419160 -0.346230
C22   C     C_R   0.446944 0.933314 0.422953 0.489884
C23   C     C_R   0.502441 0.739712 0.500668 0.915481
C24   C     C_R   0.506950 0.873281 0.503117 -0.194148
C25   C     C_R   0.401392 0.313611 0.148866 -0.121575
C26   C     C_R   0.371578 0.203375 0.088364 -0.276179
C27   C     C_R   0.375212 0.194989 0.951044 -0.278802
C28   C     C_R   0.397103 0.303299 0.873808 0.546040
C29   C     C_R   0.450470 0.404977 0.931558 0.024978
C30   C     C_R   0.451212 0.407159 0.075808 -0.001780
C31   C     C_R   0.547211 0.588896 0.069212 0.671412
C32   C     C_R   0.547134 0.588768 0.926708 -0.247851
C33   C     C_R   0.672717 0.498041 0.497476 0.956244
C34   C     C_R   0.817257 0.605752 0.536219 0.371517
C35   C     C_R   0.768649 0.499168 0.490660 -0.301357
C36   C     C_R   0.811592 0.399041 0.430492 0.328157
C37   C     C_R   0.904978 0.396481 0.437315 0.011808
C38   C     C_R   0.953373 0.497376 0.499690 -0.060275
H1    H     H_    0.649982 0.243258 0.638982 0.186392
H2    H     H_    0.752486 0.137132 0.777911 0.168873
H3    H     H_    0.632405 0.782900 0.675422 0.210727
H4    H     H_    0.384133 0.322925 0.252497 0.202144
H5    H     H_    0.339685 0.127417 0.147016 0.167626
H6    H     H_    0.346284 0.110664 0.905747 0.156471
H7    H     H_    0.586055 0.661332 0.872202 0.192222
H8    H     H_    0.915515 0.216488 0.338020 0.169952
H9    H     H_    0.078572 0.221960 0.337766 0.146296
H10   H     H_    0.220721 0.332277 0.387411 0.155175
H11   H     H_    0.085109 0.775960 0.671277 0.182900
H12   H     H_    0.924472 0.782112 0.650316 0.214016
H13   H     H_    0.408028 0.110514 0.355741 0.144953
N1    N     N_R   0.499150 0.498800 0.142780 -0.164786
N2    N     N_R   0.499120 0.498720 0.857170 -0.142920
O1    O     O_R   0.500000 0.316780 0.614690 -0.574762
O2    O     O_R   0.499990 0.316750 0.385360 -0.664179
O3    O     O_R   0.367850 0.499980 0.614680 -0.558427
O4    O     O_R   0.367840 0.499960 0.385350 -0.652044
O5    O     O_R   0.500010 0.683250 0.614640 -0.653636
O6    O     O_R   0.500000 0.683220 0.385310 -0.521427
O7    O     O_R   0.632160 0.500040 0.614650 -0.620730
O8    O     O_R   0.632150 0.500020 0.385320 -0.610162
Zn1   Zn    Zn3+2 0.500010 0.500020 0.653130 0.975295
Zn2   Zn    Zn3+2 0.499990 0.499980 0.346870 0.991218
O9    O     O_3   0.776489 0.718002 0.553908 -0.643635
C39   C     C_3   0.758991 0.768793 0.426494 0.095604
H14   H     H_    0.685822 0.780073 0.421687 0.175633
H15   H     H_    0.777212 0.708863 0.338635 0.141001
C40   C     C_3   0.809049 0.896597 0.408814 -0.370787
H16   H     H_    0.794356 0.957757 0.495925 0.247619
H17   H     H_    0.882543 0.884363 0.402841 0.216444
C41   C     C_3   0.780903 0.959914 0.281379 -0.851845
H18   H     H_    0.795822 0.901163 0.192234 0.284934
H19   H     H_    0.818275 0.051895 0.269213 0.255257
H20   H     H_    0.707831 0.975048 0.287524 0.275855
F1    F     F_    0.752117 0.895304 0.816308 -0.661067
O10   O     O_3   0.388107 0.864324 0.342144 -0.613119
C42   C     C_3   0.298261 0.891028 0.375085 0.053209
H21   H     H_    0.285063 0.989275 0.349632 0.123593
H22   H     H_    0.282838 0.875012 0.483714 0.180503
C43   C     C_3   0.235537 0.805199 0.293367 -0.278702
H23   H     H_    0.256387 0.813039 0.186152 0.217645
H24   H     H_    0.240999 0.706503 0.324670 0.235130
C44   C     C_3   0.138167 0.840775 0.309452 -0.983943
H25   H     H_    0.117080 0.842465 0.416754 0.278579
H26   H     H_    0.093791 0.771158 0.256659 0.270504
H27   H     H_    0.130371 0.934873 0.265866 0.257113
F2    F     F_    0.596629 0.679633 0.133247 -0.655266
O11   O     O_3   0.361567 0.312162 0.748369 -0.601126
C45   C     C_3   0.270359 0.265708 0.742310 0.057827
H28   H     H_    0.230701 0.340471 0.702433 0.156513
H29   H     H_    0.236255 0.243303 0.840894 0.119881
C46   C     C_3   0.263665 0.152781 0.647453 -0.349856
H30   H     H_    0.286449 0.182823 0.544946 0.203566
H31   H     H_    0.308268 0.079749 0.680172 0.218396
C47   C     C_3   0.167593 0.096225 0.643421 -0.972436
H32   H     H_    0.145314 0.059745 0.743784 0.262465
H33   H     H_    0.164258 0.017555 0.570640 0.260761
H34   H     H_    0.121424 0.167739 0.612046 0.280030
O12   O     O_3   0.761886 0.307159 0.362088 -0.645139
C48   C     C_3   0.763677 0.339577 0.224326 0.086863
H35   H     H_    0.828025 0.313413 0.175606 0.133705
H36   H     H_    0.756867 0.442048 0.208637 0.162096
C49   C     C_3   0.686199 0.268908 0.154861 -0.303346
H37   H     H_    0.692820 0.166492 0.163767 0.231272
H38   H     H_    0.621555 0.292387 0.203704 0.263220
C50   C     C_3   0.685044 0.303321 0.006816 -0.941337
H39   H     H_    0.675511 0.404855 0.995271 0.265982
H40   H     H_    0.628997 0.249507 0.958317 0.275740
H41   H     H_    0.749447 0.281205 0.955991 0.259175
O13   O     O_3   0.237370 0.687199 0.643878 -0.640209
C51   C     C_3   0.234146 0.663068 0.783263 0.111687
H42   H     H_    0.276711 0.584463 0.806937 0.163631
H43   H     H_    0.164657 0.637736 0.822155 0.089875
C52   C     C_3   0.267644 0.780385 0.858663 -0.392928
H44   H     H_    0.224749 0.859131 0.837008 0.216103
H45   H     H_    0.261900 0.760527 0.967450 0.171129
C53   C     C_3   0.365274 0.818713 0.821845 -0.718566
H46   H     H_    0.408400 0.739378 0.838185 0.266107
H47   H     H_    0.388850 0.898017 0.886142 0.224241
H48   H     H_    0.371670 0.848790 0.715570 0.262615

loop_
_geom_bond_atom_site_label_1
_geom_bond_atom_site_label_2
_ccdc_geom_bond_type
O5    Zn1   S    
C23   O5    A    
C16   F1    S    
C32   H7    S    
C35   C36   A    
C22   O10   S    
C31   N1    A    
C52   H44   S    
C47   H34   S    
C7    C8    A    
C51   H43   S    
C42   H21   S    
C23   O6    A    
C26   C27   A    
C13   O13   S    
C29   N2    A    
C44   H25   S    
C18   C24   A    
C36   C37   A    
C37   C38   A    
C18   C19   A    
C53   H47   S    
C5    C6    A    
C50   H39   S    
C15   C16   A    
O7    Zn1   S    
C34   C35   A    
O8    Zn2   S    
O13   C51   S    
C46   H30   S    
C14   H1    S    
C27   H6    S    
C19   C20   A    
C16   C17   A    
C39   H15   S    
O2    Zn2   S    
C28   O11   S    
C23   C24   S    
C6    C38   A    
C45   H29   S    
C2    C34   A    
C21   C22   A    
C51   C52   S    
C43   C44   S    
C48   H36   S    
C26   H5    S    
O4    Zn2   S    
C42   H22   S    
C31   F2    S    
O10   C42   S    
C43   H24   S    
C53   H48   S    
C41   H19   S    
C40   H16   S    
O1    Zn1   S    
C25   C26   A    
C48   C49   S    
C49   C50   S    
C1    O1    A    
C29   C30   A    
N2    Zn1   S    
C2    C38   A    
O12   C48   S    
C7    C13   A    
C39   C40   S    
C34   O9    S    
C17   C18   A    
C8    C9    A    
C49   H38   S    
C20   C21   A    
C45   C46   S    
C12   O3    A    
C12   O4    A    
C33   O8    A    
C44   H26   S    
C33   O7    A    
C10   H10   S    
C22   C24   A    
C3    C4    A    
C32   N2    A    
C21   H13   S    
C42   C43   S    
C25   C30   A    
C30   N1    A    
C28   C29   A    
C1    C20   S    
C51   H42   S    
C14   C19   A    
C31   C32   A    
C9    H12   S    
C43   H23   S    
N1    Zn2   S    
C25   H4    S    
C41   H20   S    
C52   H45   S    
C11   C12   S    
C47   H33   S    
C6    C7    A    
C3    H8    S    
O6    Zn2   S    
O9    C39   S    
C1    O2    A    
C5    C10   A    
C53   H46   S    
C11   C13   A    
C46   H31   S    
C50   H40   S    
C40   C41   S    
C4    C5    A    
C48   H35   S    
C33   C35   S    
C36   O12   S    
O3    Zn1   S    
C46   C47   S    
C17   H3    S    
C15   H2    S    
C52   C53   S    
C10   C11   A    
C41   H18   S    
C44   H27   S    
O11   C45   S    
C3    C37   A    
C40   H17   S    
C39   H14   S    
C49   H37   S    
C14   C15   A    
C45   H28   S    
C2    C9    A    
C8    H11   S    
C4    H9    S    
C47   H32   S    
C27   C28   A    
C50   H41   S    
