data_mof_unit_21141.cif
_audit_creation_date              2012-12-11T20:41:39-0500
_audit_creation_method            fapswitch 2.2
_symmetry_space_group_name_H-M    P1
_symmetry_Int_Tables_number       1
_space_group_crystal_system       triclinic
_cell_length_a                    8.235662
_cell_length_b                    18.868676
_cell_length_c                    27.009322
_cell_angle_alpha                 97.054578
_cell_angle_beta                  92.484763
_cell_angle_gamma                 86.289911
_cell_volume                      4153.98071458

loop_
_atom_site_label
_atom_site_type_symbol
_atom_type_description
_atom_site_fract_x
_atom_site_fract_y
_atom_site_fract_z
_atom_type_partial_charge
Ba1   Ba    Ba6+2 0.852670 0.466460 0.522850 1.659509
Ba2   Ba    Ba6+2 0.337150 0.533490 0.477140 1.650558
C1    C     C_3   0.575456 0.222173 0.663273 -0.360202
C2    C     C_R   0.917170 0.569393 0.178508 0.573368
C3    C     C_2   0.761256 0.545564 0.272533 -0.087475
C4    C     C_3   0.119026 0.267518 0.650624 0.317498
C5    C     C_3   0.745443 0.569712 0.327466 -0.045998
C6    C     C_1   0.981347 0.488513 0.342440 0.028223
C7    C     C_2   0.021185 0.484281 0.294587 -0.107815
C8    C     C_2   0.903215 0.512419 0.256051 0.196717
C9    C     C_R   0.020865 0.504212 0.101388 -0.079566
C10   C     C_R   0.048010 0.443050 0.126477 -0.036925
C11   C     C_R   0.113887 0.379991 0.100004 -0.059053
C12   C     C_3   0.577939 0.293206 0.642160 0.372320
C13   C     C_R   0.954794 0.567597 0.127825 -0.024619
C14   C     C_2   0.850184 0.525434 0.360330 -0.290420
C15   C     C_2   0.351524 0.482995 0.641235 -0.278899
C16   C     C_3   0.042735 0.247940 0.696962 -0.344299
C17   C     C_R   0.165795 0.435955 0.972115 0.019713
C18   C     C_R   0.067694 0.562592 0.973911 0.020354
C19   C     C_R   0.135998 0.498415 0.947599 0.050178
C20   C     C_R   0.234173 0.373659 0.943973 -0.098216
C21   C     C_R   0.271597 0.372739 0.894005 -0.061409
C22   C     C_R   0.243168 0.433808 0.869450 -0.034403
C23   C     C_3   0.519635 0.645835 0.629997 0.301644
C24   C     C_R   0.175039 0.496781 0.896169 -0.078232
C25   C     C_R   0.146099 0.558225 0.871448 -0.033333
C26   C     C_R   0.186930 0.556301 0.820926 0.586035
C27   C     C_R   0.281529 0.433160 0.818689 0.591590
C28   C     C_3   0.183274 0.317958 0.416625 0.308823
C29   C     C_2   0.453686 0.479294 0.729181 -0.079462
C30   C     C_3   0.499350 0.487511 0.676328 -0.067767
C31   C     C_1   0.212059 0.513435 0.657183 0.046340
C32   C     C_2   0.171360 0.513526 0.704317 -0.083776
C33   C     C_2   0.297433 0.493952 0.743152 0.214980
C34   C     C_3   0.508297 0.672504 0.685305 -0.372023
C35   C     C_R   0.126699 0.437757 0.023532 0.019505
C36   C     C_R   0.059440 0.502126 0.049864 0.049879
C37   C     C_R   0.030179 0.564556 0.025301 0.020174
C38   C     C_R   0.152387 0.377285 0.049938 -0.098373
C39   C     C_R   0.927683 0.628621 0.103232 -0.059058
C40   C     C_3   0.198891 0.237104 0.403855 -0.356987
C41   C     C_R   0.039075 0.622943 0.947564 -0.099734
C42   C     C_R   0.077610 0.620700 0.897746 -0.060946
C43   C     C_R   0.964285 0.627298 0.053387 -0.101224
C44   C     C_2   0.410263 0.300697 0.521279 -0.246119
C45   C     C_3   0.077246 0.682654 0.342200 0.368323
C46   C     C_3   0.327158 0.253296 0.552111 -0.069069
C47   C     C_2   0.363439 0.174418 0.536604 -0.120201
C48   C     C_2   0.490381 0.151474 0.507254 -0.064951
C49   C     C_2   0.580572 0.205998 0.485361 -0.127218
C50   C     C_1   0.530454 0.274695 0.492133 0.061363
C51   C     C_R   0.647701 0.932729 0.489447 0.480994
C52   C     C_3   0.011767 0.682788 0.583275 0.304958
C53   C     C_R   0.543716 0.073904 0.499167 0.463098
C54   C     C_R   0.613564 0.807452 0.507691 -0.135717
C55   C     C_R   0.664283 0.734989 0.504784 0.043183
C56   C     C_3   0.092553 0.701154 0.289449 -0.271854
C57   C     C_R   0.900317 0.756462 0.460092 0.011046
C58   C     C_R   0.851050 0.829581 0.462680 -0.066807
C59   C     C_R   0.704289 0.855656 0.485768 -0.041689
C60   C     C_R   0.802411 0.709457 0.479018 -0.279652
C61   C     C_3   0.994800 0.763490 0.597064 -0.375980
C62   C     C_3   0.667413 0.378606 0.372414 0.301608
C63   C     C_3   0.659885 0.361270 0.315905 -0.352733
C64   C     C_3   0.545741 0.725199 0.363276 0.425150
C65   C     C_3   0.526751 0.795293 0.339847 0.576642
C66   C     C_R   0.007942 0.446022 0.177425 0.598126
H1    H     H_    0.637508 0.282871 0.605589 0.063253
H2    H     H_    0.793260 0.390484 0.384792 0.007095
H3    H     H_    0.583738 0.426142 0.382719 0.075179
H4    H     H_    0.701682 0.199903 0.669503 0.129314
H5    H     H_    0.747062 0.315468 0.304285 0.135935
H6    H     H_    0.691745 0.408161 0.298149 0.069097
H7    H     H_    0.534810 0.347367 0.302922 0.134466
H8    H     H_    0.450868 0.315602 0.637601 -0.087341
H9    H     H_    0.510717 0.183191 0.636636 0.065625
H10   H     H_    0.395743 0.633127 0.615169 0.028738
H11   H     H_    0.602546 0.596831 0.625505 0.034799
H12   H     H_    0.285979 0.222332 0.373495 0.124745
H13   H     H_    0.432209 0.723485 0.690325 0.140160
H14   H     H_    0.451442 0.632750 0.704973 0.076682
H15   H     H_    0.631859 0.681535 0.702091 0.125522
H16   H     H_    0.512525 0.229878 0.699261 0.133337
H17   H     H_    0.130948 0.255004 0.729217 0.102476
H18   H     H_    0.151793 0.632275 0.346069 0.078166
H19   H     H_    0.947595 0.674608 0.347795 -0.061440
H20   H     H_    0.210599 0.724483 0.285282 0.176539
H21   H     H_    0.087339 0.651757 0.262850 0.098331
H22   H     H_    0.992271 0.740191 0.280328 0.127968
H23   H     H_    0.243690 0.211598 0.437072 0.076677
H24   H     H_    0.678180 0.709655 0.365137 -0.121155
H25   H     H_    0.501080 0.734124 0.401926 0.044432
H26   H     H_    0.144632 0.325264 0.657077 0.027919
H27   H     H_    0.552355 0.783230 0.299437 0.058437
H28   H     H_    0.140564 0.461900 0.283383 0.129387
H29   H     H_    0.136355 0.331889 0.118030 0.123638
H30   H     H_    0.548806 0.467894 0.756687 0.095922
H31   H     H_    0.323815 0.323426 0.874560 0.119563
H32   H     H_    0.261152 0.324097 0.959366 0.069279
H33   H     H_    0.202182 0.326348 0.033067 0.070066
H34   H     H_    0.078273 0.216770 0.391551 0.138985
H35   H     H_    0.669215 0.564733 0.246573 0.116512
H36   H     H_    0.877409 0.678392 0.122588 0.124445
H37   H     H_    0.986356 0.673472 0.964116 0.070039
H38   H     H_    0.234235 0.234104 0.645546 -0.024368
H39   H     H_    0.053158 0.668768 0.879782 0.123341
H40   H     H_    0.048070 0.529548 0.715375 0.118739
H41   H     H_    0.939328 0.677143 0.038261 0.070283
H42   H     H_    0.834847 0.536954 0.400271 0.082673
H43   H     H_    0.359403 0.455021 0.603733 0.068643
H44   H     H_    0.296580 0.136926 0.553990 0.098632
H45   H     H_    0.891835 0.662903 0.571054 0.006039
H46   H     H_    0.685748 0.188856 0.463039 0.109639
H47   H     H_    0.505776 0.826111 0.528164 0.107511
H48   H     H_    0.927479 0.865602 0.447522 0.110339
H49   H     H_    0.384913 0.357982 0.529369 0.067094
H50   H     H_    0.932439 0.283169 0.705808 0.165446
H51   H     H_    0.840958 0.653328 0.477410 0.058955
H52   H     H_    0.009960 0.191274 0.691024 0.110788
H53   H     H_    0.304605 0.337641 0.427192 -0.002209
H54   H     H_    0.101795 0.331200 0.448462 0.086022
H55   H     H_    0.632362 0.884550 0.343358 0.323688
H56   H     H_    0.097014 0.670601 0.552317 0.072874
H57   H     H_    0.354320 0.843986 0.380396 0.333500
H58   H     H_    0.904147 0.777249 0.626522 0.137181
H59   H     H_    0.954111 0.790247 0.564041 0.055523
H60   H     H_    0.114095 0.783643 0.611083 0.127096
N1    N     N_R   0.943410 0.508955 0.203254 -0.422043
N2    N     N_R   0.254177 0.494234 0.795025 -0.425586
N3    N     N_R   0.507463 0.955875 0.512587 -0.248080
N4    N     N_R   0.456840 0.024734 0.517406 -0.244089
N5    N     N_R   0.683415 0.050850 0.475505 -0.235124
N6    N     N_R   0.734300 0.981730 0.470706 -0.226891
O1    O     O_2   0.914730 0.537460 0.618690 -0.462315
O2    O     O_2   0.238752 0.752961 0.469461 -0.487567
O3    O     O_3   0.133001 0.738525 0.376490 -0.562985
O4    O     O_3   0.146720 0.537410 0.558510 -0.491212
O5    O     O_3   0.553920 0.415280 0.473710 -0.492942
O6    O     O_2   0.383540 0.672140 0.526840 -0.460911
O7    O     O_3   0.581076 0.699524 0.605855 -0.640234
O8    O     O_2   0.413442 0.534545 0.323194 -0.499522
O9    O     O_3   0.456466 0.672483 0.334431 -0.627766
O10   O     O_2   0.028407 0.392182 0.198408 -0.594385
O11   O     O_2   0.338132 0.378049 0.795484 -0.599889
O12   O     O_3   0.622057 0.319193 0.393674 -0.632188
O13   O     O_2   0.861787 0.625489 0.200692 -0.621991
O14   O     O_2   0.164540 0.610335 0.800178 -0.598404
O15   O     O_3   0.666360 0.409390 0.586570 -0.482536
O16   O     O_2   0.834684 0.447808 0.670745 -0.475798
O17   O     O_3   0.070097 0.651609 0.625406 -0.629263
O18   O     O_3   0.666137 0.340197 0.675418 -0.587090
O19   O     O_2   0.806150 0.327840 0.473120 -0.454645
O20   O     O_3   0.073640 0.373350 0.561550 -0.473094
O21   O     O_2   0.008346 0.246623 0.511286 -0.476295
O22   O     O_3   0.638970 0.843040 0.362797 -0.774139
O23   O     O_3   0.013500 0.253257 0.608732 -0.572573
O24   O     O_3   0.367504 0.826075 0.344561 -0.703659
O25   O     O_2   0.274960 0.462520 0.381280 -0.459750
O26   O     O_3   0.042980 0.462530 0.441480 -0.497056
O27   O     O_3   0.523340 0.590550 0.413420 -0.473082
O28   O     O_3   0.119915 0.348336 0.374685 -0.623549
O29   O     O_3   0.635780 0.584660 0.526290 -0.476130
O30   O     O_3   0.116060 0.626590 0.438450 -0.497967
P1    P     P_3+3 0.084800 0.558370 0.611580 0.998265
P2    P     P_3+3 0.628800 0.338360 0.458800 0.987464
P3    P     P_3+3 0.105615 0.280263 0.557505 0.966773
P4    P     P_3+3 0.104900 0.441570 0.388420 0.992516
P5    P     P_3+3 0.098166 0.719481 0.436693 0.964711
P6    P     P_3+3 0.665685 0.422607 0.652051 0.989641
P7    P     P_3+3 0.569143 0.674455 0.541325 0.952731
P8    P     P_3+3 0.533318 0.588607 0.348893 0.938734

loop_
_geom_bond_atom_site_label_1
_geom_bond_atom_site_label_2
_ccdc_geom_bond_type
C21   H31   S    
C19   C24   A    
C3    H35   S    
C40   H12   S    
C16   H52   S    
O19   P2    D    
C9    C36   A    
C65   O22   S    
O23   P3    S    
C14   H42   S    
C55   C60   A    
C54   C55   A    
C10   C11   A    
C10   C66   A    
C24   C25   A    
O4    P1    S    
Ba2   O5    S    
C6    P4    S    
C17   C19   A    
C22   C24   A    
O9    P8    S    
Ba1   Ba2   S    
C35   C38   A    
C27   O11   D    
C36   C37   A    
C43   H41   S    
C62   H3    S    
C52   C61   S    
C34   H15   S    
C52   H45   S    
C44   C50   D    
O7    P7    S    
C63   H5    S    
O25   P4    D    
C32   C33   S    
C41   H37   S    
C29   H30   S    
C22   C27   A    
C11   C38   A    
C52   H56   S    
C17   C35   A    
C50   P2    S    
C38   H33   S    
O27   P8    S    
C9    C13   A    
C25   C42   A    
C28   H54   S    
O21   P3    D    
Ba2   O25   S    
C4    H26   S    
C21   C22   A    
Ba1   O15   S    
C51   N3    A    
C62   H2    S    
O29   P7    S    
C7    C8    S    
C16   H50   S    
O3    P5    S    
C61   H60   S    
Ba1   O5    S    
C37   C43   A    
C64   C65   S    
O12   P2    S    
C57   C58   A    
C6    C14   D    
C5    P8    S    
C65   H27   S    
O30   P5    S    
C66   N1    Am   
C15   C31   D    
C15   H43   S    
Ba2   O27   S    
C31   C32   D    
H55   O22   S    
Ba1   O26   S    
O1    P1    D    
C4    C16   S    
C44   C46   S    
C26   O14   D    
C49   H46   S    
C20   H32   S    
O15   P6    S    
C16   H17   S    
C45   H18   S    
C17   C20   A    
C13   C39   A    
C34   H14   S    
C3    C5    S    
C18   C37   A    
Ba2   O30   S    
H57   O24   S    
C6    C7    D    
C64   H24   S    
C64   O9    S    
C53   N5    A    
C2    O13   D    
C63   H6    S    
C23   H10   S    
C44   H49   S    
C58   C59   A    
Ba2   O4    S    
O5    P2    S    
C41   C42   A    
C35   C36   A    
O18   P6    S    
C27   N2    Am   
C33   N2    S    
C28   H53   S    
Ba1   P1    S    
C34   H13   S    
C45   O3    S    
C48   C49   S    
C4    H38   S    
C23   O7    S    
C54   C59   A    
C18   C19   A    
Ba1   O19   S    
C56   H22   S    
C7    H28   S    
C60   H51   S    
C52   O17   S    
C1    C12   S    
C47   H44   S    
O28   P4    S    
C46   C47   S    
C53   N4    A    
O6    P7    D    
C64   H25   S    
N5    N6    A    
C12   H1    S    
C29   C33   D    
O20   P3    S    
C58   H48   S    
C28   O28   S    
C51   C59   S    
N3    N4    A    
C1    H9    S    
Ba2   P4    S    
C25   C26   A    
C4    O23   S    
O8    P8    D    
C42   H39   S    
C30   P6    S    
C5    C14   S    
C57   C60   A    
C62   O12   S    
C23   H11   S    
C29   C30   S    
C31   P1    S    
C51   N6    A    
C56   H20   S    
Ba2   O29   S    
C9    C10   A    
C2    N1    Am   
C48   C53   S    
C63   H7    S    
C39   H36   S    
Ba2   O6    S    
C62   C63   S    
C2    C13   A    
C1    H4    S    
C8    N1    S    
C32   H40   S    
C49   C50   D    
O17   P1    S    
C40   H34   S    
C45   C56   S    
O16   P6    D    
C46   P3    S    
Ba1   P2    S    
C57   P5    S    
C54   H47   S    
C66   O10   D    
C65   O24   S    
C26   N2    Am   
O26   P4    S    
C11   H29   S    
Ba1   O20   S    
C56   H21   S    
C18   C41   A    
C61   H58   S    
C23   C34   S    
C3    C8    D    
O2    P5    D    
Ba1   O29   S    
Ba2   O26   S    
C47   C48   D    
C12   O18   S    
C1    H16   S    
C15   C30   S    
C39   C43   A    
C20   C21   A    
C28   C40   S    
Ba1   O1    S    
C61   H59   S    
Ba1   O4    S    
C40   H23   S    
C12   H8    S    
C55   P7    S    
C45   H19   S    
