data_mof_unit_67827.cif
_audit_creation_date              2012-12-10T16:55:42-0500
_audit_creation_method            fapswitch 2.2
_symmetry_space_group_name_H-M    P1
_symmetry_Int_Tables_number       1
_space_group_crystal_system       triclinic
_cell_length_a                    7.84932
_cell_length_b                    8.642869
_cell_length_c                    10.510392
_cell_angle_alpha                 92.651771
_cell_angle_beta                  85.023967
_cell_angle_gamma                 93.286183
_cell_volume                      708.564876979

loop_
_atom_site_label
_atom_site_type_symbol
_atom_type_description
_atom_site_fract_x
_atom_site_fract_y
_atom_site_fract_z
_atom_type_partial_charge
Br1   Br    Br    0.043115 0.315040 0.343734 -0.353907
Br2   Br    Br    0.959121 0.681235 0.660797 -0.334798
Br3   Br    Br    0.758773 0.028130 0.608066 -0.422684
Br4   Br    Br    0.249692 0.970432 0.382797 -0.395214
C1    C     C_R   0.544528 0.794085 0.496733 0.941818
C2    C     C_3   0.500554 0.495922 0.876259 -0.252167
C3    C     C_3   0.332820 0.495310 0.051481 -0.376615
C4    C     C_3   0.664566 0.490822 0.947524 -0.483015
C5    C     C_2   0.564765 0.956388 0.513523 0.003929
C6    C     C_2   0.437392 0.043378 0.482872 0.027818
C7    C     C_3   0.788682 0.817885 0.997916 -0.164690
C8    C     C_3   0.411107 0.138369 0.838738 -0.199267
C9    C     C_3   0.280348 0.837808 0.034123 -0.212292
C10   C     C_3   0.808875 0.244317 0.076681 -0.199360
C11   C     C_R   0.455773 0.205779 0.501559 0.893220
C12   C     C_R   0.500720 0.500995 0.741982 0.947219
C13   C     C_R   0.498594 0.496788 0.257936 0.995596
C14   C     C_3   0.427867 0.621923 0.969354 0.456995
C15   C     C_3   0.568591 0.366081 0.032183 0.444499
C16   C     C_3   0.589319 0.618354 0.040280 0.429996
C17   C     C_3   0.409139 0.369341 0.958388 0.497061
C18   C     C_3   0.496121 0.493337 0.123349 -0.248269
H1    H     H_    0.199165 0.493273 0.095859 0.202266
H2    H     H_    0.181186 0.765930 0.089986 0.171434
H3    H     H_    0.213611 0.935580 0.000157 0.205968
H4    H     H_    0.855306 0.359965 0.114906 0.191044
H5    H     H_    0.869805 0.221346 0.978698 0.180614
H6    H     H_    0.849714 0.157282 0.140131 0.220046
H7    H     H_    0.796503 0.486312 0.900531 0.217685
H8    H     H_    0.716467 0.855872 0.919310 0.196851
H9    H     H_    0.890495 0.739700 0.960304 0.176272
H10   H     H_    0.855369 0.921129 0.040139 0.177373
H11   H     H_    0.488292 0.074162 0.900043 0.221095
H12   H     H_    0.496685 0.197316 0.764598 0.141112
H13   H     H_    0.327302 0.052342 0.788666 0.212603
H14   H     H_    0.379283 0.886969 0.096326 0.231282
N1    N     N_2   0.950320 0.457950 0.465730 0.089899
N2    N     N_2   0.049680 0.542050 0.534270 0.098222
O1    O     O_R   0.389250 0.738570 0.508410 -0.590311
O2    O     O_3   0.307224 0.242240 0.912709 -0.612071
O3    O     O_3   0.355934 0.754499 0.927367 -0.617966
O4    O     O_3   0.629365 0.229452 0.076359 -0.612260
O5    O     O_R   0.610750 0.261430 0.491590 -0.583853
O6    O     O_R   0.678390 0.711620 0.486450 -0.562633
O7    O     O_R   0.321610 0.288380 0.513550 -0.564419
O8    O     O_R   0.355460 0.513510 0.697030 -0.578310
O9    O     O_R   0.644540 0.486490 0.302970 -0.604467
O10   O     O_R   0.644600 0.486560 0.675070 -0.609986
O11   O     O_R   0.355400 0.513440 0.324930 -0.609070
O12   O     O_3   0.678629 0.748004 0.094255 -0.607159
Zn1   Zn    Zn3+2 0.306940 0.517990 0.514670 1.117735
Zn2   Zn    Zn3+2 0.693060 0.482010 0.485330 1.105133

loop_
_geom_bond_atom_site_label_1
_geom_bond_atom_site_label_2
_ccdc_geom_bond_type
C8    O2    S    
O1    Zn1   S    
C1    C5    S    
O9    Zn2   S    
Br3   C5    S    
C10   H5    S    
C3    C18   S    
C5    C6    D    
Br2   N2    S    
C13   C18   S    
C15   O4    S    
Br1   N1    S    
C10   O4    S    
C3    C14   S    
O6    Zn2   S    
C9    O3    S    
C7    H9    S    
C7    O12   S    
C10   H4    S    
C8    H13   S    
C9    H3    S    
C4    C16   S    
C17   O2    S    
C3    H1    S    
C4    H7    S    
C15   C17   S    
N1    N2    D    
C16   C18   S    
C7    H10   S    
C14   C16   S    
C6    C11   S    
C1    O1    A    
C2    C14   S    
Br4   C6    S    
O5    Zn2   S    
C4    C15   S    
C11   O7    A    
C11   O5    A    
O10   Zn2   S    
C15   C18   S    
C12   O10   A    
C9    H2    S    
C9    H14   S    
C16   O12   S    
C14   O3    S    
C12   O8    A    
N1    Zn2   S    
O7    Zn1   S    
C2    C12   S    
C2    C4    S    
N2    Zn1   S    
C10   H6    S    
C8    H11   S    
C3    C17   S    
C2    C17   S    
C8    H12   S    
O8    Zn1   S    
C1    O6    A    
C13   O11   A    
C13   O9    A    
C7    H8    S    
O11   Zn1   S    
