data_mof_unit_65920.cif
_audit_creation_date              2012-12-10T19:41:22-0500
_audit_creation_method            fapswitch 2.2
_symmetry_space_group_name_H-M    P1
_symmetry_Int_Tables_number       1
_space_group_crystal_system       triclinic
_cell_length_a                    18.261103
_cell_length_b                    30.488459
_cell_length_c                    30.7111
_cell_angle_alpha                 89.978467
_cell_angle_beta                  90.302168
_cell_angle_gamma                 89.943423
_cell_volume                      17098.2463245

loop_
_atom_site_label
_atom_site_type_symbol
_atom_type_description
_atom_site_fract_x
_atom_site_fract_y
_atom_site_fract_z
_atom_type_partial_charge
C1    C     C_R   0.500764 0.689815 0.309821 0.872715
C2    C     C_R   0.448410 0.626014 0.592486 0.147159
C3    C     C_R   0.141034 0.749794 0.249929 0.913651
C4    C     C_R   0.358967 0.249934 0.749981 0.929492
C5    C     C_R   0.358963 0.250086 0.249988 0.933439
C6    C     C_R   0.641028 0.250124 0.749933 0.923987
C7    C     C_R   0.641037 0.249849 0.250002 0.935685
C8    C     C_3   0.579339 0.909489 0.193532 0.912819
C9    C     C_3   0.596797 0.903528 0.812654 0.906112
C10   C     C_3   0.991862 0.418483 0.200158 0.922833
C11   C     C_3   0.073013 0.408147 0.808974 0.918785
C12   C     C_3   0.959870 0.915567 0.697320 0.915569
C13   C     C_R   0.943108 0.123001 0.403925 0.148744
C14   C     C_3   0.107654 0.902937 0.316725 0.871261
C15   C     C_3   0.573238 0.411036 0.695120 0.915245
C16   C     C_3   0.569419 0.415314 0.305202 0.899335
C17   C     C_R   0.499851 0.939904 0.939948 0.894590
C18   C     C_R   0.500140 0.940058 0.060138 0.894563
C19   C     C_R   0.000041 0.439913 0.939706 0.884018
C20   C     C_R   0.000027 0.440463 0.060531 0.901043
C21   C     C_R   0.999773 0.940008 0.439846 0.888602
C22   C     C_R   0.000036 0.940120 0.560302 0.900601
C23   C     C_R   0.499854 0.439949 0.440067 0.887822
C24   C     C_R   0.054989 0.124134 0.594763 0.144443
C25   C     C_R   0.500160 0.440146 0.560207 0.894409
C26   C     C_R   0.499745 0.560054 0.439579 0.879144
C27   C     C_R   0.499976 0.560216 0.560100 0.882626
C28   C     C_R   0.999743 0.060177 0.439799 0.881653
C29   C     C_R   0.000225 0.060155 0.560194 0.879084
C30   C     C_R   0.999733 0.560171 0.939801 0.880192
C31   C     C_R   0.000228 0.560155 0.060203 0.879577
C32   C     C_R   0.499753 0.060061 0.939587 0.882309
C33   C     C_R   0.499977 0.060220 0.060098 0.883272
C34   C     C_R   0.499276 0.810050 0.190051 0.873815
C35   C     C_R   0.943692 0.623416 0.904369 0.147637
C36   C     C_R   0.499523 0.810032 0.809905 0.876433
C37   C     C_R   0.000710 0.310171 0.189895 0.879841
C38   C     C_R   0.998598 0.310075 0.809979 0.868563
C39   C     C_R   0.000818 0.810159 0.689956 0.897265
C40   C     C_R   0.001770 0.810063 0.309880 0.855174
C41   C     C_R   0.499181 0.310053 0.690035 0.874475
C42   C     C_R   0.500889 0.310176 0.309935 0.876450
C43   C     C_1   0.282411 0.749642 0.249939 -0.206474
C44   C     C_1   0.282409 0.750249 0.749930 -0.191750
C45   C     C_1   0.717573 0.750218 0.249944 -0.189685
C46   C     C_R   0.055468 0.623840 0.095087 0.145597
C47   C     C_1   0.717584 0.749743 0.750099 -0.180524
C48   C     C_1   0.782422 0.249613 0.250002 -0.197487
C49   C     C_1   0.782408 0.250233 0.749919 -0.202848
C50   C     C_1   0.217576 0.250260 0.249945 -0.191874
C51   C     C_1   0.217586 0.249826 0.750126 -0.197882
C52   C     C_1   0.782419 0.749703 0.750019 -0.200559
C53   C     C_1   0.782409 0.750195 0.249923 -0.207976
C54   C     C_1   0.217573 0.750257 0.749948 -0.194114
C55   C     C_1   0.217577 0.749611 0.249947 -0.195215
C56   C     C_1   0.282418 0.249811 0.750036 -0.200224
C57   C     C_R   0.438248 0.118642 0.899192 0.154847
C58   C     C_1   0.282412 0.250256 0.249930 -0.196916
C59   C     C_1   0.717573 0.250252 0.749930 -0.193332
C60   C     C_1   0.717582 0.249565 0.250008 -0.200527
C61   C     C_R   0.439302 0.651154 0.368255 0.104880
C62   C     C_R   0.449231 0.658124 0.623845 0.112084
C63   C     C_R   0.944296 0.155359 0.372829 0.107943
C64   C     C_R   0.053791 0.156444 0.625889 0.109541
C65   C     C_R   0.944894 0.655758 0.873260 0.108411
C66   C     C_R   0.054274 0.656161 0.126202 0.110991
C67   C     C_R   0.439308 0.151131 0.868237 0.105319
C68   C     C_R   0.448319 0.125970 0.092537 0.148198
C69   C     C_R   0.449137 0.158079 0.123896 0.113651
C70   C     C_R   0.500003 0.656002 0.341639 -0.075242
C71   C     C_R   0.499295 0.655914 0.658064 -0.086119
C72   C     C_R   0.999549 0.156003 0.341864 -0.083744
C73   C     C_R   0.000575 0.155942 0.658109 -0.082631
C74   C     C_R   0.999452 0.655967 0.841854 -0.081190
C75   C     C_R   0.000564 0.655944 0.158128 -0.085533
C76   C     C_R   0.500039 0.156013 0.841649 -0.073179
C77   C     C_R   0.499308 0.155920 0.158063 -0.088914
C78   C     C_R   0.555417 0.624171 0.341902 -0.211712
C79   C     C_3   0.401659 0.647677 0.431713 -0.493483
C80   C     C_R   0.543058 0.618396 0.663452 -0.210169
C81   C     C_R   0.048685 0.120758 0.338898 -0.206215
C82   C     C_R   0.953804 0.119684 0.662096 -0.215676
C83   C     C_R   0.047685 0.620301 0.838488 -0.213466
C84   C     C_R   0.953259 0.619917 0.161899 -0.215716
C85   C     C_R   0.555540 0.124238 0.841966 -0.217044
C86   C     C_R   0.543205 0.118454 0.163402 -0.209484
C87   C     C_R   0.555181 0.591763 0.373846 -0.216882
C88   C     C_R   0.543670 0.586469 0.631064 -0.223694
C89   C     C_R   0.048803 0.088629 0.371106 -0.213790
C90   C     C_3   0.435237 0.658384 0.556788 -0.526180
C91   C     C_R   0.953589 0.087597 0.629857 -0.225323
C92   C     C_R   0.047822 0.588179 0.870706 -0.223645
C93   C     C_R   0.953059 0.587823 0.129666 -0.221871
C94   C     C_R   0.555314 0.091840 0.873918 -0.216982
C95   C     C_R   0.543816 0.086529 0.131013 -0.221626
C96   C     C_R   0.498348 0.590861 0.404410 -0.107247
C97   C     C_R   0.498826 0.591771 0.594301 -0.087417
C98   C     C_R   0.998200 0.091377 0.405161 -0.098494
C99   C     C_R   0.001788 0.091429 0.594710 -0.093406
C100  C     C_R   0.998127 0.591377 0.905185 -0.094835
C101  C     C_3   0.919173 0.154101 0.438636 -0.501988
C102  C     C_R   0.001799 0.591405 0.094756 -0.093938
C103  C     C_R   0.498394 0.090878 0.904427 -0.103386
C104  C     C_R   0.498835 0.091776 0.094300 -0.088236
C105  C     C_3   0.683408 0.864463 0.177330 0.035497
C106  C     C_3   0.762753 0.857620 0.191001 -0.762524
C107  C     C_3   0.687161 0.852127 0.837797 0.020811
C108  C     C_3   0.768188 0.842003 0.832689 -0.773573
C109  C     C_3   0.572576 0.951583 0.256718 0.154313
C110  C     C_3   0.518285 0.972249 0.287997 -0.852030
C111  C     C_3   0.612610 0.944418 0.749308 0.146044
C112  C     C_R   0.500845 0.689751 0.690106 0.872193
C113  C     C_3   0.074848 0.155699 0.559553 -0.504741
C114  C     C_3   0.570371 0.968667 0.713939 -0.857862
C115  C     C_3   0.121195 0.402306 0.194949 0.073423
C116  C     C_3   0.190808 0.422660 0.213281 -0.838549
C117  C     C_3   0.190427 0.373020 0.807733 0.040333
C118  C     C_3   0.262198 0.372353 0.782846 -0.760621
C119  C     C_3   0.945859 0.454943 0.260904 0.142871
C120  C     C_3   0.876080 0.463017 0.286505 -0.860890
C121  C     C_3   0.029970 0.448842 0.749642 0.162526
C122  C     C_3   0.959850 0.462804 0.726557 -0.863946
C123  C     C_3   0.090075 0.923981 0.706146 0.021606
C124  C     C_3   0.921137 0.654698 0.939248 -0.502471
C125  C     C_3   0.151596 0.902327 0.731908 -0.770236
C126  C     C_3   0.187769 0.843660 0.334134 0.002535
C127  C     C_3   0.267786 0.830129 0.332832 -0.742142
C128  C     C_3   0.891059 0.946883 0.752752 0.155716
C129  C     C_3   0.811824 0.955248 0.765199 -0.892888
C130  C     C_3   0.112400 0.896277 0.240656 0.185948
C131  C     C_3   0.065114 0.904029 0.200483 -0.829496
C132  C     C_3   0.681219 0.368468 0.681585 0.037424
C133  C     C_3   0.759468 0.362627 0.697796 -0.760535
C134  C     C_3   0.653100 0.385597 0.255021 0.128729
C135  C     C_3   0.076334 0.655299 0.059992 -0.505204
C136  C     C_3   0.729390 0.365883 0.251765 -0.809146
C137  C     C_3   0.559110 0.452868 0.758038 0.157663
C138  C     C_3   0.501257 0.472052 0.787962 -0.866799
C139  C     C_3   0.453714 0.430018 0.270929 0.053517
C140  C     C_3   0.420289 0.452524 0.231354 -0.811702
C141  C     C_3   0.401604 0.147629 0.931687 -0.495741
C142  C     C_3   0.434963 0.158330 0.056853 -0.526727
C143  C     C_3   0.402866 0.683546 0.397418 -0.487056
C144  C     C_3   0.435963 0.693816 0.591458 -0.457453
C145  C     C_3   0.920752 0.189884 0.404253 -0.470606
C146  C     C_3   0.073253 0.191428 0.593966 -0.468252
C147  C     C_3   0.922722 0.690464 0.904843 -0.474967
C148  C     C_R   0.000770 0.189791 0.309877 0.872027
C149  C     C_3   0.074747 0.691038 0.094396 -0.470099
C150  C     C_3   0.402817 0.183502 0.897399 -0.485823
C151  C     C_3   0.435682 0.193761 0.091525 -0.457933
C152  C     C_R   0.535686 0.881737 0.162359 0.009128
C153  C     C_R   0.541693 0.879506 0.839894 0.010071
C154  C     C_R   0.973649 0.385132 0.165517 0.054307
C155  C     C_R   0.052239 0.374994 0.843258 -0.075652
C156  C     C_R   0.959381 0.881350 0.662053 0.064889
C157  C     C_R   0.047774 0.878816 0.341182 -0.057897
C158  C     C_R   0.533625 0.382347 0.662921 0.009312
C159  C     C_R   0.999187 0.189769 0.690109 0.874205
C160  C     C_R   0.530529 0.384385 0.336103 -0.038839
C161  C     C_R   0.498289 0.842659 0.157026 -0.124724
C162  C     C_R   0.497871 0.842693 0.842726 -0.122252
C163  C     C_R   0.998606 0.342921 0.156464 -0.173634
C164  C     C_R   0.998798 0.342581 0.843251 -0.052856
C165  C     C_R   0.999538 0.842830 0.656580 -0.137795
C166  C     C_R   0.001259 0.842787 0.342692 -0.103655
C167  C     C_R   0.498401 0.342640 0.656950 -0.126339
C168  C     C_R   0.500070 0.343116 0.342809 -0.124404
C169  C     C_R   0.461087 0.835203 0.117387 -0.189157
C170  C     C_R   0.000774 0.689782 0.809878 0.872477
C171  C     C_R   0.453150 0.837599 0.879591 -0.191649
C172  C     C_R   0.017352 0.331927 0.113431 -0.199197
C173  C     C_R   0.951606 0.338446 0.878892 -0.190673
C174  C     C_R   0.033377 0.834319 0.616461 -0.206871
C175  C     C_R   0.952769 0.838771 0.377997 -0.175417
C176  C     C_R   0.463704 0.334556 0.616625 -0.187181
C177  C     C_R   0.467662 0.334099 0.383472 -0.177875
C178  C     C_R   0.461172 0.867576 0.085050 -0.220404
C179  C     C_R   0.452977 0.870012 0.911902 -0.218011
C180  C     C_R   0.018466 0.364353 0.081574 -0.230476
C181  C     C_R   0.999200 0.689772 0.190113 0.881036
C182  C     C_R   0.951828 0.370558 0.911095 -0.215034
C183  C     C_R   0.034044 0.866577 0.584444 -0.231181
C184  C     C_R   0.951198 0.871188 0.410193 -0.213288
C185  C     C_R   0.463816 0.366953 0.584315 -0.219087
C186  C     C_R   0.466560 0.366306 0.415854 -0.218537
C187  C     C_R   0.500312 0.906634 0.091980 -0.032608
C188  C     C_R   0.499198 0.906657 0.907799 -0.041621
C189  C     C_R   0.998984 0.407254 0.092632 -0.051537
C190  C     C_R   0.001148 0.405618 0.908157 -0.033623
C191  C     C_R   0.999031 0.906587 0.592274 -0.062721
C192  C     C_R   0.500775 0.189817 0.809823 0.873366
C193  C     C_R   0.998968 0.907137 0.407308 -0.044522
C194  C     C_R   0.500478 0.406709 0.592000 -0.030048
C195  C     C_R   0.499412 0.407032 0.407887 -0.027241
C196  C     C_R   0.537808 0.912136 0.130733 -0.022546
C197  C     C_R   0.543165 0.909927 0.871505 -0.019971
C198  C     C_R   0.970999 0.416530 0.133550 -0.010683
C199  C     C_R   0.054535 0.405739 0.875906 -0.002098
C200  C     C_R   0.957853 0.912542 0.629721 0.008241
C201  C     C_R   0.045626 0.909783 0.372251 -0.028538
C202  C     C_R   0.535857 0.412808 0.631362 -0.022925
C203  C     C_R   0.500844 0.189752 0.190107 0.879020
C204  C     C_R   0.530979 0.414679 0.367972 -0.043062
C205  C     C_3   0.581085 0.944377 0.156704 -0.640103
C206  C     C_3   0.597497 0.938607 0.849271 -0.627252
C207  C     C_3   0.987292 0.453463 0.164169 -0.674303
C208  C     C_3   0.077065 0.441876 0.845851 -0.613707
C209  C     C_3   0.957505 0.950252 0.660823 -0.699300
C210  C     C_3   0.101967 0.938363 0.352445 -0.472224
C211  C     C_3   0.575300 0.445977 0.658336 -0.645616
C212  C     C_3   0.568322 0.449378 0.342482 -0.524428
C213  C     C_R   0.358966 0.749877 0.249994 0.927248
C214  C     C_R   0.438238 0.618665 0.399210 0.153112
C215  C     C_R   0.358961 0.750077 0.749981 0.928344
C216  C     C_R   0.641029 0.750111 0.249943 0.924673
C217  C     C_R   0.641040 0.749959 0.750098 0.929532
C218  C     C_R   0.858969 0.249886 0.249993 0.937101
C219  C     C_R   0.858958 0.250082 0.749984 0.926153
C220  C     C_R   0.141028 0.250106 0.249954 0.916956
C221  C     C_R   0.141039 0.249970 0.750099 0.924193
C222  C     C_R   0.858969 0.749895 0.749998 0.935828
C223  C     C_R   0.858960 0.750071 0.249980 0.937273
C224  C     C_R   0.141027 0.750104 0.749956 0.915702
H1    H     H_    0.600340 0.625798 0.319044 0.152955
H2    H     H_    0.579883 0.558449 0.634153 0.154912
H3    H     H_    0.542281 0.944842 0.692207 0.263868
H4    H     H_    0.115644 0.412977 0.160549 0.141117
H5    H     H_    0.127973 0.366126 0.195615 0.159644
H6    H     H_    0.199956 0.411417 0.247286 0.263065
H7    H     H_    0.238459 0.412735 0.193221 0.211231
H8    H     H_    0.186195 0.458985 0.212886 0.253038
H9    H     H_    0.168408 0.339004 0.808178 0.144736
H10   H     H_    0.202027 0.384225 0.841545 0.141715
H11   H     H_    0.285912 0.405860 0.781604 0.253710
H12   H     H_    0.301714 0.350113 0.799368 0.218529
H13   H     H_    0.089122 0.062554 0.370096 0.160524
H14   H     H_    0.252721 0.360399 0.749122 0.259752
H15   H     H_    0.961865 0.486338 0.245048 0.134630
H16   H     H_    0.989516 0.444869 0.284258 0.185792
H17   H     H_    0.860215 0.432796 0.304302 0.267433
H18   H     H_    0.885147 0.489779 0.310445 0.212752
H19   H     H_    0.830972 0.472673 0.264057 0.262794
H20   H     H_    0.068524 0.435978 0.724787 0.181946
H21   H     H_    0.054341 0.478324 0.765453 0.129250
H22   H     H_    0.920380 0.476197 0.750536 0.262437
H23   H     H_    0.972220 0.488523 0.702070 0.209811
H24   H     H_    0.915033 0.060676 0.631726 0.158424
H25   H     H_    0.934696 0.434232 0.709773 0.260076
H26   H     H_    0.098205 0.960073 0.707395 0.155897
H27   H     H_    0.094476 0.912578 0.671914 0.154222
H28   H     H_    0.145385 0.866097 0.730888 0.257847
H29   H     H_    0.205282 0.911259 0.717607 0.205549
H30   H     H_    0.150286 0.913447 0.766330 0.255614
H31   H     H_    0.155419 0.819651 0.314848 0.128098
H32   H     H_    0.170130 0.843263 0.368765 0.157785
H33   H     H_    0.300834 0.851956 0.354170 0.245143
H34   H     H_    0.273818 0.795755 0.344295 0.205948
H35   H     H_    0.087473 0.561754 0.869367 0.158875
H36   H     H_    0.288390 0.832730 0.299000 0.271501
H37   H     H_    0.914645 0.978503 0.741168 0.129180
H38   H     H_    0.921619 0.935943 0.782239 0.176775
H39   H     H_    0.786291 0.924417 0.776753 0.301304
H40   H     H_    0.809269 0.980072 0.791593 0.210288
H41   H     H_    0.780792 0.967606 0.736510 0.246880
H42   H     H_    0.114651 0.860390 0.246831 0.167543
H43   H     H_    0.168715 0.908245 0.233891 0.170161
H44   H     H_    0.063446 0.939570 0.192594 0.253648
H45   H     H_    0.088227 0.885921 0.172349 0.197863
H46   H     H_    0.914087 0.561107 0.131344 0.159445
H47   H     H_    0.008515 0.892217 0.206414 0.262456
H48   H     H_    0.683329 0.382192 0.648066 0.142762
H49   H     H_    0.654795 0.335641 0.680891 0.144087
H50   H     H_    0.759486 0.348987 0.731334 0.265126
H51   H     H_    0.789290 0.339712 0.676073 0.212283
H52   H     H_    0.788164 0.394733 0.698008 0.246653
H53   H     H_    0.648651 0.412442 0.230595 0.182718
H54   H     H_    0.612583 0.359685 0.247330 0.187773
H55   H     H_    0.737331 0.340749 0.277526 0.262228
H56   H     H_    0.736586 0.350328 0.219376 0.217707
H57   H     H_    0.600233 0.068649 0.875621 0.162321
H58   H     H_    0.771307 0.391890 0.255857 0.277540
H59   H     H_    0.585338 0.480430 0.740141 0.129302
H60   H     H_    0.601008 0.436042 0.778508 0.184077
H61   H     H_    0.474776 0.445468 0.806942 0.260927
H62   H     H_    0.527053 0.495649 0.810898 0.210612
H63   H     H_    0.458912 0.489476 0.768435 0.261958
H64   H     H_    0.435136 0.447874 0.300417 0.142221
H65   H     H_    0.432699 0.395888 0.271878 0.171348
H66   H     H_    0.436373 0.434941 0.201207 0.253047
H67   H     H_    0.359641 0.452401 0.233875 0.209608
H68   H     H_    0.580132 0.058552 0.134061 0.154692
H69   H     H_    0.439592 0.487005 0.229497 0.260554
H70   H     H_    0.345512 0.636265 0.439682 0.207465
H71   H     H_    0.380724 0.653946 0.541131 0.208981
H72   H     H_    0.437263 0.654864 0.460229 0.195419
H73   H     H_    0.579236 0.614997 0.691331 0.158244
H74   H     H_    0.482183 0.660650 0.533987 0.196125
H75   H     H_    0.863092 0.146656 0.450418 0.211211
H76   H     H_    0.031085 0.159203 0.534497 0.191937
H77   H     H_    0.961112 0.158467 0.464633 0.191388
H78   H     H_    0.130559 0.149405 0.546538 0.210378
H79   H     H_    0.865165 0.647673 0.951454 0.210053
H80   H     H_    0.033006 0.659036 0.034705 0.191648
H81   H     H_    0.963711 0.658760 0.964924 0.191375
H82   H     H_    0.132148 0.648708 0.047277 0.210281
H83   H     H_    0.345461 0.136193 0.939631 0.208467
H84   H     H_    0.089045 0.119409 0.313192 0.158727
H85   H     H_    0.380425 0.153839 0.041244 0.209438
H86   H     H_    0.437167 0.154824 0.960220 0.195149
H87   H     H_    0.481844 0.160644 0.034010 0.195768
H88   H     H_    0.347409 0.692757 0.385416 0.200874
H89   H     H_    0.381764 0.709753 0.595990 0.201406
H90   H     H_    0.438988 0.711570 0.406180 0.218426
H91   H     H_    0.483042 0.716723 0.588527 0.216939
H92   H     H_    0.865583 0.203136 0.396221 0.204534
H93   H     H_    0.028433 0.215650 0.588895 0.216527
H94   H     H_    0.963740 0.215007 0.410276 0.217349
H95   H     H_    0.915175 0.117467 0.688667 0.155591
H96   H     H_    0.128039 0.205805 0.600777 0.202686
H97   H     H_    0.867668 0.704122 0.897214 0.200316
H98   H     H_    0.030368 0.715501 0.089087 0.216285
H99   H     H_    0.966344 0.715268 0.910540 0.216940
H100  H     H_    0.129642 0.705120 0.101507 0.202634
H101  H     H_    0.347361 0.192691 0.885385 0.203157
H102  H     H_    0.381451 0.209642 0.096109 0.201781
H103  H     H_    0.438906 0.211534 0.906181 0.218000
H104  H     H_    0.482687 0.216716 0.088551 0.216650
H105  H     H_    0.431233 0.805020 0.111791 0.161204
H106  H     H_    0.087408 0.618606 0.812453 0.156131
H107  H     H_    0.418092 0.809178 0.883059 0.158612
H108  H     H_    0.034346 0.299010 0.104861 0.173338
H109  H     H_    0.912596 0.311754 0.880660 0.152285
H110  H     H_    0.062066 0.803760 0.610714 0.167408
H111  H     H_    0.915828 0.811087 0.380339 0.156043
H112  H     H_    0.435641 0.303873 0.610462 0.162517
H113  H     H_    0.442569 0.302611 0.390013 0.162285
H114  H     H_    0.431500 0.862109 0.054891 0.143251
H115  H     H_    0.417928 0.866264 0.940014 0.147978
H116  H     H_    0.035815 0.356298 0.048841 0.144503
H117  H     H_    0.914233 0.617901 0.188279 0.156645
H118  H     H_    0.912925 0.368581 0.937538 0.154613
H119  H     H_    0.062750 0.860751 0.554197 0.151728
H120  H     H_    0.913805 0.867966 0.437278 0.153867
H121  H     H_    0.435982 0.361005 0.553635 0.141656
H122  H     H_    0.441214 0.359351 0.446923 0.138533
H123  H     H_    0.636147 0.950424 0.142732 0.195594
H124  H     H_    0.650007 0.941017 0.867542 0.195294
H125  H     H_    0.548717 0.974447 0.163685 0.197110
H126  H     H_    0.572960 0.970612 0.839727 0.198246
H127  H     H_    0.039380 0.470726 0.156953 0.189444
H128  H     H_    0.600508 0.125901 0.819141 0.149956
H129  H     H_    0.133441 0.453628 0.853011 0.190050
H130  H     H_    0.939369 0.475766 0.167120 0.204268
H131  H     H_    0.035142 0.468311 0.843796 0.188790
H132  H     H_    0.006061 0.971775 0.657353 0.167494
H133  H     H_    0.151358 0.941251 0.373583 0.195375
H134  H     H_    0.904752 0.968418 0.658954 0.214717
H135  H     H_    0.078571 0.970105 0.341142 0.189045
H136  H     H_    0.630846 0.453290 0.645694 0.194840
H137  H     H_    0.623172 0.457278 0.356267 0.213071
H138  H     H_    0.540610 0.475288 0.664526 0.197857
H139  H     H_    0.579480 0.115096 0.191242 0.158617
H140  H     H_    0.532812 0.478425 0.336683 0.170232
H141  H     H_    0.683004 0.877727 0.143597 0.142491
H142  H     H_    0.655523 0.832076 0.177941 0.144612
H143  H     H_    0.765394 0.844980 0.224887 0.266317
H144  H     H_    0.789262 0.833563 0.168970 0.211668
H145  H     H_    0.792940 0.889174 0.189292 0.246199
H146  H     H_    0.655998 0.821081 0.833766 0.152264
H147  H     H_    0.678907 0.865169 0.871222 0.146045
H148  H     H_    0.801194 0.871650 0.840200 0.239361
H149  H     H_    0.784445 0.815265 0.855331 0.206788
H150  H     H_    0.600035 0.568525 0.375507 0.166244
H151  H     H_    0.779514 0.831609 0.798770 0.283192
H152  H     H_    0.599451 0.978445 0.238127 0.129517
H153  H     H_    0.614639 0.933736 0.276187 0.184810
H154  H     H_    0.491353 0.946385 0.307713 0.263940
H155  H     H_    0.547296 0.995216 0.310200 0.208814
H156  H     H_    0.475865 0.990690 0.269480 0.263150
H157  H     H_    0.653978 0.923067 0.733356 0.193335
H158  H     H_    0.641113 0.969234 0.769905 0.132960
H159  H     H_    0.528927 0.990604 0.728888 0.261355
H160  H     H_    0.608648 0.988760 0.694281 0.209239
O1    O     O_R   0.500000 0.730040 0.321660 -0.627006
O2    O     O_R   0.500000 0.678320 0.730060 -0.624752
O3    O     O_3   0.563373 0.918553 0.773669 -0.606276
O4    O     O_3   0.061370 0.414254 0.221754 -0.636384
O5    O     O_3   0.140726 0.401604 0.786437 -0.645747
O6    O     O_3   0.933181 0.421307 0.230070 -0.623047
O7    O     O_3   0.013275 0.415708 0.780208 -0.606598
O8    O     O_3   0.022354 0.913197 0.725646 -0.626216
O9    O     O_3   0.180874 0.886062 0.316118 -0.651149
O10   O     O_3   0.893390 0.913591 0.720727 -0.617648
O11   O     O_3   0.082864 0.919781 0.276122 -0.629157
O12   O     O_3   0.643446 0.396564 0.710489 -0.643642
O13   O     O_R   0.000000 0.178320 0.269940 -0.621745
O14   O     O_3   0.643006 0.402254 0.297433 -0.637888
O15   O     O_3   0.525494 0.422492 0.729515 -0.608822
O16   O     O_3   0.531009 0.430214 0.267062 -0.650018
O17   O     O_R   0.000000 0.178320 0.730060 -0.624448
O18   O     O_R   0.000000 0.678320 0.769940 -0.624598
O19   O     O_R   0.000000 0.678320 0.230060 -0.622671
O20   O     O_R   0.500000 0.178320 0.769940 -0.622043
O21   O     O_R   0.500000 0.178320 0.230060 -0.623477
O22   O     O_R   0.392670 0.775850 0.275850 -0.630302
O23   O     O_R   0.392670 0.775850 0.724150 -0.621209
O24   O     O_R   0.607330 0.775850 0.275850 -0.608901
O25   O     O_R   0.500000 0.730040 0.678340 -0.628251
O26   O     O_R   0.607330 0.775850 0.724150 -0.605368
O27   O     O_R   0.892670 0.275850 0.275850 -0.615254
O28   O     O_R   0.892670 0.275850 0.724150 -0.624968
O29   O     O_R   0.107330 0.275850 0.275850 -0.617303
O30   O     O_R   0.107330 0.275850 0.724150 -0.613949
O31   O     O_R   0.892670 0.775850 0.775850 -0.623161
O32   O     O_R   0.892670 0.775850 0.224150 -0.622784
O33   O     O_R   0.107330 0.775850 0.775850 -0.621356
O34   O     O_R   0.107330 0.775850 0.224150 -0.637637
O35   O     O_R   0.392670 0.275850 0.775850 -0.629684
O36   O     O_R   0.000000 0.230040 0.321660 -0.627600
O37   O     O_R   0.392670 0.275850 0.224150 -0.622139
O38   O     O_R   0.607330 0.275850 0.775850 -0.609571
O39   O     O_R   0.607330 0.275850 0.224150 -0.635967
O40   O     O_R   0.392690 0.724130 0.224130 -0.617305
O41   O     O_R   0.392690 0.724130 0.775870 -0.620218
O42   O     O_R   0.607310 0.724130 0.224130 -0.624832
O43   O     O_R   0.607310 0.724130 0.775870 -0.629706
O44   O     O_R   0.892690 0.224130 0.224130 -0.617389
O45   O     O_R   0.892690 0.224130 0.775870 -0.622730
O46   O     O_R   0.107310 0.224130 0.224130 -0.623715
O47   O     O_R   0.000000 0.230040 0.678340 -0.627562
O48   O     O_R   0.107310 0.224130 0.775870 -0.620244
O49   O     O_R   0.892690 0.724130 0.724130 -0.616255
O50   O     O_R   0.892690 0.724130 0.275870 -0.618747
O51   O     O_R   0.107310 0.724130 0.724130 -0.623746
O52   O     O_R   0.107310 0.724130 0.275870 -0.617530
O53   O     O_R   0.392690 0.224130 0.724130 -0.618235
O54   O     O_R   0.392690 0.224130 0.275870 -0.617487
O55   O     O_R   0.607310 0.224130 0.724130 -0.624683
O56   O     O_R   0.607310 0.224130 0.275870 -0.617326
O57   O     O_R   0.500000 0.821650 0.230050 -0.579806
O58   O     O_R   0.000000 0.730040 0.821660 -0.627432
O59   O     O_R   0.500000 0.821650 0.769950 -0.581255
O60   O     O_R   0.000000 0.321650 0.230050 -0.583955
O61   O     O_R   0.000000 0.321650 0.769950 -0.574760
O62   O     O_R   0.000000 0.821650 0.730050 -0.572434
O63   O     O_R   0.000000 0.821650 0.269950 -0.621532
O64   O     O_R   0.500000 0.321650 0.730050 -0.580871
O65   O     O_R   0.500000 0.321650 0.269950 -0.650825
O66   O     O_R   0.500000 0.769930 0.178330 -0.635297
O67   O     O_R   0.500000 0.769930 0.821670 -0.636268
O68   O     O_R   0.000000 0.269930 0.178330 -0.629995
O69   O     O_R   0.000000 0.730040 0.178340 -0.623660
O70   O     O_R   0.000000 0.269930 0.821670 -0.635331
O71   O     O_R   0.000000 0.769930 0.678330 -0.632104
O72   O     O_R   0.000000 0.769930 0.321670 -0.626271
O73   O     O_R   0.500000 0.269930 0.678330 -0.634721
O74   O     O_R   0.500000 0.269930 0.321670 -0.619027
O75   O     O_R   0.439370 0.954170 0.954170 -0.627349
O76   O     O_R   0.439370 0.954170 0.045830 -0.625509
O77   O     O_R   0.560630 0.954170 0.954170 -0.624255
O78   O     O_R   0.560630 0.954170 0.045830 -0.624948
O79   O     O_R   0.939370 0.454170 0.954170 -0.625164
O80   O     O_R   0.500000 0.230040 0.821660 -0.627580
O81   O     O_R   0.939370 0.454170 0.045830 -0.617092
O82   O     O_R   0.060630 0.454170 0.954170 -0.620475
O83   O     O_R   0.060630 0.454170 0.045830 -0.630633
O84   O     O_R   0.939370 0.954170 0.454170 -0.624333
O85   O     O_R   0.939370 0.954170 0.545830 -0.615539
O86   O     O_R   0.060630 0.954170 0.454170 -0.626853
O87   O     O_R   0.060630 0.954170 0.545830 -0.631077
O88   O     O_R   0.439370 0.454170 0.454170 -0.630410
O89   O     O_R   0.439370 0.454170 0.545830 -0.624721
O90   O     O_R   0.560630 0.454170 0.454170 -0.618031
O91   O     O_R   0.500000 0.230040 0.178340 -0.624407
O92   O     O_R   0.560630 0.454170 0.545830 -0.623758
O93   O     O_R   0.439410 0.545780 0.454170 -0.621893
O94   O     O_R   0.439410 0.545780 0.545830 -0.620219
O95   O     O_R   0.560590 0.545780 0.454170 -0.624548
O96   O     O_R   0.560590 0.545780 0.545830 -0.622319
O97   O     O_R   0.939410 0.045780 0.454170 -0.618525
O98   O     O_R   0.939410 0.045780 0.545830 -0.623736
O99   O     O_R   0.060590 0.045780 0.454170 -0.625379
O100  O     O_R   0.060590 0.045780 0.545830 -0.621540
O101  O     O_R   0.939410 0.545780 0.954170 -0.619451
O102  O     O_R   0.500000 0.678320 0.269940 -0.621407
O103  O     O_R   0.939410 0.545780 0.045830 -0.623813
O104  O     O_R   0.060590 0.545780 0.954170 -0.624595
O105  O     O_R   0.060590 0.545780 0.045830 -0.621691
O106  O     O_R   0.439410 0.045780 0.954170 -0.620056
O107  O     O_R   0.439410 0.045780 0.045830 -0.619781
O108  O     O_R   0.560590 0.045780 0.954170 -0.625355
O109  O     O_R   0.560590 0.045780 0.045830 -0.622301
O110  O     O_3   0.649618 0.893446 0.207107 -0.643965
O111  O     O_3   0.665705 0.882422 0.805182 -0.654482
O112  O     O_3   0.534921 0.922047 0.229108 -0.606997
Zn1   Zn    Zn3+2 0.500000 0.784520 0.284530 0.982989
Zn2   Zn    Zn3+2 0.500000 0.715450 0.784540 0.949854
Zn3   Zn    Zn3+2 0.000000 0.215450 0.215460 0.959562
Zn4   Zn    Zn3+2 0.000000 0.215450 0.784540 0.951148
Zn5   Zn    Zn3+2 0.000000 0.715450 0.715460 0.956430
Zn6   Zn    Zn3+2 0.000000 0.715450 0.284540 0.951234
Zn7   Zn    Zn3+2 0.500000 0.215450 0.715460 0.953911
Zn8   Zn    Zn3+2 0.500000 0.215450 0.284540 0.958808
Zn9   Zn    Zn3+2 0.419100 0.999980 0.000000 0.956366
Zn10  Zn    Zn3+2 0.580900 0.999980 0.000000 0.947379
Zn11  Zn    Zn3+2 0.919100 0.499980 0.000000 0.958584
Zn12  Zn    Zn3+2 0.500000 0.784520 0.715470 0.988712
Zn13  Zn    Zn3+2 0.080900 0.499980 0.000000 0.949086
Zn14  Zn    Zn3+2 0.919100 0.999980 0.500000 0.959646
Zn15  Zn    Zn3+2 0.080900 0.999980 0.500000 0.947740
Zn16  Zn    Zn3+2 0.419100 0.499980 0.500000 0.953815
Zn17  Zn    Zn3+2 0.580900 0.499980 0.500000 0.955434
Zn18  Zn    Zn3+2 0.000000 0.284520 0.284530 0.989972
Zn19  Zn    Zn3+2 0.000000 0.284520 0.715470 0.975083
Zn20  Zn    Zn3+2 0.000000 0.784520 0.784530 0.980518
Zn21  Zn    Zn3+2 0.000000 0.784520 0.215470 0.926722
Zn22  Zn    Zn3+2 0.500000 0.284520 0.784530 0.978983
Zn23  Zn    Zn3+2 0.500000 0.284520 0.215470 0.933459
Zn24  Zn    Zn3+2 0.500000 0.715450 0.215460 0.955367

loop_
_geom_bond_atom_site_label_1
_geom_bond_atom_site_label_2
_ccdc_geom_bond_type
C34   O57   A    
C146  H93   S    
C52   C222  S    
C126  C127  S    
C11   O7    S    
C121  H20   S    
C7    C60   S    
C74   C83   A    
C34   C161  S    
C143  H88   S    
C10   C154  S    
C111  H158  S    
C4    O35   A    
C129  H41   S    
C215  O23   A    
C192  O20   A    
C47   C217  S    
C206  H126  S    
O66   Zn24  S    
C35   C124  S    
C210  H133  S    
C110  H155  S    
C12   O10   S    
C119  H16   S    
C184  C193  A    
C193  C201  A    
C109  O112  S    
O59   Zn12  S    
C2    C90   S    
C39   O71   A    
C114  H3    S    
C108  H149  S    
O46   Zn3   S    
C162  C171  A    
O19   Zn6   S    
C220  O29   A    
C222  O49   A    
C208  H129  S    
C132  O12   S    
C136  H58   S    
C223  O50   A    
C88   C97   A    
C21   O84   A    
C122  H22   S    
C36   O59   A    
C105  H141  S    
O88   Zn16  S    
C133  H52   S    
C4    C56   S    
C176  H112  S    
O85   Zn14  S    
O83   Zn13  S    
O106  Zn9   S    
C158  C167  A    
C124  C147  S    
O102  Zn24  S    
C84   C93   A    
C33   O109  A    
C29   C99   S    
C170  O18   A    
C136  H55   S    
C66   C149  S    
C12   O8    S    
C22   O85   A    
C20   C189  S    
C172  H108  S    
O61   Zn19  S    
O99   Zn15  S    
C179  C188  A    
C29   O100  A    
C112  O2    A    
C82   C91   A    
O33   Zn20  S    
C113  C146  S    
C39   C165  S    
C6    O38   A    
C160  C204  A    
C216  O24   A    
C186  C195  A    
C150  H101  S    
C206  H124  S    
C86   H139  S    
C13   C63   A    
C204  C212  S    
C219  O45   A    
C127  H34   S    
C219  O28   A    
O55   Zn7   S    
C128  H37   S    
C163  C172  A    
C31   O105  A    
C27   O96   A    
C8    O110  S    
C130  H43   S    
C30   O101  A    
C173  C182  A    
C113  H76   S    
C11   O5    S    
C171  H107  S    
C145  H94   S    
C15   O15   S    
O107  Zn9   S    
C139  H65   S    
C182  H118  S    
C91   H24   S    
C27   C97   S    
C64   C146  S    
C134  H53   S    
C200  C209  S    
C62   C144  S    
C132  H48   S    
C134  C136  S    
C139  C140  S    
C147  H97   S    
C47   C52   T    
C53   C223  S    
C116  H6    S    
C1    C70   S    
C112  O25   A    
C212  H137  S    
C80   C88   A    
C72   C148  S    
C140  H67   S    
C19   O79   A    
C108  H151  S    
C51   C221  S    
C139  H64   S    
C130  C131  S    
C120  H17   S    
C160  C168  A    
C208  H131  S    
C8    C205  S    
C86   C95   A    
C179  H115  S    
O98   Zn14  S    
C126  H32   S    
C40   O72   A    
C107  O111  S    
C151  H104  S    
C25   C194  S    
C216  O42   A    
C78   C87   A    
C16   O14   S    
C107  H146  S    
O31   Zn20  S    
C134  O14   S    
C33   C104  S    
C139  O16   S    
C69   C77   A    
O45   Zn4   S    
O41   Zn2   S    
C110  H154  S    
C38   O61   A    
C128  C129  S    
C170  O58   A    
C26   O93   A    
C96   C214  A    
C20   O81   A    
C101  C145  S    
O13   Zn3   S    
C5    C58   S    
C49   C219  S    
C156  C165  A    
C8    C152  S    
C12   C209  S    
C101  H75   S    
C180  C189  A    
C183  H119  S    
C154  C198  A    
C75   C84   A    
C17   C188  S    
C41   O73   A    
C115  C116  S    
C30   C100  S    
C18   C187  S    
C15   O12   S    
C27   O94   A    
C173  H109  S    
O50   Zn6   S    
C3    C55   S    
C118  H11   S    
C79   C143  S    
C10   O6    S    
C137  H60   S    
O58   Zn20  S    
O97   Zn14  S    
C64   C73   A    
O37   Zn23  S    
C68   C142  S    
C88   H2    S    
C129  H40   S    
C152  C161  A    
O105  Zn13  S    
C6    O55   A    
C23   O88   A    
C161  C169  A    
C90   H74   S    
O93   Zn16  S    
C45   C53   T    
C149  H100  S    
C116  H8    S    
C114  H159  S    
O56   Zn8   S    
C171  C179  A    
C40   O63   A    
C12   C156  S    
C10   C207  S    
O51   Zn5   S    
C141  C150  S    
C79   C214  S    
C26   C96   S    
C184  H120  S    
C152  C196  A    
O62   Zn20  S    
C191  C200  A    
C2    C97   A    
C15   C158  S    
O72   Zn6   S    
C140  H69   S    
O39   Zn23  S    
O70   Zn4   S    
C165  C174  A    
C213  O40   A    
C138  H63   S    
C65   C74   A    
C120  H19   S    
C130  H42   S    
C147  H99   S    
C76   C192  S    
C74   C170  S    
C221  O48   A    
C117  H9    S    
C117  O5    S    
C71   C112  S    
C142  H87   S    
C106  H144  S    
C151  H102  S    
C178  H114  S    
C80   H73   S    
O81   Zn11  S    
C7    O56   A    
C43   C55   T    
C16   O16   S    
O67   Zn2   S    
C1    O1    A    
O43   Zn2   S    
C149  H98   S    
C85   H128  S    
C37   O60   A    
C157  C201  A    
C35   C100  A    
C92   H35   S    
C155  C199  A    
C20   O83   A    
C30   O104  A    
C174  H110  S    
C198  C207  S    
C6    C59   S    
C75   C181  S    
O108  Zn10  S    
C111  H157  S    
C105  O110  S    
C207  H127  S    
C222  O31   A    
O94   Zn16  S    
C90   H71   S    
C182  C190  A    
C73   C159  S    
C49   C59   T    
C89   C98   A    
C34   O66   A    
O92   Zn17  S    
C137  O15   S    
C23   O90   A    
C116  H7    S    
C124  H79   S    
C159  O47   A    
C117  C118  S    
C192  O80   A    
C118  H14   S    
O32   Zn21  S    
O26   Zn12  S    
C132  H49   S    
C76   C85   A    
C218  O44   A    
C199  C208  S    
C62   C71   A    
C9    O3    S    
C125  H30   S    
C143  H90   S    
O71   Zn5   S    
C140  H66   S    
C215  O41   A    
C37   O68   A    
C44   C54   T    
C11   C208  S    
C23   C195  S    
C39   O62   A    
C21   C193  S    
C22   C191  S    
C63   C145  S    
C90   C144  S    
C135  H82   S    
O47   Zn19  S    
C122  H23   S    
C43   C213  S    
C61   C70   A    
O73   Zn7   S    
C209  H132  S    
O36   Zn18  S    
C187  C196  A    
C201  C210  S    
C185  C194  A    
C29   O98   A    
C197  C206  S    
C176  C185  A    
C48   C218  S    
O24   Zn1   S    
O18   Zn5   S    
C107  H147  S    
C166  C175  A    
O65   Zn23  S    
C205  H125  S    
C136  H56   S    
C46   C66   A    
C9    C206  S    
C138  H61   S    
C123  C125  S    
C16   C160  S    
C35   C65   A    
C145  H92   S    
C169  H105  S    
C168  C177  A    
C194  C202  A    
C142  H85   S    
C217  O43   A    
C41   O64   A    
C46   C135  S    
C61   C143  S    
O22   Zn1   S    
O44   Zn3   S    
C18   O76   A    
C68   C69   A    
C190  C199  A    
C127  H33   S    
C211  H138  S    
C128  H38   S    
C202  C211  S    
C207  H130  S    
C72   C81   A    
C203  O91   A    
C123  O8    S    
C81   C89   A    
C172  C180  A    
C78   H1    S    
C121  H21   S    
O86   Zn15  S    
C24   C64   A    
C135  H80   S    
C67   C150  S    
C36   C162  S    
C109  H153  S    
C185  H121  S    
C77   C203  S    
C42   C168  S    
C57   C103  A    
C65   C147  S    
C14   C157  S    
C50   C58   T    
C31   C102  S    
C89   H13   S    
O91   Zn23  S    
C14   O11   S    
C123  H26   S    
C177  H113  S    
C21   O86   A    
C25   O92   A    
C131  H44   S    
O68   Zn3   S    
C148  O13   A    
C109  H152  S    
C134  H54   S    
C105  H142  S    
O82   Zn13  S    
C79   H72   S    
C19   O82   A    
C54   C224  S    
O29   Zn18  S    
C146  H96   S    
C32   C103  S    
C120  H18   S    
C217  O26   A    
O23   Zn12  S    
C94   H57   S    
C178  C187  A    
C94   C103  A    
C5    O37   A    
C209  H134  S    
C155  C164  A    
O109  Zn10  S    
C73   C82   A    
C26   O95   A    
C7    O39   A    
O95   Zn17  S    
C28   C98   S    
C17   O75   A    
C128  O10   S    
C3    O34   A    
C218  O27   A    
O90   Zn17  S    
O104  Zn13  S    
C68   C104  A    
C31   O103  A    
C93   C102  A    
C32   O106  A    
C181  O19   A    
C119  C120  S    
O53   Zn7   S    
C195  C204  A    
C82   H95   S    
O74   Zn8   S    
C105  C106  S    
O34   Zn21  S    
C57   C141  S    
C153  C162  A    
C115  H4    S    
C109  C110  S    
C186  H122  S    
C188  C197  A    
C66   C75   A    
C50   C220  S    
C111  C114  S    
C8    O112  S    
O78   Zn10  S    
C119  O6    S    
C177  C186  A    
C148  O36   A    
C118  H12   S    
C131  H47   S    
C63   C72   A    
C137  H59   S    
C87   H150  S    
O60   Zn18  S    
C129  H39   S    
C174  C183  A    
C223  O32   A    
C175  C184  A    
C189  C198  A    
C142  C151  S    
C42   O65   A    
C3    O52   A    
C70   C78   A    
C24   C99   A    
C114  H160  S    
C14   O9    S    
O103  Zn11  S    
C119  H15   S    
C121  O7    S    
C83   C92   A    
C46   C102  A    
C83   H106  S    
O63   Zn21  S    
C111  O3    S    
C212  H140  S    
C144  H89   S    
C79   H70   S    
C42   O74   A    
C153  C197  A    
C5    O54   A    
C13   C98   A    
C45   C216  S    
O80   Zn22  S    
C28   O99   A    
O42   Zn24  S    
C51   C56   T    
C32   O108  A    
C196  C205  S    
C37   C163  S    
O69   Zn21  S    
O77   Zn10  S    
C220  O46   A    
O75   Zn9   S    
O49   Zn5   S    
C93   H46   S    
C132  C133  S    
C28   O97   A    
C15   C211  S    
C126  H31   S    
C40   C166  S    
C175  H111  S    
O48   Zn4   S    
O28   Zn19  S    
C17   O77   A    
C181  O69   A    
C24   C113  S    
C124  H81   S    
C156  C200  A    
C133  H51   S    
C57   C67   A    
C141  H83   S    
C71   C80   A    
C48   C60   T    
O25   Zn12  S    
C10   O4    S    
C115  H5    S    
C14   C210  S    
C211  H136  S    
C69   C151  S    
C154  C163  A    
C16   C212  S    
C44   C215  S    
C180  H116  S    
O27   Zn18  S    
C113  H78   S    
O57   Zn1   S    
C106  H145  S    
C135  C149  S    
O20   Zn7   S    
O17   Zn4   S    
O89   Zn16  S    
C210  H135  S    
C126  O9    S    
C123  H27   S    
O54   Zn8   S    
O100  Zn15  S    
C85   C94   A    
C25   O89   A    
C131  H45   S    
C107  C108  S    
C87   C96   A    
O87   Zn15  S    
C121  C122  S    
O101  Zn11  S    
C95   H68   S    
C224  O33   A    
C125  H29   S    
O40   Zn24  S    
O30   Zn19  S    
C203  O21   A    
C77   C86   A    
O21   Zn8   S    
C224  O51   A    
C221  O30   A    
C158  C202  A    
C61   C214  A    
O76   Zn9   S    
C13   C101  S    
C159  O17   A    
C169  C178  A    
C95   C104  A    
C92   C100  A    
C133  H50   S    
C110  H156  S    
C213  O22   A    
C101  H77   S    
C1    O102  A    
C125  H28   S    
C205  H123  S    
C144  H91   S    
C183  C191  A    
C157  C166  A    
C9    O111  S    
C38   O70   A    
C11   C155  S    
C4    O53   A    
C137  C138  S    
C138  H62   S    
C33   O107  A    
C18   O78   A    
C91   C99   A    
C22   O87   A    
C122  H25   S    
O2    Zn2   S    
C108  H148  S    
O1    Zn1   S    
C117  H10   S    
C130  O11   S    
C41   C167  S    
O35   Zn22  S    
C38   C164  S    
C115  O4    S    
C106  H143  S    
O38   Zn22  S    
O84   Zn14  S    
C164  C173  A    
O64   Zn22  S    
C36   O67   A    
C19   C190  S    
C9    C153  S    
C150  H103  S    
C84   H117  S    
C141  H86   S    
C127  H36   S    
O96   Zn17  S    
C67   C76   A    
O79   Zn11  S    
C2    C62   A    
C81   H84   S    
O52   Zn6   S    
C167  C176  A    
