data_mof_unit_25961.cif
_audit_creation_date              2013-03-05T15:50:30-0500
_audit_creation_method            fapswitch 2.2
_symmetry_space_group_name_H-M    P1
_symmetry_Int_Tables_number       1
_space_group_crystal_system       triclinic
_cell_length_a                    15.102703
_cell_length_b                    15.016598
_cell_length_c                    34.686945
_cell_angle_alpha                 91.132845
_cell_angle_beta                  91.71759
_cell_angle_gamma                 59.844496
_cell_volume                      6798.89968402

loop_
_atom_site_label
_atom_site_type_symbol
_atom_site_description
_atom_site_fract_x
_atom_site_fract_y
_atom_site_fract_z
_atom_type_partial_charge
O1    O     O_R   0.324990 0.503440 0.453910 -0.515533
O2    O     O_R   0.522030 0.339050 0.458320 -0.499708
C1    C     C_R   0.611103 0.302017 0.444183 0.544222
O3    O     O_R   0.676180 0.324490 0.458320 -0.516007
O4    O     O_R   0.643570 0.521510 0.464260 -0.494599
C2    C     C_R   0.593592 0.610619 0.449508 0.556607
O5    O     O_R   0.504630 0.675350 0.460920 -0.513163
O6    O     O_R   0.339850 0.642450 0.459830 -0.500566
C3    C     C_R   0.302556 0.592596 0.442567 0.545556
O7    O     O_R   0.321120 0.501280 0.538470 -0.514871
O8    O     O_R   0.518440 0.337050 0.536710 -0.500488
C4    C     C_R   0.605563 0.300532 0.553824 0.531548
O9    O     O_R   0.672300 0.322330 0.542880 -0.528210
O10   O     O_R   0.639980 0.519500 0.542640 -0.497545
C5    C     C_R   0.560632 0.585351 0.562033 0.562263
O11   O     O_R   0.500750 0.673190 0.545480 -0.512710
O12   O     O_R   0.336260 0.640450 0.538210 -0.519202
C6    C     C_R   0.298228 0.589173 0.551883 0.536623
Cr1   Cr    Cr6+3 0.426010 0.422500 0.497000 1.012392
Cr2   Cr    Cr6+3 0.651300 0.426310 0.501970 1.014396
Cr3   Cr    Cr6+3 0.422670 0.651170 0.501050 1.008732
O13   O     O_3   0.499990 0.499990 0.500010 -0.256840
C7    C     C_R   0.742164 0.718281 0.104195 0.024932
C8    C     C_R   0.660511 0.787468 0.127162 -0.118364
C9    C     C_R   0.664525 0.773505 0.166809 -0.112302
C10   C     C_R   0.749941 0.689921 0.184346 0.031585
C11   C     C_R   0.828877 0.617110 0.161260 -0.123032
C12   C     C_R   0.824901 0.631093 0.121416 -0.127422
C13   C     C_R   0.783354 0.584118 0.243311 -0.106945
C14   C     C_R   0.774282 0.577427 0.282866 -0.108947
C15   C     C_R   0.736898 0.665828 0.306355 0.027258
C16   C     C_R   0.715090 0.759628 0.290033 -0.119812
C17   C     C_R   0.724058 0.766320 0.250472 -0.126221
C18   C     C_R   0.754889 0.679344 0.226638 0.021655
C19   C     C_R   0.612652 0.737233 0.359820 -0.114414
C20   C     C_R   0.577006 0.723689 0.394604 -0.125225
C21   C     C_R   0.736309 0.563097 0.404412 -0.123197
C22   C     C_R   0.771874 0.576694 0.369681 -0.122157
C23   C     C_R   0.708905 0.661948 0.346427 0.031894
C24   C     C_R   0.637052 0.634548 0.416480 0.021046
H1    H     H_    0.595369 0.855252 0.114826 0.131679
H2    H     H_    0.888596 0.576204 0.104386 0.118293
H3    H     H_    0.846936 0.518416 0.360205 0.102376
H4    H     H_    0.790448 0.504368 0.294645 0.109660
H5    H     H_    0.806915 0.516157 0.225507 0.114778
H6    H     H_    0.601280 0.829080 0.183890 0.110465
H7    H     H_    0.687740 0.828409 0.307667 0.108615
H8    H     H_    0.704211 0.840125 0.238301 0.108942
H9    H     H_    0.562155 0.803284 0.342252 0.107800
H10   H     H_    0.500399 0.780177 0.403256 0.127836
H11   H     H_    0.895269 0.551629 0.174170 0.101397
H12   H     H_    0.784957 0.494223 0.420942 0.127281
C25   C     C_R   0.010624 0.766709 0.095813 0.016925
C26   C     C_R   0.022821 0.686340 0.119518 -0.112632
C27   C     C_R   0.026874 0.694485 0.159450 -0.100247
C28   C     C_R   0.019125 0.783145 0.176850 0.033228
C29   C     C_R   0.007811 0.863626 0.153341 -0.121860
C30   C     C_R   0.003103 0.855629 0.113097 -0.126553
C31   C     C_R   0.097272 0.816364 0.235905 -0.104892
C32   C     C_R   0.124098 0.799700 0.275060 -0.105764
C33   C     C_R   0.083873 0.753470 0.298360 0.028995
C34   C     C_R   0.010368 0.731502 0.282342 -0.113912
C35   C     C_R   0.983823 0.747919 0.243176 -0.117209
C36   C     C_R   0.030137 0.786670 0.219308 0.024886
C37   C     C_R   0.151199 0.619795 0.350189 -0.111089
C38   C     C_R   0.205034 0.580145 0.384948 -0.125482
C39   C     C_R   0.207877 0.738301 0.396340 -0.125546
C40   C     C_R   0.153926 0.777962 0.361644 -0.121723
C41   C     C_R   0.127120 0.718237 0.337744 0.033473
C42   C     C_R   0.236076 0.638056 0.407938 0.019302
H13   H     H_    0.028266 0.616991 0.107239 0.130726
H14   H     H_    0.992659 0.919136 0.095569 0.129274
H15   H     H_    0.135225 0.854537 0.353064 0.099630
H16   H     H_    0.181550 0.816712 0.286443 0.107945
H17   H     H_    0.134580 0.845708 0.218131 0.112268
H18   H     H_    0.037868 0.630289 0.176755 0.116202
H19   H     H_    0.976396 0.697920 0.299762 0.112031
H20   H     H_    0.930460 0.726067 0.231129 0.116509
H21   H     H_    0.132857 0.571277 0.332173 0.110687
H22   H     H_    0.225590 0.502714 0.393075 0.126281
H23   H     H_    0.001646 0.932878 0.166096 0.096714
H24   H     H_    0.229794 0.785342 0.413588 0.124480
C43   C     C_R   0.723710 0.098726 0.087231 0.022304
C44   C     C_R   0.794389 0.119059 0.106938 -0.127859
C45   C     C_R   0.780386 0.148845 0.145636 -0.107505
C46   C     C_R   0.694499 0.160867 0.164699 0.072537
C47   C     C_R   0.619815 0.148842 0.144236 -0.068515
C48   C     C_R   0.634071 0.118360 0.105739 -0.117637
C49   C     C_R   0.599682 0.255387 0.224161 0.217662
C50   C     C_R   0.591432 0.255588 0.264269 -0.099358
C51   C     C_R   0.669561 0.178393 0.287140 -0.017029
C52   C     C_R   0.757236 0.100054 0.269654 -0.132459
C53   C     C_R   0.765933 0.097987 0.229780 -0.163360
C54   C     C_R   0.687589 0.174576 0.206755 0.005764
C55   C     C_R   0.744234 0.177403 0.352172 -0.114555
C56   C     C_R   0.730110 0.207105 0.390829 -0.124193
C57   C     C_R   0.554440 0.244021 0.385498 -0.127479
C58   C     C_R   0.568563 0.214560 0.346809 -0.122978
C59   C     C_R   0.662016 0.185854 0.329444 0.033055
C60   C     C_R   0.633551 0.245623 0.407265 0.020446
H25   H     H_    0.863793 0.105266 0.093337 0.122642
H26   H     H_    0.577971 0.103852 0.091263 0.126869
H27   H     H_    0.504726 0.219693 0.329880 0.109987
H28   H     H_    0.525449 0.318514 0.277890 0.149494
H29   H     H_    0.838524 0.158199 0.161169 0.106266
H30   H     H_    0.818409 0.039863 0.286804 0.122606
H31   H     H_    0.832868 0.034772 0.216705 0.120147
H32   H     H_    0.817048 0.155410 0.339402 0.105782
H33   H     H_    0.792836 0.206448 0.407051 0.127922
H34   H     H_    0.553358 0.157312 0.158678 0.126633
H35   H     H_    0.479456 0.272396 0.397477 0.128294
C61   C     C_R   0.688562 0.685667 0.921447 0.019388
C62   C     C_R   0.760115 0.589829 0.905808 -0.126918
C63   C     C_R   0.740333 0.557290 0.870194 -0.121601
C64   C     C_R   0.648867 0.620127 0.849348 0.031591
C65   C     C_R   0.574348 0.712456 0.866328 -0.117774
C66   C     C_R   0.593876 0.744745 0.902012 -0.125191
C67   C     C_R   0.539883 0.619552 0.792897 -0.118888
C68   C     C_R   0.526393 0.610267 0.753208 -0.122210
C69   C     C_R   0.609103 0.577248 0.728324 0.022735
C70   C     C_R   0.706194 0.549641 0.744100 -0.114378
C71   C     C_R   0.719594 0.559167 0.783613 -0.114085
C72   C     C_R   0.636281 0.596261 0.808427 0.027405
C73   C     C_R   0.667591 0.497391 0.663129 -0.122216
C74   C     C_R   0.657758 0.501302 0.622969 -0.121450
C75   C     C_R   0.499739 0.664510 0.627270 -0.123012
C76   C     C_R   0.509465 0.660547 0.667521 -0.113968
C77   C     C_R   0.594034 0.577330 0.685855 0.029417
C78   C     C_R   0.574207 0.585271 0.604516 0.018810
H36   H     H_    0.833434 0.542051 0.920197 0.123952
H37   H     H_    0.536985 0.818954 0.913246 0.127022
H38   H     H_    0.452052 0.723823 0.684267 0.105153
H39   H     H_    0.451025 0.630389 0.741886 0.113123
H40   H     H_    0.474485 0.646937 0.811322 0.107084
H41   H     H_    0.798431 0.484720 0.858244 0.100848
H42   H     H_    0.771083 0.525300 0.725635 0.111549
H43   H     H_    0.794383 0.542462 0.794389 0.104924
H44   H     H_    0.732834 0.431608 0.676448 0.101066
H45   H     H_    0.715745 0.438259 0.606370 0.133017
H46   H     H_    0.503482 0.763169 0.850971 0.102750
H47   H     H_    0.433914 0.729638 0.613981 0.121426
C79   C     C_R   0.075505 0.696114 0.904136 0.023228
C80   C     C_R   0.100638 0.766279 0.888778 -0.124129
C81   C     C_R   0.138125 0.752136 0.851743 -0.125113
C82   C     C_R   0.151325 0.667556 0.829600 0.029250
C83   C     C_R   0.134610 0.592717 0.846002 -0.118419
C84   C     C_R   0.096788 0.606929 0.883154 -0.126266
C85   C     C_R   0.240906 0.574160 0.770079 -0.122587
C86   C     C_R   0.248688 0.570505 0.730123 -0.127797
C87   C     C_R   0.182460 0.657075 0.707904 0.005362
C88   C     C_R   0.112090 0.748801 0.725969 -0.119272
C89   C     C_R   0.104893 0.752787 0.765884 -0.113867
C90   C     C_R   0.168180 0.665091 0.788111 0.027004
C91   C     C_R   0.214184 0.719002 0.647675 -0.132687
C92   C     C_R   0.240057 0.704967 0.609070 -0.137181
C93   C     C_R   0.208097 0.562174 0.605175 -0.086813
C94   C     C_R   0.180384 0.576354 0.643944 0.021719
C95   C     C_R   0.189322 0.652105 0.665781 -0.007680
C96   C     C_R   0.243012 0.622691 0.588224 -0.006526
H48   H     H_    0.086700 0.834835 0.904627 0.126252
H49   H     H_    0.078628 0.551427 0.894470 0.127113
H50   H     H_    0.305269 0.499908 0.716422 0.121814
H51   H     H_    0.290724 0.506131 0.786861 0.112243
H52   H     H_    0.152084 0.809821 0.839648 0.103400
H53   H     H_    0.061407 0.816354 0.709103 0.111611
H54   H     H_    0.047382 0.823312 0.779314 0.109492
H55   H     H_    0.219880 0.778155 0.664091 0.111527
H56   H     H_    0.264812 0.753925 0.596417 0.124884
H57   H     H_    0.144060 0.527079 0.829177 0.107728
H58   H     H_    0.207127 0.500634 0.588674 0.177109
C97   C     C_R   0.670685 0.084809 0.907100 0.021164
C98   C     C_R   0.590360 0.077949 0.888559 -0.128928
C99   C     C_R   0.556959 0.118023 0.851528 -0.121981
C100  C     C_R   0.603212 0.165727 0.832675 0.030976
C101  C     C_R   0.677678 0.179631 0.852635 -0.117345
C102  C     C_R   0.710966 0.139679 0.889452 -0.122444
C103  C     C_R   0.587268 0.273339 0.775820 -0.120882
C104  C     C_R   0.592503 0.282373 0.736168 -0.117822
C105  C     C_R   0.594658 0.207089 0.710980 0.026681
C106  C     C_R   0.585749 0.125806 0.725692 -0.112620
C107  C     C_R   0.581855 0.115957 0.765406 -0.110882
C108  C     C_R   0.585636 0.188014 0.790922 0.027687
C109  C     C_R   0.539965 0.208314 0.642470 -0.115153
C110  C     C_R   0.544973 0.227594 0.603684 -0.117658
C111  C     C_R   0.693602 0.245110 0.618029 -0.127576
C112  C     C_R   0.687435 0.227618 0.656907 -0.120181
C113  C     C_R   0.608407 0.212753 0.669505 0.026979
C114  C     C_R   0.619122 0.250687 0.591406 0.020838
H59   H     H_    0.557637 0.036419 0.901635 0.125030
H60   H     H_    0.772246 0.147107 0.903259 0.128517
H61   H     H_    0.742260 0.229143 0.677383 0.105957
H62   H     H_    0.596777 0.347128 0.725159 0.116649
H63   H     H_    0.588307 0.331050 0.794753 0.109731
H64   H     H_    0.498314 0.107639 0.836970 0.103173
H65   H     H_    0.586829 0.067335 0.706591 0.109206
H66   H     H_    0.582039 0.048663 0.776154 0.106423
H67   H     H_    0.478966 0.196136 0.651683 0.121526
H68   H     H_    0.486841 0.230771 0.583768 0.133041
H69   H     H_    0.715653 0.215004 0.838846 0.105332
H70   H     H_    0.752304 0.261340 0.609389 0.122079
O14   O     O_R   0.834210 0.019400 0.034570 -0.529728
O15   O     O_R   0.002210 0.824620 0.031030 -0.496686
C115  C     C_R   0.994953 0.760389 0.053799 0.569528
O16   O     O_R   0.024400 0.669340 0.039790 -0.511806
O17   O     O_R   0.830490 0.694950 0.045870 -0.522385
C116  C     C_R   0.747585 0.746537 0.064251 0.536390
O18   O     O_R   0.675430 0.831160 0.051290 -0.515844
O19   O     O_R   0.698870 0.998880 0.039560 -0.503862
C117  C     C_R   0.751234 0.040299 0.050758 0.532397
O20   O     O_R   0.811290 0.006780 0.950620 -0.515668
O21   O     O_R   0.980960 0.812920 0.953200 -0.495832
C118  C     C_R   0.018425 0.721964 0.940021 0.557323
O22   O     O_R   0.001480 0.656720 0.955830 -0.513192
O23   O     O_R   0.809240 0.683250 0.968050 -0.498990
C119  C     C_R   0.717089 0.729662 0.954918 0.546112
O24   O     O_R   0.652500 0.818540 0.967340 -0.515339
O25   O     O_R   0.677620 0.987170 0.961730 -0.497448
C120  C     C_R   0.721079 0.025402 0.942243 0.545236
Cr4   Cr    Cr6+3 0.905130 0.911420 0.992650 1.011072
Cr5   Cr    Cr6+3 0.911860 0.682710 0.002320 1.009944
Cr6   Cr    Cr6+3 0.682710 0.906840 0.004710 1.009130
O26   O     O_3   0.833240 0.833660 0.999890 -0.261348
N1    N     N_R   0.519961 0.338368 0.201874 0.070296
O27   O     O_R   0.541746 0.371524 0.171215 -0.319922
O28   O     O_R   0.426862 0.388596 0.214442 -0.347378
C121  C     C_2   0.143537 0.511438 0.661276 0.209763
H71   H     H_    0.113268 0.527466 0.690133 0.118627
O29   O     O_2   0.145609 0.439575 0.643377 -0.519353

loop_
_geom_bond_atom_site_label_1
_geom_bond_atom_site_label_2
_geom_bond_distance
_ccdc_geom_bond_type
C97   C98   1.404295 A    
O17   Cr5   1.923367 S    
C94   C95   1.414214 A    
C37   H21   1.082805 S    
C87   C88   1.398003 A    
C34   H19   1.083139 S    
C55   C56   1.392960 A    
C79   C118  1.467027 S    
C27   C28   1.402301 A    
C100  C108  1.478789 S    
Cr5   O26   1.962796 S    
C57   C58   1.393206 A    
C29   C30   1.401488 A    
C80   H48   1.083144 S    
O4    Cr2   1.914526 S    
C38   C42   1.404171 A    
C25   C26   1.404777 A    
C74   H45   1.081853 S    
C4    O9    1.275335 A    
O23   C119  1.276786 A    
O8    Cr1   1.909824 S    
C31   C36   1.402656 A    
Cr6   O26   1.977237 S    
C103  H63   1.083118 S    
O16   Cr5   2.038007 S    
C73   H44   1.083052 S    
C93   C94   1.400647 A    
C93   H58   1.083525 S    
C21   C22   1.392931 A    
C91   C95   1.400953 A    
C21   C24   1.406219 A    
C109  C113  1.400336 A    
C45   C46   1.401345 A    
C14   C15   1.405923 A    
C57   H35   1.083073 S    
C55   C59   1.402296 A    
C105  C113  1.469858 S    
C58   H27   1.083280 S    
C4    C114  1.473118 S    
C107  C108  1.406636 A    
C112  H61   1.083391 S    
C65   C66   1.397211 A    
C61   C119  1.481777 S    
C12   H2    1.082537 S    
C49   C54   1.414260 A    
C107  H66   1.082687 S    
C67   C68   1.400128 A    
C6    C96   1.467623 S    
C46   C54   1.468679 S    
O24   Cr6   2.037403 S    
C1    C60   1.471962 S    
C10   C18   1.474303 S    
C111  C112  1.393689 A    
C26   H13   1.082203 S    
N1    O27   1.301400 A    
C15   C23   1.475580 S    
O19   C117  1.276477 A    
C19   H9    1.082961 S    
C7    C8    1.404902 A    
C28   C36   1.480026 S    
C63   H41   1.082828 S    
O7    Cr1   2.040738 S    
C67   H40   1.082812 S    
C73   C77   1.404227 A    
C82   C90   1.465493 S    
C40   H15   1.082946 S    
C43   C48   1.405491 A    
C69   C70   1.404139 A    
C31   C32   1.396392 A    
C70   H42   1.082930 S    
Cr3   O13   1.963312 S    
C81   H52   1.083493 S    
C110  C114  1.407237 A    
C8    H1    1.083041 S    
C14   H4    1.082960 S    
C45   H29   1.083281 S    
O14   C117  1.274485 A    
C61   C62   1.405348 A    
O22   Cr5   2.039605 S    
C11   H11   1.082927 S    
C82   C83   1.403326 A    
C2    O5    1.269355 A    
C93   C96   1.403855 A    
O25   Cr6   1.911730 S    
C22   C23   1.402002 A    
O1    Cr1   2.027573 S    
C64   C72   1.487106 S    
C62   H36   1.082986 S    
C92   C96   1.400896 A    
C39   C40   1.396068 A    
C104  C105  1.402909 A    
C20   C24   1.403310 A    
Cr1   O13   1.976801 S    
O1    C3    1.272451 A    
C8    C9    1.390134 A    
O14   Cr4   2.036177 S    
C62   C63   1.398129 A    
O15   C115  1.306768 A    
C51   C52   1.400006 A    
C47   H34   1.083453 S    
C21   H12   1.083047 S    
C116  O18   1.267425 A    
O6    C3    1.273559 A    
C111  C114  1.404026 A    
C75   C78   1.405445 A    
C9    C10   1.402127 A    
C99   C100  1.406207 A    
C13   C18   1.401509 A    
O12   Cr3   1.926280 S    
O20   Cr4   2.025900 S    
C35   C36   1.405701 A    
C13   H5    1.083014 S    
C32   C33   1.406969 A    
C19   C20   1.394850 A    
O15   Cr4   1.911151 S    
C19   C23   1.405582 A    
C109  C110  1.393931 A    
O21   C118  1.268476 A    
C13   C14   1.393543 A    
O10   Cr2   1.916688 S    
C68   H39   1.083294 S    
C104  H62   1.083873 S    
C89   H54   1.083309 S    
C102  H60   1.083242 S    
C43   C44   1.405468 A    
C5    C78   1.481634 S    
C92   H56   1.082428 S    
C88   C89   1.389795 A    
C101  H69   1.082786 S    
C34   C35   1.395889 A    
N1    O28   1.301588 A    
O12   C6    1.273928 A    
C10   C11   1.403917 A    
C44   H25   1.082521 S    
C121  H71   1.084508 S    
C53   C54   1.404665 A    
C25   C115  1.478247 S    
C7    C12   1.405302 A    
C85   C86   1.392114 A    
C68   C69   1.405938 A    
C76   H38   1.082907 S    
C50   H28   1.083375 S    
C70   C71   1.394495 A    
C43   C117  1.471167 S    
C106  H65   1.083253 S    
C94   C121  1.486496 S    
C39   H24   1.082970 S    
C27   H18   1.083181 S    
C52   H30   1.083392 S    
O25   C120  1.279775 A    
Cr2   O13   1.975925 S    
C103  C104  1.393207 A    
C110  H68   1.083121 S    
C7    C116  1.473583 S    
C84   H49   1.083042 S    
C16   H7    1.083100 S    
C29   H23   1.082980 S    
C91   H55   1.083748 S    
C112  C113  1.402893 A    
C85   C90   1.400975 A    
C61   C66   1.406306 A    
C1    O3    1.272046 A    
C49   C50   1.400313 A    
C31   H17   1.082940 S    
C11   C12   1.397012 A    
C57   C60   1.404382 A    
C20   H10   1.083014 S    
C98   C99   1.397596 A    
C83   C84   1.394019 A    
C97   C102  1.403423 A    
C33   C41   1.483460 S    
C28   C29   1.406379 A    
O17   C116  1.275989 A    
C26   C27   1.390318 A    
C3    C42   1.479342 S    
C87   C95   1.465657 S    
O9    Cr2   2.028648 S    
C38   H22   1.082986 S    
O2    Cr1   1.922974 S    
C46   C47   1.400085 A    
C85   H51   1.083316 S    
C79   C84   1.403435 A    
C40   C41   1.403851 A    
C15   C16   1.402620 A    
C44   C45   1.394601 A    
C71   H43   1.082671 S    
C81   C82   1.399658 A    
O6    Cr3   1.917266 S    
C49   N1    1.440464 S    
C48   H26   1.083099 S    
C25   C30   1.405471 A    
C69   C77   1.483758 S    
O11   Cr3   2.034129 S    
C63   C64   1.406751 A    
C76   C77   1.405877 A    
C98   H59   1.083136 S    
O21   Cr4   1.919353 S    
C56   H33   1.083069 S    
C75   H47   1.082033 S    
C121  O29   1.221352 D    
O20   C120  1.271048 A    
C109  H67   1.083284 S    
C39   C42   1.406722 A    
C51   C59   1.472921 S    
C16   C17   1.393466 A    
C80   C81   1.388517 A    
O19   Cr6   1.919972 S    
C22   H3    1.083176 S    
C101  C102  1.390072 A    
O23   Cr5   1.921570 S    
C86   C87   1.404067 A    
C53   H31   1.084008 S    
Cr4   O26   1.976635 S    
O5    Cr3   2.043647 S    
C30   H14   1.081693 S    
C50   C51   1.404080 A    
O4    C2    1.269370 A    
O7    C6    1.266863 A    
C75   C76   1.398796 A    
C37   C41   1.406970 A    
C5    O11   1.299136 A    
C56   C60   1.405546 A    
C32   H16   1.082692 S    
C52   C53   1.391499 A    
C17   C18   1.405528 A    
O2    C1    1.279267 A    
O18   Cr6   2.030506 S    
C2    C24   1.473350 S    
C67   C72   1.407446 A    
C37   C38   1.397338 A    
C111  H70   1.082198 S    
C33   C34   1.404854 A    
C66   H37   1.082970 S    
C97   C120  1.471839 S    
C55   H32   1.083120 S    
C105  C106  1.400766 A    
O3    Cr2   2.033911 S    
C74   C78   1.405999 A    
C91   C92   1.388432 A    
C119  O24   1.270012 A    
C88   H53   1.083381 S    
C89   C90   1.404840 A    
C47   C48   1.390336 A    
C58   C59   1.403598 A    
C83   H57   1.083231 S    
C99   H64   1.082869 S    
C79   C80   1.405048 A    
C17   H8    1.083295 S    
O10   C5    1.303020 A    
C86   H50   1.083604 S    
C115  O16   1.295781 A    
C64   C65   1.405540 A    
C71   C72   1.405726 A    
C9    H6    1.083222 S    
C35   H20   1.082530 S    
C106  C107  1.394502 A    
C103  C108  1.405620 A    
O8    C4    1.274969 A    
C118  O22   1.267945 A    
C73   C74   1.395737 A    
C65   H46   1.082668 S    
C100  C101  1.404046 A    
