data_mof_unit_27189.cif
_audit_creation_date              2012-12-10T18:59:59-0500
_audit_creation_method            fapswitch 2.2
_symmetry_space_group_name_H-M    P1
_symmetry_Int_Tables_number       1
_space_group_crystal_system       triclinic
_cell_length_a                    10.825363
_cell_length_b                    10.651588
_cell_length_c                    9.967219
_cell_angle_alpha                 88.325223
_cell_angle_beta                  91.231182
_cell_angle_gamma                 90.801839
_cell_volume                      1148.43427363

loop_
_atom_site_label
_atom_site_type_symbol
_atom_type_description
_atom_site_fract_x
_atom_site_fract_y
_atom_site_fract_z
_atom_type_partial_charge
C1    C     C_R   0.499291 0.260405 0.501376 0.973329
C2    C     C_R   0.500101 0.739564 0.498522 0.985341
C3    C     C_R   0.872439 0.484741 0.504479 -0.265508
C4    C     C_R   0.126972 0.505264 0.494544 -0.294006
C5    C     C_R   0.941642 0.500550 0.623718 -0.031188
C6    C     C_R   0.058390 0.474567 0.377818 -0.017868
C7    C     C_R   0.434689 0.067163 0.398910 -0.291078
C8    C     C_R   0.563888 0.932800 0.600599 -0.281408
C9    C     C_R   0.436249 0.938546 0.395404 0.749962
C10   C     C_R   0.562314 0.061258 0.604017 0.770571
C11   C     C_R   0.500975 0.872178 0.496609 -0.291143
C12   C     C_R   0.497712 0.127738 0.502991 -0.286138
C13   C     C_R   0.544343 0.601235 0.067596 0.475345
C14   C     C_R   0.459246 0.397240 0.932936 0.459137
C15   C     C_R   0.542329 0.601421 0.925101 -0.127362
C16   C     C_R   0.458514 0.398351 0.075154 -0.239025
C17   C     C_R   0.260128 0.503462 0.498124 0.980149
C18   C     C_R   0.739560 0.493333 0.501747 0.975814
C19   C     C_R   0.179878 0.537298 0.030902 0.659405
C20   C     C_R   0.800601 0.306329 0.904952 0.677493
C21   C     C_R   0.148856 0.555463 0.163902 0.546431
C22   C     C_R   0.854619 0.340317 0.783157 0.514778
C23   C     C_R   0.111118 0.452729 0.245282 -0.189299
C24   C     C_R   0.892069 0.465709 0.756982 -0.207821
C25   C     C_R   0.104739 0.331920 0.192100 0.671510
C26   C     C_R   0.880415 0.554866 0.856710 0.689464
C27   C     C_R   0.132552 0.315005 0.057964 -0.313714
C28   C     C_R   0.828291 0.519333 0.979244 -0.348264
C29   C     C_R   0.168445 0.417671 0.977236 -0.430014
C30   C     C_R   0.785071 0.396246 0.001471 -0.376527
C31   C     C_R   0.931766 0.467847 0.383784 0.658163
C32   C     C_R   0.066320 0.526043 0.614550 0.636900
H1    H     H_    0.189934 0.403030 0.873774 0.287267
H2    H     H_    0.738540 0.369932 0.093065 0.283720
H3    H     H_    0.578232 0.682009 0.869243 0.197969
H4    H     H_    0.424123 0.317184 0.131215 0.202317
H5    H     H_    0.125463 0.222497 0.016103 0.271568
H6    H     H_    0.819080 0.587988 0.055952 0.278913
H7    H     H_    0.383753 0.119375 0.321354 0.218219
H8    H     H_    0.614916 0.880738 0.678190 0.226352
N1    N     N_R   0.499970 0.499970 0.857200 -0.148218
N2    N     N_R   0.500030 0.500030 0.142800 -0.155370
O1    O     O_R   0.499990 0.316750 0.614620 -0.533814
O2    O     O_R   0.500010 0.683250 0.385380 -0.520355
O3    O     O_R   0.499990 0.316780 0.385290 -0.647370
O4    O     O_R   0.500010 0.683220 0.614710 -0.630082
O5    O     O_R   0.316760 0.500000 0.614660 -0.544692
O6    O     O_R   0.683240 0.500000 0.385340 -0.546005
O7    O     O_R   0.316760 0.500020 0.385330 -0.635481
O8    O     O_R   0.683240 0.499980 0.614670 -0.656176
Zn1   Zn    Zn3+2 0.500000 0.499980 0.653120 1.070616
Zn2   Zn    Zn3+2 0.500000 0.500020 0.346880 1.064898
F1    F     F_    0.220746 0.635969 0.954365 -0.513812
F2    F     F_    0.762676 0.186208 0.929646 -0.511057
F3    F     F_    0.153177 0.673072 0.212947 -0.538375
F4    F     F_    0.868987 0.251776 0.689655 -0.565536
F5    F     F_    0.066720 0.231861 0.268759 -0.576119
F6    F     F_    0.916195 0.676112 0.834140 -0.542787
F7    F     F_    0.867015 0.439826 0.270881 -0.660261
F8    F     F_    0.128199 0.569065 0.723610 -0.577276
F9    F     F_    0.371999 0.879316 0.296617 -0.544250
F10   F     F_    0.626609 0.120270 0.702622 -0.536006
Cl1   Cl    Cl    0.614121 0.731701 0.142745 -0.454699
Cl2   Cl    Cl    0.403272 0.259291 0.860143 -0.497524

loop_
_geom_bond_atom_site_label_1
_geom_bond_atom_site_label_2
_ccdc_geom_bond_type
O5    Zn1   S    
C17   O5    A    
C29   H1    S    
C27   C29   A    
C20   C22   A    
C9    C11   A    
C26   C28   A    
C13   Cl1   S    
C13   C15   A    
C28   H6    S    
C5    C32   A    
C14   Cl2   S    
C7    C9    A    
O2    Zn2   S    
C28   C30   A    
C19   F1    S    
C30   H2    S    
C18   O6    A    
C20   C30   A    
C2    O4    A    
C3    C31   A    
C26   F6    S    
C1    O3    A    
C10   F10   S    
C1    C12   S    
C25   F5    S    
O1    Zn1   S    
C8    C11   A    
C9    F9    S    
C2    C11   S    
C10   C12   A    
C15   H3    S    
C13   N2    A    
C19   C21   A    
N1    Zn1   S    
C27   H5    S    
C6    C31   A    
C14   C16   A    
C14   N1    A    
C21   C23   A    
C7    C12   A    
C22   C24   A    
C4    C6    A    
C25   C27   A    
C32   F8    S    
C15   N1    A    
C31   F7    S    
C4    C32   A    
C19   C29   A    
C16   N2    A    
O6    Zn2   S    
C23   C25   A    
C18   O8    A    
C3    C18   S    
C20   F2    S    
C17   O7    A    
C21   F3    S    
C7    H7    S    
N2    Zn2   S    
C5    C24   S    
C22   F4    S    
C8    H8    S    
O3    Zn2   S    
O8    Zn1   S    
C6    C23   S    
O4    Zn1   S    
C1    O1    A    
C8    C10   A    
C16   H4    S    
C24   C26   A    
O7    Zn2   S    
C2    O2    A    
C3    C5    A    
C4    C17   S    
