data_mof_unit_24931.cif
_audit_creation_date              2012-10-26T18:52:33-0400
_audit_creation_method            fapswitch 2.2
_symmetry_space_group_name_H-M    P1
_symmetry_Int_Tables_number       1
_space_group_crystal_system       triclinic
_cell_length_a                    10.746786
_cell_length_b                    14.744322
_cell_length_c                    14.789719
_cell_angle_alpha                 64.551479
_cell_angle_beta                  104.124921
_cell_angle_gamma                 103.570306
_cell_volume                      2029.46662304

loop_
_atom_site_label
_atom_site_type_symbol
_atom_type_description
_atom_site_fract_x
_atom_site_fract_y
_atom_site_fract_z
_atom_type_partial_charge
C1    C     C_R   0.481429 0.119894 0.312195 0.554358
C2    C     C_R   0.533593 0.359620 0.078587 0.046311
C3    C     C_R   0.494586 0.320602 0.001952 0.055456
C4    C     C_R   0.259930 0.000706 0.498995 0.539055
C5    C     C_R   0.572880 0.465995 0.051691 0.019977
C6    C     C_R   0.556366 0.532834 0.947943 0.033136
C7    C     C_R   0.524079 0.490685 0.873732 -0.126758
C8    C     C_R   0.495009 0.386407 0.900670 -0.120724
C9    C     C_R   0.629451 0.507147 0.125222 -0.087596
C10   C     C_R   0.655082 0.611822 0.100372 0.013796
C11   C     C_R   0.621285 0.678864 0.998600 0.018003
C12   C     C_3   0.878047 0.004305 0.496023 0.024012
C13   C     C_R   0.572825 0.639330 0.921954 0.025381
C14   C     C_R   0.632042 0.784443 0.971287 -0.129798
C15   C     C_R   0.599043 0.849979 0.870877 -0.107022
C16   C     C_R   0.524378 0.879969 0.687830 0.542826
C17   C     C_R   0.536452 0.707328 0.821712 -0.131348
C18   C     C_R   0.723656 0.290864 0.662033 -0.103730
C19   C     C_R   0.688391 0.207527 0.635560 0.399899
C20   C     C_R   0.516697 0.284386 0.510404 -0.010832
C21   C     C_R   0.555964 0.375811 0.527908 -0.010622
C22   C     C_R   0.657190 0.374181 0.609905 0.009670
C23   C     C_3   0.923819 0.904600 0.579529 -0.287768
C24   C     C_R   0.495358 0.466192 0.471452 0.019545
C25   C     C_R   0.524646 0.545170 0.509768 0.037301
C26   C     C_R   0.622358 0.536339 0.595046 -0.123124
C27   C     C_R   0.689756 0.454199 0.641738 -0.115335
C28   C     C_R   0.739850 0.001645 0.498032 0.562681
C29   C     C_R   0.409650 0.482785 0.377351 0.027176
C30   C     C_R   0.335164 0.561374 0.336931 -0.072666
C31   C     C_R   0.357305 0.634357 0.377444 -0.028855
C32   C     C_R   0.456483 0.631179 0.460746 -0.009282
C33   C     C_R   0.285621 0.714740 0.329944 -0.107356
C34   C     C_3   0.966318 0.096089 0.517498 0.122201
C35   C     C_R   0.315096 0.794525 0.361421 0.387271
C36   C     C_R   0.483454 0.715735 0.489487 0.004449
C37   C     C_3   0.038814 0.011719 0.391053 -0.092022
C38   C     C_3   0.894410 0.011856 0.391455 -0.196216
C39   C     C_3   0.066767 0.903361 0.579171 -0.275143
C40   C     C_3   0.109160 0.093043 0.520715 -0.174079
C41   C     C_3   0.121769 0.003008 0.496547 -0.000348
C42   C     C_2   0.718503 0.648201 0.182780 0.226710
C43   C     C_2   0.091810 0.101378 0.302969 0.233998
C44   C     C_2   0.412411 0.432925 0.309798 0.232421
C45   C     C_R   0.483271 0.187532 0.204701 0.005463
C46   C     C_R   0.551915 0.811867 0.795410 -0.002541
C47   C     C_R   0.454466 0.216064 0.027472 -0.121943
C48   C     C_R   0.448812 0.149880 0.128270 -0.121381
C49   C     C_R   0.525747 0.291318 0.179326 -0.087462
Cl1   Cl    Cl    0.222950 0.894107 0.294352 -0.654358
Cl2   Cl    Cl    0.778136 0.106477 0.704743 -0.618311
Cl3   Cl    Cl    0.922769 0.217430 0.426509 -0.530857
Cu1   Cu    Cu3+1 0.465900 0.918260 0.475680 0.995801
Cu2   Cu    Cu3+1 0.534100 0.081740 0.524320 1.045485
H1    H     H_    0.042624 0.942595 0.379722 0.152015
H2    H     H_    0.549287 0.317451 0.239643 0.128965
H3    H     H_    0.523205 0.536185 0.793890 0.100368
H4    H     H_    0.660864 0.458763 0.202822 0.157767
H5    H     H_    0.663983 0.818042 0.026624 0.106370
H6    H     H_    0.765789 0.451792 0.705925 0.117795
H7    H     H_    0.560675 0.721495 0.549532 0.118393
H8    H     H_    0.266097 0.571005 0.267485 0.168758
H9    H     H_    0.802775 0.290119 0.723900 0.135575
H10   H     H_    0.429292 0.273769 0.459611 0.136100
H11   H     H_    0.856996 0.080489 0.329728 0.197765
H12   H     H_    0.955830 0.089970 0.592972 0.184090
H13   H     H_    0.650118 0.592302 0.627663 0.087350
H14   H     H_    0.208736 0.717156 0.266241 0.140601
H15   H     H_    0.834128 0.945742 0.376357 0.112722
H16   H     H_    0.073484 0.836571 0.564880 0.153623
H17   H     H_    0.862659 0.837482 0.566910 0.140538
H18   H     H_    0.163431 0.084033 0.597873 0.100866
H19   H     H_    0.154627 0.166123 0.467110 0.218006
H20   H     H_    0.772025 0.724039 0.165969 0.116110
H21   H     H_    0.150317 0.089498 0.259845 0.158581
H22   H     H_    0.499339 0.404320 0.316123 0.110779
H23   H     H_    0.124715 0.894316 0.655248 0.126982
H24   H     H_    0.913103 0.897602 0.655356 0.134278
H25   H     H_    0.469325 0.357350 0.841449 0.117468
H26   H     H_    0.492539 0.680370 0.762508 0.122822
H27   H     H_    0.610256 0.930597 0.852517 0.173423
H28   H     H_    0.425909 0.185700 0.969225 0.119994
H29   H     H_    0.417110 0.069599 0.146206 0.170300
N1    N     N_R   0.585360 0.204570 0.560800 -0.221971
N2    N     N_R   0.414550 0.795430 0.439160 -0.224198
O1    O     O_R   0.455060 0.022100 0.338110 -0.460247
O2    O     O_2   0.073669 0.187558 0.281214 -0.435357
O3    O     O_2   0.319490 0.425313 0.245390 -0.471237
O4    O     O_R   0.512640 0.160150 0.379180 -0.504760
O5    O     O_R   0.288900 0.930980 0.479450 -0.460601
O6    O     O_R   0.346480 0.069030 0.520520 -0.527090
O7    O     O_R   0.487360 0.839850 0.620820 -0.526871
O8    O     O_R   0.544940 0.977900 0.661890 -0.459983
O9    O     O_R   0.653520 0.930970 0.479480 -0.532117
O10   O     O_R   0.711100 0.069020 0.520550 -0.412408
O11   O     O_2   0.713432 0.592586 0.271718 -0.506474

loop_
_geom_bond_atom_site_label_1
_geom_bond_atom_site_label_2
_ccdc_geom_bond_type
C20   H10   S    
C10   C42   S    
C11   C13   A    
C34   H12   S    
Cu2   N1    S    
C7    C8    A    
C39   C41   S    
Cu1   Cu2   S    
C14   H5    S    
C12   C23   S    
C26   C27   A    
C29   C30   A    
C12   C28   S    
C28   O10   A    
C42   O11   D    
C26   H13   S    
C32   C36   A    
C9    H4    S    
C27   H6    S    
C30   C31   A    
C11   C14   A    
C18   H9    S    
C4    C41   S    
C40   H19   S    
C28   O9    A    
C18   C19   A    
C47   H28   S    
C44   H22   S    
C24   C29   A    
Cu2   O8    S    
C47   C48   A    
C8    H25   S    
C31   C33   A    
Cu1   O1    S    
C9    C10   A    
C4    O6    A    
C25   C32   A    
C38   H15   S    
C21   C22   A    
C12   C38   S    
C35   Cl1   S    
C4    O5    A    
C43   H21   S    
C42   H20   S    
C23   H17   S    
C17   C46   A    
Cu2   O4    S    
C15   H27   S    
C3    C8    A    
C16   C46   S    
C25   C26   A    
C17   H26   S    
C37   C43   S    
C5    C9    A    
C37   C38   S    
C2    C49   A    
C31   C32   A    
C38   H11   S    
C45   C49   A    
Cu1   O7    S    
C16   O8    A    
C24   C25   A    
Cu2   O10   S    
C40   C41   S    
C16   O7    A    
C22   C27   A    
C20   N1    A    
C29   C44   S    
C34   C40   S    
C2    C5    A    
C12   C34   S    
C19   N1    A    
C39   H23   S    
C45   C48   A    
C1    O1    A    
C1    O4    A    
C40   H18   S    
Cu1   O9    S    
C18   C22   A    
C6    C7    A    
C36   N2    A    
C49   H2    S    
C34   Cl3   S    
C48   H29   S    
C13   C17   A    
C43   O2    D    
C30   H8    S    
C2    C3    A    
Cu2   O6    S    
C6    C13   A    
C35   N2    A    
C1    C45   S    
C5    C6    A    
C23   C39   S    
C3    C47   A    
C33   C35   A    
C39   H16   S    
C23   H24   S    
C37   C41   S    
C10   C11   A    
C37   H1    S    
C19   Cl2   S    
C20   C21   A    
C21   C24   A    
Cu1   O5    S    
C14   C15   A    
Cu1   N2    S    
C15   C46   A    
C44   O3    D    
C7    H3    S    
C36   H7    S    
C33   H14   S    
