data_mof_unit_64793.cif
_audit_creation_date              2012-10-26T19:51:10-0400
_audit_creation_method            fapswitch 2.2
_symmetry_space_group_name_H-M    P1
_symmetry_Int_Tables_number       1
_space_group_crystal_system       triclinic
_cell_length_a                    19.589473
_cell_length_b                    18.196671
_cell_length_c                    14.348967
_cell_angle_alpha                 90.000793
_cell_angle_beta                  92.041889
_cell_angle_gamma                 89.97586
_cell_volume                      5111.63045318

loop_
_atom_site_label
_atom_site_type_symbol
_atom_type_description
_atom_site_fract_x
_atom_site_fract_y
_atom_site_fract_z
_atom_type_partial_charge
C1    C     C_R   0.367378 0.500019 0.503171 0.544608
C2    C     C_R   0.541007 0.278371 0.563038 0.119566
C3    C     C_R   0.540997 0.721598 0.563046 0.119681
C4    C     C_R   0.459003 0.278402 0.436953 0.119681
C5    C     C_R   0.458124 0.799513 0.435999 -0.052454
C6    C     C_R   0.541876 0.200487 0.564001 -0.052454
C7    C     C_R   0.541870 0.799481 0.563998 -0.052409
C8    C     C_R   0.458131 0.200519 0.436001 -0.052409
C9    C     C_R   0.499998 0.839264 0.499995 -0.033128
C10   C     C_R   0.500002 0.160736 0.500004 -0.033128
C11   C     C_R   0.476849 0.961415 0.576991 -0.080090
C12   C     C_R   0.632622 0.499981 0.496829 0.544609
C13   C     C_R   0.523152 0.038585 0.423007 -0.080090
C14   C     C_R   0.523149 0.961394 0.423003 -0.080091
C15   C     C_R   0.476852 0.038606 0.576996 -0.080091
C16   C     C_R   0.500004 0.078085 0.500004 0.036372
C17   C     C_R   0.499997 0.921915 0.499995 0.036372
C18   C     C_R   0.499832 0.500000 0.330924 0.554958
C19   C     C_R   0.500168 0.500000 0.669076 0.554957
C20   C     C_1   0.499828 0.499999 0.228659 -0.005042
C21   C     C_1   0.500172 0.500001 0.771341 -0.005042
C22   C     C_1   0.499863 0.499999 0.143289 -0.014556
C23   C     C_R   0.964534 0.547024 0.558273 -0.102415
C24   C     C_1   0.500137 0.500001 0.856711 -0.014556
C25   C     C_1   0.499954 0.500000 0.042688 0.020799
C26   C     C_1   0.500046 0.500000 0.957312 0.020799
C27   C     C_R   0.746157 0.432726 0.488296 -0.022116
C28   C     C_R   0.253843 0.567274 0.511704 -0.022116
C29   C     C_R   0.253753 0.432982 0.511179 -0.022338
C30   C     C_R   0.746247 0.567018 0.488821 -0.022338
C31   C     C_R   0.817403 0.433535 0.490944 -0.117412
C32   C     C_R   0.182596 0.566465 0.509056 -0.117412
C33   C     C_R   0.182507 0.433979 0.508483 -0.118781
C34   C     C_R   0.035466 0.452976 0.441727 -0.102415
C35   C     C_R   0.817493 0.566021 0.491517 -0.118781
C36   C     C_R   0.853277 0.499736 0.493935 0.001566
C37   C     C_R   0.146723 0.500264 0.506065 0.001566
C38   C     C_R   0.708751 0.499912 0.491376 -0.015224
C39   C     C_R   0.291249 0.500088 0.508624 -0.015224
C40   C     C_1   0.714393 0.361446 0.477417 0.237885
C41   C     C_1   0.285607 0.638554 0.522584 0.237885
C42   C     C_1   0.285423 0.361625 0.522036 0.238416
C43   C     C_1   0.714577 0.638375 0.477964 0.238416
C44   C     C_1   0.415343 0.682267 0.370824 0.293254
C45   C     C_R   0.035630 0.547208 0.561292 -0.104335
C46   C     C_1   0.584657 0.317732 0.629175 0.293254
C47   C     C_1   0.584617 0.682206 0.629229 0.293053
C48   C     C_1   0.415383 0.317794 0.370770 0.293053
C49   C     C_1   0.412921 0.838520 0.370758 0.202264
C50   C     C_1   0.587081 0.161480 0.629240 0.202265
C51   C     C_1   0.587071 0.838450 0.629238 0.202128
C52   C     C_1   0.412930 0.161549 0.370760 0.202127
C53   C     C_R   0.964370 0.452793 0.438709 -0.104334
C54   C     C_R   0.071588 0.500203 0.502997 0.032975
C55   C     C_R   0.928412 0.499797 0.497003 0.032974
C56   C     C_R   0.458993 0.721629 0.436962 0.119566
Cu1   Cu    Cu3+1 0.500000 0.573360 0.500000 1.006447
Cu2   Cu    Cu3+1 0.500000 0.426640 0.500000 1.006447
H1    H     H_    0.845234 0.381969 0.490847 0.123091
H2    H     H_    0.541515 0.067644 0.362994 0.127610
H3    H     H_    0.541510 0.932319 0.362987 0.127660
H4    H     H_    0.458490 0.067681 0.637011 0.127659
H5    H     H_    0.154766 0.618031 0.509154 0.123091
H6    H     H_    0.154551 0.382559 0.510433 0.123561
H7    H     H_    0.845449 0.617441 0.489567 0.123561
H8    H     H_    0.937724 0.583049 0.604663 0.120067
H9    H     H_    0.062276 0.416952 0.395336 0.120067
H10   H     H_    0.062526 0.583301 0.610076 0.116370
H11   H     H_    0.937473 0.416699 0.389924 0.116370
H12   H     H_    0.458486 0.932356 0.637005 0.127609
N1    N     N_R   0.500000 0.683620 0.500000 -0.258103
N2    N     N_1   0.380146 0.348726 0.317460 -0.281257
N3    N     N_1   0.376859 0.869669 0.318750 -0.246548
N4    N     N_1   0.623143 0.130331 0.681247 -0.246547
N5    N     N_1   0.623131 0.869571 0.681245 -0.247009
N6    N     N_1   0.376871 0.130429 0.318751 -0.247010
N7    N     N_R   0.500000 0.316380 0.500000 -0.258103
N8    N     N_1   0.689718 0.304038 0.467844 -0.284202
N9    N     N_1   0.310282 0.695962 0.532157 -0.284203
N10   N     N_1   0.310021 0.304155 0.531589 -0.283746
N11   N     N_1   0.689979 0.695845 0.468411 -0.283746
N12   N     N_1   0.380081 0.651359 0.317552 -0.280081
N13   N     N_1   0.619919 0.348641 0.682448 -0.280081
N14   N     N_1   0.619854 0.651274 0.682540 -0.281257
O1    O     O_R   0.400190 0.561980 0.499990 -0.486561
O2    O     O_R   0.599810 0.438020 0.500010 -0.486561
O3    O     O_R   0.599810 0.561980 0.500010 -0.486569
O4    O     O_R   0.400190 0.438020 0.499990 -0.486568
O5    O     O_R   0.500000 0.561970 0.376060 -0.483939
O6    O     O_R   0.500000 0.438030 0.623940 -0.483939
O7    O     O_R   0.500000 0.561970 0.623940 -0.483923
O8    O     O_R   0.500000 0.438030 0.376060 -0.483923

loop_
_geom_bond_atom_site_label_1
_geom_bond_atom_site_label_2
_ccdc_geom_bond_type
C42   N10   T    
C23   C45   A    
C29   C42   S    
C5    C56   A    
C35   C36   A    
C4    C8    A    
C53   H11   S    
C11   H12   S    
C13   H2    S    
C2    C46   S    
Cu1   O5    S    
C30   C35   A    
C23   H8    S    
C19   C21   S    
C51   N5    T    
C3    C7    A    
C50   N4    T    
C35   H7    S    
C27   C38   A    
C15   C16   A    
C29   C33   A    
C28   C41   S    
C30   C38   A    
C31   H1    S    
Cu2   N7    S    
C11   C15   A    
C22   C25   S    
C8    C52   S    
C18   C20   S    
C1    O4    A    
C13   C14   A    
C14   C17   A    
C5    C49   S    
C2    C6    A    
C48   N2    T    
Cu2   O2    S    
C53   C55   A    
C1    O1    A    
C27   C31   A    
C28   C32   A    
C28   C39   A    
C25   C26   T    
C32   C37   A    
C14   H3    S    
C6    C50   S    
Cu1   O3    S    
C3    N1    A    
C5    C9    A    
C44   C56   S    
C27   C40   S    
C56   N1    A    
C29   C39   A    
C45   H10   S    
C47   N14   T    
Cu1   N1    S    
Cu2   O6    S    
C37   C54   S    
C9    C17   S    
C20   C22   T    
C45   C54   A    
C34   C54   A    
C43   N11   T    
C40   N8    T    
C30   C43   S    
C21   C24   T    
C4    C48   S    
C7    C9    A    
C11   C17   A    
Cu1   O7    S    
C12   O3    A    
C18   O5    A    
C32   H5    S    
C24   C26   S    
C52   N6    T    
Cu2   O4    S    
C34   H9    S    
C41   N9    T    
C23   C55   A    
C44   N12   T    
C12   O2    A    
C18   O8    A    
C7    C51   S    
C4    N7    A    
C19   O6    A    
C10   C16   S    
Cu1   Cu2   S    
C33   H6    S    
C3    C47   S    
C15   H4    S    
Cu1   O1    S    
C49   N3    T    
C12   C38   S    
C33   C37   A    
C19   O7    A    
C6    C10   A    
C1    C39   S    
C46   N13   T    
C34   C53   A    
C8    C10   A    
C13   C16   A    
C36   C55   S    
C2    N7    A    
C31   C36   A    
Cu2   O8    S    
