data_mof_unit_50589.cif
_audit_creation_date              2012-12-10T17:46:18-0500
_audit_creation_method            fapswitch 2.2
_symmetry_space_group_name_H-M    P1
_symmetry_Int_Tables_number       1
_space_group_crystal_system       triclinic
_cell_length_a                    14.126526
_cell_length_b                    10.607972
_cell_length_c                    9.957961
_cell_angle_alpha                 90.005792
_cell_angle_beta                  91.346775
_cell_angle_gamma                 90.364924
_cell_volume                      1491.79568998

loop_
_atom_site_label
_atom_site_type_symbol
_atom_type_description
_atom_site_fract_x
_atom_site_fract_y
_atom_site_fract_z
_atom_type_partial_charge
C1    C     C_R   0.499279 0.260793 0.500026 0.848448
C2    C     C_1   0.772198 0.499978 0.503937 -0.171570
C3    C     C_R   0.322035 0.130380 0.449490 -0.162007
C4    C     C_R   0.237628 0.063894 0.426959 -0.078806
C5    C     C_R   0.237367 0.932617 0.428764 -0.087933
C6    C     C_R   0.321549 0.867446 0.452847 -0.140723
C7    C     C_R   0.407672 0.933458 0.475154 0.085252
C8    C     C_R   0.407836 0.065511 0.474201 0.085574
C9    C     C_R   0.494365 0.128509 0.500028 -0.080786
C10   C     C_R   0.578424 0.065237 0.527683 -0.186197
C11   C     C_R   0.578403 0.936204 0.527450 -0.161854
C12   C     C_R   0.329386 0.499355 0.498930 0.847255
C13   C     C_R   0.494220 0.871616 0.500331 -0.077842
C14   C     C_R   0.329678 0.455360 0.119398 0.135364
C15   C     C_R   0.263337 0.371733 0.060150 0.122660
C16   C     C_R   0.280652 0.322270 0.932030 0.130137
C17   C     C_R   0.359669 0.364381 0.862674 -0.220628
C18   C     C_R   0.427506 0.442679 0.926173 0.100336
C19   C     C_R   0.420769 0.462261 0.066804 0.077482
C20   C     C_R   0.576007 0.540414 0.075232 -0.120588
C21   C     C_R   0.574326 0.547588 0.932448 0.005343
C22   C     C_R   0.499125 0.739267 0.500018 0.867742
C23   C     C_R   0.670639 0.500136 0.501341 0.880607
C24   C     C_1   0.227869 0.498927 0.497535 -0.157558
C25   C     C_1   0.142593 0.498933 0.498653 0.048457
C26   C     C_1   0.042729 0.499107 0.500854 0.059430
C27   C     C_1   0.957450 0.499357 0.502698 0.050698
C28   C     C_1   0.857533 0.499721 0.504118 0.028335
H1    H     H_    0.644072 0.116069 0.548075 0.150369
H2    H     H_    0.368939 0.329751 0.762646 0.216984
H3    H     H_    0.319445 0.232207 0.448164 0.129863
H4    H     H_    0.172217 0.114338 0.408735 0.169788
H5    H     H_    0.171771 0.881107 0.411819 0.158780
H6    H     H_    0.318590 0.765663 0.454744 0.136002
H7    H     H_    0.644075 0.886433 0.547335 0.148915
H8    H     H_    0.637077 0.574946 0.132060 0.165182
N1    N     N_R   0.499190 0.498800 0.142780 -0.098888
N2    N     N_R   0.499160 0.498720 0.857170 -0.128165
O1    O     O_R   0.500000 0.316780 0.614690 -0.625952
O2    O     O_R   0.499990 0.316750 0.385360 -0.598483
O3    O     O_R   0.373720 0.500010 0.614690 -0.609721
O4    O     O_R   0.373710 0.499990 0.385360 -0.583267
O5    O     O_R   0.500010 0.683250 0.614640 -0.551673
O6    O     O_R   0.500000 0.683220 0.385310 -0.598874
O7    O     O_R   0.626290 0.500010 0.614640 -0.583907
O8    O     O_R   0.626280 0.499990 0.385310 -0.601525
Zn1   Zn    Zn3+2 0.500010 0.500020 0.653130 0.985916
Zn2   Zn    Zn3+2 0.499990 0.499980 0.346870 0.977092
I1    I     I_    0.186103 0.196799 0.830081 -0.290426
C29   C     C_2   0.656488 0.606318 0.868814 0.955898
O9    O     O_2   0.735860 0.565414 0.892589 -0.625025
O10   O     O_R   0.644493 0.712523 0.787695 -0.772008
H9    H     H_    0.706458 0.744907 0.751139 0.327778
I2    I     I_    0.271877 0.635722 0.164247 -0.291814
I3    I     I_    0.135206 0.332219 0.160189 -0.289467

loop_
_geom_bond_atom_site_label_1
_geom_bond_atom_site_label_2
_ccdc_geom_bond_type
C29   O10   S    
C24   C25   T    
C6    C7    A    
C23   O7    A    
C9    C10   A    
C12   C24   S    
C22   O5    A    
N2    Zn1   S    
C6    H6    S    
C20   C21   A    
C11   H7    S    
C17   C18   A    
C18   N2    A    
C7    C8    A    
C23   O8    A    
O4    Zn2   S    
O10   H9    S    
N1    Zn2   S    
C3    H3    S    
C20   N1    A    
C11   C13   A    
C10   H1    S    
C26   C27   T    
C4    H4    S    
C17   H2    S    
C21   C29   S    
C14   I2    S    
C13   C22   S    
C3    C8    A    
O7    Zn1   S    
O3    Zn1   S    
C5    C6    A    
O8    Zn2   S    
C16   C17   A    
C10   C11   A    
C1    O1    A    
C12   O4    A    
C15   C16   A    
C20   H8    S    
O6    Zn2   S    
C7    C13   A    
C1    C9    S    
C16   I1    S    
C12   O3    A    
O1    Zn1   S    
C18   C19   A    
C2    C23   S    
O2    Zn2   S    
C14   C15   A    
C8    C9    A    
C2    C28   T    
C19   N1    A    
C1    O2    A    
C29   O9    D    
C25   C26   S    
O5    Zn1   S    
C14   C19   A    
C22   O6    A    
C21   N2    A    
C3    C4    A    
C15   I3    S    
C4    C5    A    
C27   C28   S    
C5    H5    S    
