data_mof_unit_33819.cif
_audit_creation_date              2012-12-11T14:54:28-0500
_audit_creation_method            fapswitch 2.2
_symmetry_space_group_name_H-M    P1
_symmetry_Int_Tables_number       1
_space_group_crystal_system       triclinic
_cell_length_a                    18.870913
_cell_length_b                    10.995402
_cell_length_c                    18.792554
_cell_angle_alpha                 90.12558
_cell_angle_beta                  90.289546
_cell_angle_gamma                 90.01595
_cell_volume                      3899.26924644

loop_
_atom_site_label
_atom_site_type_symbol
_atom_type_description
_atom_site_fract_x
_atom_site_fract_y
_atom_site_fract_z
_atom_type_partial_charge
C1    C     C_R   0.729587 0.374186 0.645019 0.563131
C2    C     C_R   0.272208 0.371358 0.356595 0.573584
C3    C     C_R   0.229587 0.874186 0.645019 0.563128
C4    C     C_R   0.772208 0.871357 0.356595 0.573580
C5    C     C_3   0.547349 0.353271 0.452428 -0.274396
C6    C     C_3   0.559387 0.357683 0.532126 -0.241184
C7    C     C_3   0.047351 0.853265 0.452427 -0.274396
C8    C     C_3   0.059391 0.857678 0.532124 -0.241182
C9    C     C_R   0.689536 0.888715 0.537456 -0.146735
C10   C     C_R   0.267398 0.829950 0.451856 -0.164906
C11   C     C_R   0.189536 0.388717 0.537456 -0.146736
C12   C     C_R   0.767385 0.329945 0.451854 -0.164908
C13   C     C_R   0.694802 0.880420 0.463696 0.053262
C14   C     C_R   0.265360 0.808154 0.524407 0.052117
C15   C     C_R   0.194802 0.380422 0.463695 0.053262
C16   C     C_R   0.765345 0.308147 0.524405 0.052122
C17   C     C_R   0.761686 0.890823 0.432253 0.057426
C18   C     C_R   0.246608 0.902719 0.572004 0.044790
C19   C     C_R   0.261685 0.390825 0.432252 0.057431
C20   C     C_R   0.746607 0.402717 0.572003 0.044788
C21   C     C_R   0.822623 0.902550 0.475166 -0.173470
C22   C     C_R   0.231786 0.018741 0.546392 -0.176822
C23   C     C_R   0.322623 0.402552 0.475166 -0.173467
C24   C     C_R   0.731799 0.518745 0.546394 -0.176826
C25   C     C_R   0.817258 0.909493 0.548242 -0.155719
C26   C     C_R   0.235079 0.040015 0.474133 -0.132857
C27   C     C_R   0.317258 0.409494 0.548242 -0.155713
C28   C     C_R   0.735093 0.540021 0.474135 -0.132851
C29   C     C_R   0.750475 0.909873 0.579339 0.003032
C30   C     C_R   0.252294 0.945117 0.427175 0.017702
C31   C     C_R   0.250474 0.409875 0.579338 0.003028
C32   C     C_R   0.752295 0.445118 0.427175 0.017702
C33   C     C_R   0.501069 0.053528 0.963322 -0.138595
C34   C     C_R   0.497208 0.053290 0.035937 -0.138995
C35   C     C_R   0.001070 0.553528 0.963322 -0.138592
C36   C     C_R   0.997209 0.553290 0.035937 -0.138994
C37   C     C_R   0.492016 0.163053 0.073444 0.037631
C38   C     C_R   0.507551 0.163425 0.926401 0.037533
C39   C     C_R   0.992015 0.663053 0.073444 0.037628
C40   C     C_R   0.007548 0.663424 0.926400 0.037529
C41   C     C_R   0.495503 0.274097 0.036928 -0.142455
C42   C     C_R   0.505120 0.274261 0.963488 -0.143189
C43   C     C_R   0.995497 0.774097 0.036927 -0.142448
C44   C     C_R   0.005112 0.774261 0.963486 -0.143184
C45   C     C_R   0.530601 0.155535 0.647714 0.572870
C46   C     C_R   0.461982 0.153294 0.356958 0.567199
C47   C     C_R   0.030601 0.655535 0.647714 0.572868
C48   C     C_R   0.961980 0.653294 0.356959 0.567202
C49   C     C_R   0.787660 0.049599 0.978939 0.263730
C50   C     C_R   0.212847 0.050544 0.021115 0.263611
C51   C     C_R   0.287653 0.549613 0.978940 0.263735
C52   C     C_R   0.712850 0.550548 0.021115 0.263612
C53   C     C_R   0.792342 0.023896 0.051091 -0.109112
C54   C     C_R   0.208178 0.024870 0.948891 -0.109142
C55   C     C_R   0.292339 0.523902 0.051092 -0.109127
C56   C     C_R   0.708180 0.524872 0.948890 -0.109145
C57   C     C_R   0.745849 0.940817 0.082651 -0.019705
C58   C     C_R   0.254320 0.941118 0.917303 -0.019718
C59   C     C_R   0.245848 0.440819 0.082651 -0.019704
C60   C     C_R   0.754320 0.441117 0.917304 -0.019722
C61   C     C_R   0.685829 0.902351 0.044986 -0.126048
C62   C     C_R   0.314052 0.901799 0.955003 -0.126962
C63   C     C_R   0.185828 0.402351 0.044986 -0.126055
C64   C     C_R   0.814051 0.401794 0.955004 -0.126967
C65   C     C_R   0.678458 0.932061 0.973149 -0.172034
C66   C     C_R   0.321402 0.931378 0.026903 -0.172147
C67   C     C_R   0.178456 0.432063 0.973150 -0.172038
C68   C     C_R   0.821402 0.431375 0.026904 -0.172146
C69   C     C_R   0.731141 0.000675 0.938663 0.028799
C70   C     C_R   0.269027 0.000815 0.061390 0.028000
C71   C     C_R   0.231137 0.500683 0.938664 0.028807
C72   C     C_R   0.769028 0.500816 0.061390 0.028000
C73   C     C_R   0.741954 0.965258 0.648917 0.563859
C74   C     C_R   0.258968 0.972887 0.353314 0.550323
C75   C     C_R   0.241954 0.465258 0.648917 0.563852
C76   C     C_R   0.758968 0.472887 0.353314 0.550323
C77   C     C_R   0.731254 0.382528 0.851009 0.547907
C78   C     C_R   0.268766 0.382390 0.148957 0.551582
C79   C     C_R   0.231254 0.882528 0.851009 0.547909
C80   C     C_R   0.768766 0.882390 0.148957 0.551582
C81   C     C_R   0.532849 0.156884 0.853738 0.540142
C82   C     C_R   0.467049 0.156736 0.146209 0.540391
C83   C     C_R   0.032848 0.656884 0.853738 0.540136
C84   C     C_R   0.967049 0.656736 0.146209 0.540391
C85   C     C_R   0.727230 0.022879 0.861569 0.583813
C86   C     C_R   0.272838 0.022902 0.138519 0.583842
C87   C     C_R   0.227229 0.522881 0.861568 0.583826
C88   C     C_R   0.772838 0.522903 0.138519 0.583845
C89   C     C_R   0.474879 0.155151 0.433302 0.029024
C90   C     C_R   0.491864 0.165954 0.581308 0.035515
C91   C     C_R   0.974876 0.655151 0.433302 0.029024
C92   C     C_R   0.991864 0.665954 0.581308 0.035514
C93   C     C_R   0.489075 0.265262 0.466795 -0.039277
C94   C     C_R   0.499105 0.270263 0.539354 -0.038344
C95   C     C_R   0.989076 0.765261 0.466795 -0.039278
C96   C     C_R   0.999107 0.770262 0.539354 -0.038343
C97   C     C_R   0.462195 0.061000 0.550638 0.073814
C98   C     C_R   0.457977 0.052169 0.476138 0.073911
C99   C     C_R   0.962193 0.561002 0.550639 0.073813
C100  C     C_R   0.957972 0.552171 0.476139 0.073908
Cr1   Cr    Cr6+3 0.771950 0.169480 0.750100 1.048781
Cr2   Cr    Cr6+3 0.228050 0.169480 0.249900 1.047530
Cr3   Cr    Cr6+3 0.271950 0.669480 0.750100 1.048793
Cr4   Cr    Cr6+3 0.728050 0.669480 0.249900 1.047530
Cr5   Cr    Cr6+3 0.614930 0.323340 0.749170 1.002930
Cr6   Cr    Cr6+3 0.385070 0.323340 0.250830 1.004487
Cr7   Cr    Cr6+3 0.114930 0.823340 0.749170 1.002920
Cr8   Cr    Cr6+3 0.885070 0.823340 0.250830 1.004487
Cr9   Cr    Cr6+3 0.616590 0.010620 0.750610 1.015357
Cr10  Cr    Cr6+3 0.383410 0.010620 0.249390 1.029737
Cr11  Cr    Cr6+3 0.116590 0.510620 0.750610 1.015355
Cr12  Cr    Cr6+3 0.883410 0.510620 0.249390 1.029740
H1    H     H_    0.835974 0.062768 0.081106 0.141540
H2    H     H_    0.164789 0.064192 0.918839 0.140760
H3    H     H_    0.335972 0.562772 0.081106 0.141529
H4    H     H_    0.664791 0.564196 0.918838 0.140759
H5    H     H_    0.646357 0.846005 0.070170 0.182277
H6    H     H_    0.353230 0.844712 0.929813 0.182595
H7    H     H_    0.146358 0.346000 0.070169 0.182282
H8    H     H_    0.853228 0.344704 0.929814 0.182600
H9    H     H_    0.633122 0.897194 0.944079 0.143155
H10   H     H_    0.366404 0.895657 0.056020 0.142911
H11   H     H_    0.133122 0.397192 0.944079 0.143156
H12   H     H_    0.866403 0.395651 0.056021 0.142917
H13   H     H_    0.027156 0.940357 0.430295 0.145675
H14   H     H_    0.110686 0.816586 0.548123 0.169596
H15   H     H_    0.527151 0.440361 0.430296 0.145675
H16   H     H_    0.610683 0.316596 0.548125 0.169603
H17   H     H_    0.592187 0.311899 0.422754 0.143223
H18   H     H_    0.547544 0.447958 0.555987 0.146126
H19   H     H_    0.092189 0.811890 0.422752 0.143223
H20   H     H_    0.047551 0.947954 0.555985 0.146128
H21   H     H_    0.637174 0.889131 0.560895 0.140310
H22   H     H_    0.281156 0.757553 0.415150 0.121157
H23   H     H_    0.137174 0.389132 0.560894 0.140310
H24   H     H_    0.781134 0.257543 0.415147 0.121154
H25   H     H_    0.874859 0.908120 0.452093 0.151424
H26   H     H_    0.216216 0.091558 0.581991 0.129526
H27   H     H_    0.374859 0.408121 0.452093 0.151423
H28   H     H_    0.716239 0.591567 0.581994 0.129523
H29   H     H_    0.864649 0.925470 0.579713 0.140093
H30   H     H_    0.224330 0.130661 0.454671 0.153299
H31   H     H_    0.364648 0.425471 0.579713 0.140098
H32   H     H_    0.724355 0.630672 0.454674 0.153296
H33   H     H_    0.502872 0.966057 0.936729 0.128771
H34   H     H_    0.494511 0.965691 0.062071 0.128396
H35   H     H_    0.002875 0.466056 0.936730 0.128773
H36   H     H_    0.994515 0.465691 0.062072 0.128400
H37   H     H_    0.489692 0.359772 0.064771 0.109830
H38   H     H_    0.511862 0.359982 0.936118 0.109788
H39   H     H_    0.989686 0.859772 0.064770 0.109827
H40   H     H_    0.011850 0.859982 0.936115 0.109776
O1    O     O_R   0.787510 0.042610 0.670410 -0.494278
O2    O     O_R   0.212490 0.042610 0.329590 -0.523565
O3    O     O_R   0.287510 0.542610 0.670410 -0.494274
O4    O     O_R   0.712490 0.542610 0.329590 -0.523561
O5    O     O_R   0.556450 0.252890 0.823790 -0.506424
O6    O     O_R   0.443550 0.252890 0.176210 -0.504789
O7    O     O_R   0.056450 0.752890 0.823790 -0.506428
O8    O     O_R   0.943550 0.752890 0.176210 -0.504790
O9    O     O_R   0.545750 0.051070 0.830560 -0.535407
O10   O     O_R   0.454250 0.051070 0.169440 -0.536294
O11   O     O_R   0.045750 0.551070 0.830560 -0.535406
O12   O     O_R   0.954250 0.551070 0.169440 -0.536292
O13   O     O_R   0.681210 0.959150 0.825320 -0.520164
O14   O     O_R   0.318790 0.959150 0.174680 -0.518750
O15   O     O_R   0.181210 0.459150 0.825320 -0.520167
O16   O     O_R   0.818790 0.459150 0.174680 -0.518751
O17   O     O_3   0.667820 0.167810 0.749960 -0.273496
O18   O     O_3   0.332180 0.167810 0.250040 -0.285416
O19   O     O_3   0.167820 0.667810 0.749960 -0.273503
O20   O     O_3   0.832180 0.667810 0.250040 -0.285418
O21   O     O_R   0.765670 0.292090 0.675090 -0.465082
O22   O     O_R   0.234330 0.292090 0.324910 -0.472311
O23   O     O_R   0.265670 0.792090 0.675090 -0.465078
O24   O     O_R   0.734330 0.792090 0.324910 -0.472310
O25   O     O_R   0.670220 0.409020 0.668560 -0.534985
O26   O     O_R   0.329780 0.409020 0.331440 -0.537209
O27   O     O_R   0.170220 0.909020 0.668560 -0.534989
O28   O     O_R   0.829780 0.909020 0.331440 -0.537208
O29   O     O_R   0.556580 0.251590 0.674980 -0.511154
O30   O     O_R   0.443420 0.251590 0.325020 -0.509626
O31   O     O_R   0.056580 0.751590 0.674980 -0.511155
O32   O     O_R   0.943420 0.751590 0.325020 -0.509627
O33   O     O_R   0.545890 0.049670 0.670030 -0.483755
O34   O     O_R   0.454110 0.049670 0.329970 -0.467433
O35   O     O_R   0.045890 0.549670 0.670030 -0.483756
O36   O     O_R   0.954110 0.549670 0.329970 -0.467434
O37   O     O_R   0.681340 0.957860 0.676500 -0.507749
O38   O     O_R   0.318660 0.957860 0.323500 -0.482631
O39   O     O_R   0.181340 0.457860 0.676500 -0.507752
O40   O     O_R   0.818660 0.457860 0.323500 -0.482629
O41   O     O_R   0.787380 0.044010 0.830940 -0.475694
O42   O     O_R   0.212620 0.044010 0.169060 -0.472510
O43   O     O_R   0.287380 0.544010 0.830940 -0.475652
O44   O     O_R   0.712620 0.544010 0.169060 -0.472507
O45   O     O_R   0.765540 0.293390 0.823910 -0.493150
O46   O     O_R   0.234460 0.293390 0.176090 -0.488628
O47   O     O_R   0.265540 0.793390 0.823910 -0.493149
O48   O     O_R   0.734460 0.793390 0.176090 -0.488626
O49   O     O_R   0.670090 0.410410 0.829090 -0.531842
O50   O     O_R   0.329910 0.410410 0.170910 -0.530623
O51   O     O_R   0.170090 0.910410 0.829090 -0.531842
O52   O     O_R   0.829910 0.910410 0.170910 -0.530625
N1    N     N_3   0.442370 0.960274 0.594920 -0.603880
H41   H     H_    0.472275 0.883924 0.581033 0.227617
H42   H     H_    0.388830 0.941320 0.586580 0.234571
N2    N     N_3   0.441281 0.936769 0.444427 -0.581076
H43   H     H_    0.393888 0.905847 0.465503 0.238453
H44   H     H_    0.480770 0.874461 0.458164 0.208587
N3    N     N_3   0.942367 0.460277 0.594922 -0.603882
H45   H     H_    0.972271 0.383926 0.581035 0.227618
H46   H     H_    0.888827 0.441323 0.586582 0.234566
N4    N     N_3   0.941271 0.436773 0.444429 -0.581074
H47   H     H_    0.893877 0.405855 0.465506 0.238453
H48   H     H_    0.980759 0.374460 0.458163 0.208591
O53   O     O_3   0.837086 0.125806 0.948140 -0.566838
C101  C     C_3   0.903605 0.067149 0.946078 -0.119267
H49   H     H_    0.899597 0.974702 0.922045 0.137833
H50   H     H_    0.928092 0.062223 0.999874 0.085907
H51   H     H_    0.939632 0.121420 0.912164 0.128982
O54   O     O_3   0.163707 0.127315 0.052041 -0.566598
C102  C     C_3   0.096898 0.069547 0.053716 -0.118783
H52   H     H_    0.100413 0.976916 0.077330 0.137703
H53   H     H_    0.072489 0.065273 0.999852 0.085437
H54   H     H_    0.061078 0.124102 0.087818 0.130023
O55   O     O_3   0.337078 0.625819 0.948136 -0.566820
C103  C     C_3   0.403608 0.567192 0.946108 -0.119288
H55   H     H_    0.399614 0.474657 0.922189 0.137736
H56   H     H_    0.428120 0.562479 0.999900 0.085923
H57   H     H_    0.439605 0.621367 0.912111 0.129035
O56   O     O_3   0.663711 0.627322 0.052040 -0.566593
C104  C     C_3   0.596900 0.569559 0.053712 -0.118788
H58   H     H_    0.600413 0.476914 0.077311 0.137689
H59   H     H_    0.572486 0.565315 0.999848 0.085434
H60   H     H_    0.561085 0.624103 0.087828 0.130023
N5    N     N_3   0.632283 0.867506 0.420878 -0.609803
H61   H     H_    0.605459 0.789458 0.437546 0.222437
H62   H     H_    0.599861 0.942732 0.430570 0.234403
N6    N     N_3   0.278031 0.687720 0.548719 -0.576244
H63   H     H_    0.241561 0.631743 0.522490 0.229231
H64   H     H_    0.328991 0.662819 0.532679 0.228274
N7    N     N_3   0.132282 0.367507 0.420878 -0.609809
H65   H     H_    0.105462 0.289455 0.437544 0.222436
H66   H     H_    0.099857 0.442725 0.430573 0.234405
N8    N     N_3   0.777999 0.187707 0.548715 -0.576245
H67   H     H_    0.741525 0.131742 0.522482 0.229219
H68   H     H_    0.828958 0.162790 0.532679 0.228289

loop_
_geom_bond_atom_site_label_1
_geom_bond_atom_site_label_2
_ccdc_geom_bond_type
Cr2   O18   S    
C14   N6    S    
C49   C53   A    
N8    H68   S    
C58   C62   A    
C93   C94   A    
C73   O1    A    
C55   C59   A    
C34   C37   A    
Cr4   O48   S    
C41   C42   A    
C88   O44   A    
Cr1   O21   S    
C102  H52   S    
C8    C96   S    
C21   H25   S    
C6    H18   S    
C85   O41   A    
C68   H12   S    
C103  H56   S    
C97   C98   A    
Cr10  O10   S    
C102  H54   S    
C45   O29   A    
C7    C8    S    
Cr4   O24   S    
C46   C89   S    
Cr7   O19   S    
N1    H41   S    
C24   H28   S    
C15   C19   A    
C100  N4    S    
C44   H40   S    
Cr3   O43   S    
C37   C41   A    
C52   C72   A    
C102  H53   S    
C64   C68   A    
C23   H27   S    
Cr9   O17   S    
C39   C84   S    
C48   O36   A    
C83   O11   A    
Cr2   O46   S    
C5    C6    S    
C30   C74   S    
Cr1   O45   S    
C41   H37   S    
C9    H21   S    
N7    H65   S    
Cr12  O16   S    
C92   C96   A    
Cr8   O28   S    
C3    C18   S    
C47   C92   S    
C78   O50   A    
O55   C103  S    
C9    C13   A    
Cr9   O13   S    
Cr5   O5    S    
C3    O27   A    
C73   O37   A    
Cr5   O29   S    
C74   O38   A    
C52   C56   A    
C11   C15   A    
C36   H36   S    
C87   O15   A    
C95   C96   A    
C53   H1    S    
N2    H43   S    
C88   O16   A    
C48   C91   S    
C86   O14   A    
C8    H20   S    
C27   H31   S    
C66   H10   S    
Cr1   O17   S    
C2    O26   A    
C28   H32   S    
C65   H9    S    
C91   C100  A    
C104  H58   S    
Cr2   O2    S    
C90   C97   A    
C7    H19   S    
C84   O12   A    
C9    C29   A    
Cr6   O26   S    
Cr4   O20   S    
C5    H17   S    
C11   C31   A    
C49   C69   A    
N5    H61   S    
C12   C32   A    
Cr3   O19   S    
Cr6   O18   S    
C40   C83   S    
C98   N2    S    
Cr12  O20   S    
C1    O25   A    
C4    O28   A    
C12   H24   S    
C75   O39   A    
Cr2   O42   S    
C59   C78   S    
Cr3   O23   S    
C103  H55   S    
C72   C88   S    
Cr1   O41   S    
C90   C94   A    
C15   N7    S    
N1    H42   S    
C25   C29   A    
Cr12  O12   S    
C63   C67   A    
C60   C77   S    
C59   C63   A    
C81   O5    A    
Cr8   O32   S    
C27   C31   A    
C12   C16   A    
Cr11  O39   S    
C28   C32   A    
Cr11  O11   S    
C47   O31   A    
C10   C14   A    
Cr9   O37   S    
C48   O32   A    
C62   C66   A    
N4    H47   S    
C52   O56   S    
C13   N5    S    
C82   O10   A    
C51   C55   A    
Cr9   O33   S    
O53   C101  S    
Cr6   O6    S    
C101  H50   S    
C61   H5    S    
C76   O4    A    
C46   O34   A    
C56   C60   A    
C49   O53   S    
C68   C72   A    
C74   O2    A    
C19   C23   A    
C43   C44   A    
Cr7   O51   S    
C76   O40   A    
C69   C85   S    
C11   H23   S    
Cr6   O50   S    
C63   H7    S    
C10   C30   A    
Cr5   O49   S    
N3    H45   S    
Cr1   O1    S    
C16   C20   A    
C1    O21   A    
Cr7   O7    S    
C5    H15   S    
N6    H64   S    
C33   C34   A    
C56   H4    S    
C83   O7    A    
C82   O6    A    
C35   H35   S    
C7    H13   S    
C45   C90   S    
C104  H59   S    
Cr10  O34   S    
C33   H33   S    
Cr12  O40   S    
C71   C87   S    
C4    C17   S    
C58   C79   S    
C10   H22   S    
N3    H46   S    
C57   C80   S    
C26   C30   A    
C23   C27   A    
N5    H62   S    
C38   C81   S    
C22   C26   A    
Cr5   O17   S    
C37   C82   S    
Cr4   O4    S    
Cr11  O15   S    
C47   O35   A    
C70   C86   S    
Cr10  O18   S    
C31   C75   S    
C43   H39   S    
C101  H51   S    
C3    O23   A    
Cr12  O36   S    
C54   C58   A    
C8    H14   S    
C21   C25   A    
N8    H67   S    
C50   O54   S    
C1    C20   S    
C53   C57   A    
C79   O47   A    
Cr7   O27   S    
C2    C19   S    
C18   C22   A    
C81   O9    A    
C14   C18   A    
C36   C39   A    
C25   H29   S    
C24   C28   A    
Cr5   O25   S    
C77   O49   A    
C99   N3    S    
C32   C76   S    
C5    C93   S    
N6    H63   S    
C51   C71   A    
C57   C61   A    
C84   O8    A    
Cr8   O8    S    
C16   N8    S    
Cr2   O22   S    
C7    C95   S    
C22   H26   S    
Cr11  O35   S    
C33   C38   A    
C64   H8    S    
C99   C100  A    
C13   C17   A    
C89   C98   A    
C60   C64   A    
C79   O51   A    
C85   O13   A    
C46   O30   A    
Cr8   O20   S    
C35   C40   A    
C50   C70   A    
N4    H48   S    
C6    H16   S    
C67   H11   S    
C50   C54   A    
N2    H44   S    
Cr9   O9    S    
C86   O42   A    
C51   O55   S    
Cr10  O14   S    
C45   O33   A    
C101  H49   S    
C80   O52   A    
C55   H3    S    
C65   C69   A    
C54   H2    S    
Cr3   O47   S    
O56   C104  S    
Cr10  O38   S    
C78   O46   A    
C67   C71   A    
Cr6   O30   S    
C61   C65   A    
C89   C93   A    
O54   C102  S    
C42   H38   S    
C104  H60   S    
C17   C21   A    
C62   H6    S    
C87   O43   A    
C38   C42   A    
C75   O3    A    
C40   C44   A    
C29   C73   S    
C66   C70   A    
C39   C43   A    
C91   C95   A    
Cr8   O52   S    
C4    O24   A    
C6    C94   S    
Cr7   O31   S    
C34   H34   S    
C35   C36   A    
N7    H66   S    
C97   N1    S    
C26   H30   S    
C77   O45   A    
C20   C24   A    
C103  H57   S    
C2    O22   A    
Cr3   O3    S    
C92   C99   A    
Cr4   O44   S    
Cr11  O19   S    
C80   O48   A    
