data_mof_unit_59794.cif
_audit_creation_date              2012-12-11T14:15:00-0500
_audit_creation_method            fapswitch 2.2
_symmetry_space_group_name_H-M    P1
_symmetry_Int_Tables_number       1
_space_group_crystal_system       triclinic
_cell_length_a                    24.473601
_cell_length_b                    17.287896
_cell_length_c                    15.700501
_cell_angle_alpha                 89.999988
_cell_angle_beta                  129.40117
_cell_angle_gamma                 90.0
_cell_volume                      5133.05626193

loop_
_atom_site_label
_atom_site_type_symbol
_atom_type_description
_atom_site_fract_x
_atom_site_fract_y
_atom_site_fract_z
_atom_type_partial_charge
C1    C     C_R   0.331451 0.398210 0.196502 0.479156
C2    C     C_R   0.684847 0.610342 0.501525 -0.007313
C3    C     C_R   0.815153 0.110342 0.498475 -0.007315
C4    C     C_R   0.184847 0.110342 0.501525 -0.007314
C5    C     C_R   0.381657 0.685084 0.215534 -0.061422
C6    C     C_R   0.618343 0.685084 0.784466 -0.061421
C7    C     C_R   0.881657 0.185084 0.215534 -0.061421
C8    C     C_R   0.118343 0.185084 0.784466 -0.061423
C9    C     C_2   0.735142 0.644692 0.413258 -0.143121
C10   C     C_2   0.264858 0.644692 0.586742 -0.143123
C11   C     C_2   0.235142 0.144692 0.413258 -0.143122
C12   C     C_R   0.668549 0.398210 0.803498 0.479156
C13   C     C_2   0.764858 0.144692 0.586742 -0.143119
C14   C     C_2   0.744612 0.625083 0.504281 -0.153066
C15   C     C_2   0.255387 0.625083 0.495719 -0.153064
C16   C     C_2   0.244612 0.125082 0.504281 -0.153064
C17   C     C_2   0.755387 0.125083 0.495718 -0.153064
C18   C     C_2   0.283432 0.200131 0.421018 0.501262
C19   C     C_2   0.716568 0.200131 0.578982 0.501261
C20   C     C_2   0.783432 0.700131 0.421018 0.501263
C21   C     C_2   0.216568 0.700131 0.578982 0.501263
C22   C     C_2   0.306933 0.260227 0.491319 -0.242363
C23   C     C_R   0.831451 0.898210 0.196502 0.479156
C24   C     C_2   0.693067 0.260227 0.508681 -0.242363
C25   C     C_2   0.806933 0.760227 0.491319 -0.242363
C26   C     C_2   0.193067 0.760227 0.508681 -0.242363
C27   C     C_2   0.690658 0.344348 0.977072 -0.096658
C28   C     C_2   0.309342 0.344347 0.022929 -0.096658
C29   C     C_2   0.190658 0.844347 0.977071 -0.096658
C30   C     C_2   0.809342 0.844347 0.022929 -0.096658
C31   C     C_2   0.760691 0.352198 0.052397 -0.039274
C32   C     C_2   0.239309 0.352198 0.947603 -0.039275
C33   C     C_2   0.260691 0.852198 0.052397 -0.039274
C34   C     C_R   0.168549 0.898210 0.803498 0.479156
C35   C     C_2   0.739309 0.852198 0.947603 -0.039273
C36   C     C_2   0.355839 0.760618 0.159906 -0.074629
C37   C     C_2   0.644161 0.760618 0.840094 -0.074630
C38   C     C_2   0.855839 0.260618 0.159907 -0.074630
C39   C     C_2   0.144161 0.260618 0.840094 -0.074627
C40   C     C_R   0.601643 0.368136 0.410839 0.483433
C41   C     C_R   0.398356 0.368136 0.589161 0.483434
C42   C     C_R   0.101643 0.868136 0.410839 0.483432
C43   C     C_R   0.898357 0.868136 0.589161 0.483432
C44   C     C_2   0.299645 0.794801 0.139932 -0.145284
C45   C     C_R   0.384220 0.597239 0.589594 -0.078627
C46   C     C_2   0.700355 0.794800 0.860068 -0.145284
C47   C     C_2   0.799645 0.294801 0.139932 -0.145282
C48   C     C_2   0.200355 0.294800 0.860068 -0.145283
C49   C     C_R   0.668839 0.362965 0.593523 -0.043813
C50   C     C_R   0.331161 0.362965 0.406477 -0.043813
C51   C     C_R   0.168839 0.862965 0.593523 -0.043812
C52   C     C_R   0.831161 0.862965 0.406477 -0.043813
C53   C     C_R   0.577618 0.392098 0.801167 -0.102065
C54   C     C_R   0.422382 0.392098 0.198833 -0.102066
C55   C     C_R   0.077618 0.892098 0.801167 -0.102066
C56   C     C_R   0.615779 0.597239 0.410406 -0.078619
C57   C     C_R   0.922382 0.892098 0.198833 -0.102066
C58   C     C_R   0.351477 0.375962 0.134936 -0.028141
C59   C     C_R   0.648523 0.375963 0.865064 -0.028141
C60   C     C_R   0.851477 0.875962 0.134937 -0.028141
C61   C     C_R   0.148523 0.875962 0.865063 -0.028141
C62   C     C_R   0.653393 0.325257 0.503576 -0.005007
C63   C     C_R   0.346607 0.325257 0.496424 -0.005008
C64   C     C_R   0.153393 0.825257 0.503576 -0.005007
C65   C     C_R   0.846607 0.825257 0.496424 -0.005006
C66   C     C_R   0.310856 0.597470 0.408234 0.418724
C67   C     C_R   0.884220 0.097239 0.589594 -0.078606
C68   C     C_R   0.689144 0.597470 0.591766 0.418723
C69   C     C_R   0.810856 0.097470 0.408234 0.418723
C70   C     C_R   0.189144 0.097470 0.591766 0.418724
C71   C     C_R   0.437540 0.641718 0.237689 0.388006
C72   C     C_R   0.562459 0.641718 0.762311 0.387997
C73   C     C_R   0.937540 0.141718 0.237689 0.388010
C74   C     C_R   0.062460 0.141718 0.762311 0.388022
C75   C     C_R   0.648554 0.641678 0.750190 -0.097435
C76   C     C_R   0.351446 0.641678 0.249809 -0.097437
C77   C     C_R   0.148554 0.141678 0.750191 -0.097438
C78   C     C_R   0.115779 0.097239 0.410406 -0.078616
C79   C     C_R   0.851446 0.141678 0.249809 -0.097436
C80   C     C_R   0.315153 0.610342 0.498475 -0.007311
Cl1   Cl    Cl    0.245353 0.420878 0.145438 -0.579738
Cl2   Cl    Cl    0.768290 0.573191 0.722460 -0.558292
Cl3   Cl    Cl    0.731710 0.073191 0.277540 -0.558289
Cl4   Cl    Cl    0.268290 0.073191 0.722460 -0.558289
Cl5   Cl    Cl    0.754647 0.420879 0.854562 -0.579738
Cl6   Cl    Cl    0.745353 0.920878 0.145438 -0.579735
Cl7   Cl    Cl    0.254647 0.920878 0.854562 -0.579735
Cl8   Cl    Cl    0.301565 0.188950 0.329435 -0.558098
Cl9   Cl    Cl    0.698434 0.188950 0.670565 -0.558097
Cl10  Cl    Cl    0.801565 0.688950 0.329435 -0.558097
Cl11  Cl    Cl    0.198434 0.688950 0.670565 -0.558098
Cl12  Cl    Cl    0.231710 0.573191 0.277540 -0.558291
H1    H     H_    0.795667 0.635050 0.584665 0.195681
H2    H     H_    0.725760 0.771050 0.829146 0.152296
H3    H     H_    0.774240 0.271051 0.170854 0.152297
H4    H     H_    0.225760 0.271051 0.829146 0.152297
H5    H     H_    0.790235 0.391091 0.041478 0.207383
H6    H     H_    0.209765 0.391092 0.958521 0.207383
H7    H     H_    0.290235 0.891092 0.041479 0.207383
H8    H     H_    0.709765 0.891092 0.958521 0.207383
H9    H     H_    0.379331 0.785947 0.126589 0.190902
H10   H     H_    0.620669 0.785947 0.873411 0.190904
H11   H     H_    0.879331 0.285947 0.126589 0.190900
H12   H     H_    0.204333 0.635050 0.415335 0.195681
H13   H     H_    0.120669 0.285947 0.873412 0.190898
H14   H     H_    0.663172 0.306113 0.993850 0.167308
H15   H     H_    0.336828 0.306111 0.006151 0.167309
H16   H     H_    0.163172 0.806111 0.993849 0.167309
H17   H     H_    0.836828 0.806111 0.006151 0.167308
H18   H     H_    0.710748 0.348690 0.678201 0.226192
H19   H     H_    0.289252 0.348690 0.321799 0.226193
H20   H     H_    0.210748 0.848690 0.678201 0.226193
H21   H     H_    0.789252 0.848690 0.321799 0.226193
H22   H     H_    0.549482 0.393224 0.832463 0.230829
H23   H     H_    0.295667 0.135050 0.584665 0.195682
H24   H     H_    0.450518 0.393223 0.167537 0.230829
H25   H     H_    0.049482 0.893223 0.832463 0.230829
H26   H     H_    0.950518 0.893223 0.167537 0.230829
H27   H     H_    0.693304 0.657041 0.756095 0.170072
H28   H     H_    0.306696 0.657041 0.243905 0.170073
H29   H     H_    0.193304 0.157040 0.756095 0.170073
H30   H     H_    0.806696 0.157041 0.243905 0.170073
H31   H     H_    0.401249 0.585987 0.670397 0.233218
H32   H     H_    0.598751 0.585987 0.329603 0.233217
H33   H     H_    0.901249 0.085987 0.670397 0.233216
H34   H     H_    0.704333 0.135050 0.415335 0.195682
H35   H     H_    0.098751 0.085987 0.329603 0.233217
H36   H     H_    0.686130 0.632297 0.331606 0.210191
H37   H     H_    0.313870 0.632297 0.668393 0.210191
H38   H     H_    0.186130 0.132297 0.331607 0.210191
H39   H     H_    0.813870 0.132297 0.668393 0.210191
H40   H     H_    0.666595 0.366090 0.256673 0.392774
H41   H     H_    0.333406 0.366090 0.743327 0.392774
H42   H     H_    0.166595 0.866090 0.256673 0.392774
H43   H     H_    0.833406 0.866080 0.743327 0.392772
H44   H     H_    0.521045 0.760065 0.238697 0.342968
H45   H     H_    0.294428 0.262972 0.546108 0.193957
H46   H     H_    0.478952 0.760063 0.761293 0.342960
H47   H     H_    0.021044 0.260067 0.238693 0.342971
H48   H     H_    0.978959 0.260070 0.761321 0.342981
H49   H     H_    0.705573 0.262973 0.453893 0.193957
H50   H     H_    0.794427 0.762972 0.546107 0.193955
H51   H     H_    0.205573 0.762973 0.453893 0.193957
H52   H     H_    0.274240 0.771051 0.170854 0.152297
N1    N     N_R   0.389060 0.424180 0.294540 -0.095754
N2    N     N_R   0.374530 0.423490 0.443400 -0.084071
N3    N     N_R   0.125470 0.923490 0.556600 -0.084071
N4    N     N_R   0.874530 0.923490 0.443400 -0.084071
N5    N     N_R   0.555250 0.423100 0.705420 -0.089234
N6    N     N_R   0.444750 0.423100 0.294580 -0.089234
N7    N     N_R   0.055250 0.923100 0.705420 -0.089234
N8    N     N_R   0.944750 0.923100 0.294580 -0.089234
N9    N     N_R   0.375210 0.577180 0.443400 -0.105478
N10   N     N_R   0.624790 0.577180 0.556600 -0.105478
N11   N     N_R   0.875210 0.077180 0.443400 -0.105478
N12   N     N_R   0.610940 0.424180 0.705460 -0.095754
N13   N     N_R   0.124790 0.077180 0.556600 -0.105478
N14   N     N_R   0.445430 0.577570 0.294580 -0.099715
N15   N     N_R   0.554570 0.577570 0.705420 -0.099714
N16   N     N_R   0.945430 0.077570 0.294580 -0.099716
N17   N     N_R   0.054570 0.077570 0.705420 -0.099718
N18   N     N_R   0.611620 0.576500 0.705460 -0.065726
N19   N     N_R   0.388380 0.576500 0.294540 -0.065726
N20   N     N_R   0.111620 0.076500 0.705460 -0.065727
N21   N     N_R   0.888380 0.076500 0.294540 -0.065727
N22   N     N_R   0.421010 0.576890 0.556640 -0.100356
N23   N     N_R   0.889060 0.924180 0.294540 -0.095754
N24   N     N_R   0.578990 0.576890 0.443360 -0.100356
N25   N     N_R   0.921010 0.076890 0.556640 -0.100357
N26   N     N_R   0.078990 0.076890 0.443360 -0.100357
N27   N     N_R   0.110940 0.924180 0.705460 -0.095754
N28   N     N_R   0.579670 0.423790 0.443360 -0.119093
N29   N     N_R   0.420330 0.423790 0.556640 -0.119093
N30   N     N_R   0.079670 0.923790 0.443360 -0.119093
N31   N     N_R   0.920330 0.923790 0.556640 -0.119093
N32   N     N_R   0.625470 0.423490 0.556600 -0.084071
Ni1   Ni    Ni4+2 0.383200 0.500680 0.370150 0.302380
Ni2   Ni    Ni4+2 0.616800 0.500680 0.629850 0.302381
Ni3   Ni    Ni4+2 0.883200 0.000680 0.370150 0.302381
Ni4   Ni    Ni4+2 0.116800 0.000680 0.629850 0.302381
Ni5   Ni    Ni4+2 0.512440 0.500680 0.370150 0.297182
Ni6   Ni    Ni4+2 0.487560 0.500680 0.629850 0.297181
Ni7   Ni    Ni4+2 0.012440 0.000680 0.370150 0.297182
Ni8   Ni    Ni4+2 0.987560 0.000680 0.629850 0.297182
O1    O     O_2   0.551319 0.304788 0.218198 -0.277028
O2    O     O_2   0.948682 0.804788 0.781802 -0.277035
O3    O     O_2   0.939474 0.946690 0.768715 -0.266029
O4    O     O_3   0.824783 0.868227 0.672606 -0.530875
O5    O     O_2   0.486636 0.574728 0.144218 -0.195746
O6    O     O_2   0.409194 0.685238 0.049104 -0.204302
O7    O     O_3   0.537127 0.712051 0.226164 -0.512243
O8    O     O_2   0.513364 0.574728 0.855782 -0.195747
O9    O     O_2   0.590806 0.685238 0.950896 -0.204298
O10   O     O_3   0.462872 0.712050 0.773836 -0.512235
O11   O     O_2   0.986636 0.074728 0.144218 -0.195745
O12   O     O_2   0.560526 0.446691 0.231286 -0.266036
O13   O     O_2   0.909194 0.185238 0.049104 -0.204305
O14   O     O_3   0.037128 0.212051 0.226164 -0.512246
O15   O     O_2   0.013364 0.074728 0.855782 -0.195746
O16   O     O_2   0.090806 0.185238 0.950896 -0.204311
O17   O     O_3   0.962873 0.212050 0.773836 -0.512255
O18   O     O_3   0.675217 0.368227 0.327394 -0.530877
O19   O     O_2   0.448682 0.304788 0.781802 -0.277028
O20   O     O_2   0.439474 0.446691 0.768714 -0.266036
O21   O     O_3   0.324783 0.368227 0.672606 -0.530877
O22   O     O_2   0.051319 0.804788 0.218198 -0.277029
O23   O     O_2   0.060526 0.946691 0.231285 -0.266035
O24   O     O_3   0.175217 0.868227 0.327394 -0.530877
S1    S     S_3+6 0.594329 0.372299 0.291651 -0.037986
S2    S     S_3+6 0.405671 0.372299 0.708349 -0.037985
S3    S     S_3+6 0.094329 0.872299 0.291651 -0.037986
S4    S     S_3+6 0.905671 0.872298 0.708349 -0.037985
S5    S     S_3+6 0.467169 0.652124 0.160864 0.014065
S6    S     S_3+6 0.532831 0.652124 0.839136 0.014067
S7    S     S_3+6 0.967169 0.152124 0.160864 0.014063
S8    S     S_3+6 0.032831 0.152123 0.839136 0.014059

loop_
_geom_bond_atom_site_label_1
_geom_bond_atom_site_label_2
_ccdc_geom_bond_type
C53   N5    A    
C21   C26   D    
C5    C36   S    
C11   C18   S    
C51   H20   S    
O2    S4    D    
N9    N22   A    
C1    N1    A    
C25   H50   S    
N22   Ni6   S    
N17   N20   A    
C4    C70   A    
C53   C59   A    
H47   O14   S    
N7    N27   A    
C6    C75   A    
C54   N6    A    
C52   H21   S    
C45   H31   S    
C6    C72   A    
N28   N32   A    
C73   N16   A    
C69   N11   A    
C72   N15   A    
C12   Cl5   S    
C75   N18   A    
C19   Cl9   S    
C56   H32   S    
C3    C69   A    
N5    N12   A    
C2    C68   A    
C10   C15   D    
C67   H33   S    
C54   C58   A    
C37   H10   S    
N26   Ni7   S    
C17   H34   S    
C20   C25   D    
O22   S3    D    
C28   H15   S    
C1    Cl1   S    
C46   H2    S    
N2    N29   A    
C29   C33   D    
C78   N26   A    
C40   C62   A    
C26   C64   S    
C22   C63   S    
C12   C59   A    
C43   N31   A    
N3    Ni4   S    
C23   Cl6   S    
C54   H24   S    
N19   Ni1   S    
O19   S2    D    
C8    C39   S    
C15   H12   S    
C70   Cl4   S    
C45   N22   A    
N16   Ni7   S    
O11   S7    D    
N1    N6    A    
O13   S7    D    
C43   C65   A    
C74   S8    S    
C50   N2    A    
C77   N20   A    
N32   Ni2   S    
C52   N4    A    
C31   C47   S    
O23   S3    D    
C50   C63   A    
C32   C48   S    
N10   N24   A    
N12   Ni2   S    
C12   N12   A    
C78   H35   S    
N28   Ni5   S    
O8    S6    D    
O6    S5    D    
N11   Ni3   S    
N6    Ni5   S    
N9    Ni1   S    
H46   O10   S    
C10   C21   S    
C23   C60   A    
C79   H30   S    
C29   C61   S    
C6    C37   S    
N4    N31   A    
C13   C19   S    
H44   O7    S    
C27   C31   D    
O15   S8    D    
C9    H36   S    
C28   C32   D    
C25   C65   S    
C57   N8    A    
C7    C73   A    
C42   N30   A    
C57   C60   A    
C66   Cl12  S    
C30   H17   S    
C27   H14   S    
C55   H25   S    
C71   S5    S    
C20   Cl10  S    
C40   S1    S    
C16   H23   S    
C34   C61   A    
C18   Cl8   S    
N2    Ni1   S    
C30   C60   S    
C36   H9    S    
C33   H7    S    
N13   Ni4   S    
C72   S6    S    
C4    C16   S    
C73   S7    S    
C9    C14   D    
N25   Ni8   S    
C4    C78   A    
C38   H11   S    
C69   Cl3   S    
N13   N26   A    
C74   N17   A    
C11   C16   D    
N11   N25   A    
C9    C20   S    
H42   O24   S    
C15   C80   S    
C22   H45   S    
C51   N3    A    
C24   H49   S    
C44   H52   S    
C56   N24   A    
C8    C74   A    
C13   H39   S    
N15   N18   A    
C75   H27   S    
C29   H16   S    
C76   H28   S    
N16   N21   A    
C79   N21   A    
N8    Ni7   S    
C43   S4    S    
C38   C47   D    
O5    S5    D    
N14   N19   A    
C23   N23   A    
C41   S2    S    
C30   C35   D    
N29   Ni6   S    
N4    Ni3   S    
N10   Ni2   S    
C8    C77   A    
N21   Ni3   S    
O1    S1    D    
N27   Ni4   S    
C36   C44   D    
C41   C63   A    
O18   S1    S    
O20   S2    D    
C26   H51   S    
C11   H38   S    
C42   C64   A    
H43   O4    S    
C40   N28   A    
N8    N23   A    
C53   H22   S    
C7    C79   A    
C21   Cl11  S    
C39   H13   S    
C71   N14   A    
C41   N29   A    
C24   C62   S    
C49   C62   A    
C14   H1    S    
O9    S6    D    
C18   C22   D    
C33   C44   S    
O12   S1    D    
C48   H4    S    
C3    C67   A    
C51   C64   A    
O14   S7    S    
N20   Ni4   S    
N30   Ni7   S    
O10   S6    S    
C66   N9    A    
C55   N7    A    
C28   C58   S    
C66   C80   A    
C68   N10   A    
H40   O18   S    
C13   C17   D    
C70   N13   A    
C68   Cl2   S    
N17   Ni8   S    
C19   C24   D    
C10   H37   S    
C5    C71   A    
C2    C56   A    
N23   Ni3   S    
O7    S5    S    
O4    S4    S    
N5    Ni6   S    
O21   S2    S    
C5    C76   A    
O24   S3    S    
C55   C61   A    
C50   H19   S    
O16   S8    D    
C7    C38   S    
C32   H6    S    
C3    C17   S    
C45   C80   A    
C34   Cl7   S    
C31   H5    S    
N15   Ni6   S    
C67   N25   A    
C2    C14   S    
N14   Ni5   S    
C34   N27   A    
N18   Ni2   S    
C77   H29   S    
C42   S3    S    
O17   S8    S    
C1    C58   A    
O3    S4    D    
C57   H26   S    
N24   Ni5   S    
N1    Ni1   S    
N3    N30   A    
C47   H3    S    
C39   C48   D    
C76   N19   A    
C27   C59   S    
C37   C46   D    
H48   O17   S    
C35   C46   S    
H41   O21   S    
C49   N32   A    
C52   C65   A    
C35   H8    S    
C49   H18   S    
N31   Ni8   S    
N7    Ni8   S    
