data_mof_unit_21096.cif
_audit_creation_date              2013-03-05T15:58:24-0500
_audit_creation_method            fapswitch 2.2
_symmetry_space_group_name_H-M    P1
_symmetry_Int_Tables_number       1
_space_group_crystal_system       triclinic
_cell_length_a                    7.266919
_cell_length_b                    14.601201
_cell_length_c                    15.848308
_cell_angle_alpha                 89.929824
_cell_angle_beta                  90.005253
_cell_angle_gamma                 89.795871
_cell_volume                      1681.58458555

loop_
_atom_site_label
_atom_site_type_symbol
_atom_site_description
_atom_site_fract_x
_atom_site_fract_y
_atom_site_fract_z
_atom_type_partial_charge
O1    O     O_R   0.388780 0.834790 0.412340 -0.604402
O2    O     O_R   0.111220 0.165210 0.912340 -0.576306
O3    O     O_R   0.888780 0.665210 0.587660 -0.576082
O4    O     O_R   0.611220 0.334790 0.087660 -0.581348
O5    O     O_R   0.059040 0.845930 0.587040 -0.529427
O6    O     O_R   0.440960 0.154070 0.087040 -0.548019
O7    O     O_R   0.559040 0.654070 0.412960 -0.535714
O8    O     O_R   0.940960 0.345930 0.912960 -0.519596
C1    C     C_R   0.227126 0.870130 0.613302 0.999768
C2    C     C_R   0.272736 0.132245 0.115465 0.979695
C3    C     C_R   0.727413 0.630128 0.386430 0.928185
C4    C     C_R   0.772547 0.369791 0.886267 0.998229
O9    O     O_R   0.059070 0.845930 0.412970 -0.587272
O10   O     O_R   0.440930 0.154070 0.912970 -0.560714
O11   O     O_R   0.559070 0.654070 0.587030 -0.568946
O12   O     O_R   0.940930 0.345930 0.087030 -0.573082
O13   O     O_R   0.888760 0.665210 0.412340 -0.578121
O14   O     O_R   0.611240 0.334790 0.912340 -0.590180
O15   O     O_R   0.388760 0.834790 0.587660 -0.583863
O16   O     O_R   0.111240 0.165210 0.087660 -0.609269
C5    C     C_R   0.227490 0.868074 0.385197 0.983229
C6    C     C_R   0.272101 0.132516 0.884627 0.950678
C7    C     C_R   0.727949 0.633756 0.616156 0.952169
C8    C     C_R   0.772003 0.366916 0.115738 0.920904
O17   O     O_3   0.222280 0.690700 0.500000 -0.242680
O18   O     O_3   0.277720 0.309300 0.000000 -0.245777
O19   O     O_3   0.722280 0.809300 0.500000 -0.262134
O20   O     O_3   0.777720 0.190700 0.000000 -0.267204
V1    V     V_3+5 0.947430 0.761000 0.500000 1.324501
V2    V     V_3+5 0.552570 0.239000 0.000000 1.314744
V3    V     V_3+5 0.447430 0.739000 0.500000 1.327116
V4    V     V_3+5 0.052570 0.261000 0.000000 1.321880
C9    C     C_3   0.931455 0.570445 0.735552 0.080668
C10   C     C_3   0.571677 0.427723 0.237069 0.091274
C11   C     C_3   0.297355 0.890292 0.228373 0.091534
C12   C     C_3   0.070949 0.072485 0.763037 0.089243
H1    H     H_    0.037319 0.541062 0.692271 0.150295
H2    H     H_    0.462633 0.455775 0.194631 0.146389
H3    H     H_    0.426040 0.851047 0.240628 0.133311
H4    H     H_    0.961745 0.045351 0.805656 0.148794
C13   C     C_3   0.929203 0.511558 0.817150 0.133462
C14   C     C_3   0.574215 0.486573 0.318650 0.143614
C15   C     C_3   0.334936 0.964716 0.157586 0.114500
C16   C     C_3   0.071685 0.012972 0.681588 0.130936
H5    H     H_    0.904099 0.558027 0.871344 0.184828
H6    H     H_    0.602197 0.440481 0.372949 0.181124
H7    H     H_    0.258474 0.947084 0.099194 0.147800
H8    H     H_    0.096894 0.058273 0.626106 0.165918
H9    H     H_    0.848198 0.454639 0.609982 0.101663
H10   H     H_    0.640512 0.545730 0.111599 0.099944
H11   H     H_    0.522841 0.980698 0.327863 0.137428
H12   H     H_    0.136132 0.953880 0.886677 0.108454
H13   H     H_    0.881690 0.354670 0.715696 0.253873
H14   H     H_    0.612766 0.648339 0.217957 0.205549
H15   H     H_    0.520340 0.110460 0.246514 0.206780
H16   H     H_    0.114154 0.852293 0.781454 0.257277
C17   C     C_3   0.730021 0.464445 0.654037 0.149847
C18   C     C_3   0.762120 0.537034 0.153832 0.184496
C19   C     C_3   0.385131 0.013756 0.332512 0.166334
C20   C     C_3   0.260047 0.961742 0.845804 0.143019
C21   C     C_3   0.584321 0.578766 0.755000 -0.250899
C22   C     C_3   0.919508 0.423999 0.253038 -0.264507
C23   C     C_3   0.049317 0.985404 0.296072 -0.258241
C24   C     C_3   0.417944 0.075665 0.746870 -0.250024
C25   C     C_3   0.740556 0.564673 0.688585 -0.294343
C26   C     C_3   0.759458 0.436207 0.188181 -0.293168
C27   C     C_3   0.237987 0.938002 0.313117 -0.298302
C28   C     C_3   0.259358 0.063216 0.812137 -0.294123
H17   H     H_    0.446895 0.580066 0.724632 0.238740
H18   H     H_    0.055664 0.424801 0.221446 0.238689
H19   H     H_    0.001994 0.024260 0.352102 0.220786
H20   H     H_    0.555164 0.075840 0.777294 0.239699
H21   H     H_    0.597245 0.646392 0.786028 0.217628
H22   H     H_    0.911604 0.355960 0.283865 0.211015
H23   H     H_    0.941464 0.933293 0.284484 0.230132
H24   H     H_    0.407864 0.143659 0.716071 0.217628
C29   C     C_3   0.764947 0.441860 0.815199 -0.243864
C30   C     C_3   0.734858 0.558316 0.315325 -0.219065
C31   C     C_3   0.263890 0.061164 0.187162 -0.245371
C32   C     C_3   0.233906 0.941747 0.684451 -0.260527
C33   C     C_3   0.754147 0.394008 0.727366 -0.325396
C34   C     C_3   0.739507 0.607117 0.227698 -0.373363
C35   C     C_3   0.378023 0.091457 0.265185 -0.295125
C36   C     C_3   0.240362 0.892712 0.771569 -0.305847
C37   C     C_3   0.589383 0.501858 0.822928 -0.347177
C38   C     C_3   0.913123 0.500179 0.321452 -0.327169
C39   C     C_3   0.061617 0.050173 0.218818 -0.334562
C40   C     C_3   0.411453 0.999689 0.678570 -0.335243
H25   H     H_    0.578648 0.532400 0.887056 0.200663
H26   H     H_    0.926837 0.469030 0.385286 0.195651
H27   H     H_    0.975598 0.022986 0.166667 0.248190
H28   H     H_    0.423636 0.031332 0.615292 0.240671
H29   H     H_    0.470363 0.456854 0.813610 0.281849
H30   H     H_    0.029830 0.546552 0.312065 0.289255
H31   H     H_    0.003070 0.118018 0.236646 0.196450
H32   H     H_    0.528786 0.953199 0.687664 0.277638
H33   H     H_    0.639697 0.343561 0.727240 0.221320
H34   H     H_    0.853278 0.657498 0.226728 0.248721
H35   H     H_    0.313265 0.153247 0.293156 0.250946
H36   H     H_    0.356503 0.842733 0.772137 0.215278
N1    N     N_R   0.561414 0.446523 0.605820 0.264967
O21   O     O_R   0.574063 0.423518 0.526887 -0.367638
O22   O     O_R   0.401859 0.441576 0.642620 -0.330562
N2    N     N_R   0.926384 0.557276 0.103296 0.267766
O23   O     O_R   0.907082 0.581490 0.024888 -0.368588
O24   O     O_R   0.088357 0.563033 0.137741 -0.310112
N3    N     N_R   0.371286 0.051454 0.418041 0.232872
O25   O     O_R   0.515957 0.050365 0.466329 -0.353286
O26   O     O_R   0.225591 0.095940 0.442785 -0.383621
N4    N     N_R   0.418636 0.936606 0.898225 0.263158
O27   O     O_R   0.394325 0.873923 0.955558 -0.315700
O28   O     O_R   0.585624 0.952046 0.872583 -0.322614
N5    N     N_R   0.989146 0.664232 0.754745 0.248414
O29   O     O_R   0.894645 0.716070 0.805627 -0.356798
O30   O     O_R   0.147595 0.692596 0.727209 -0.440007
N6    N     N_R   0.518895 0.333228 0.256445 0.242151
O31   O     O_R   0.617626 0.281887 0.306182 -0.405255
O32   O     O_R   0.360456 0.303562 0.230158 -0.443377
N7    N     N_R   0.159618 0.822469 0.201740 0.247114
O33   O     O_R   0.036078 0.840950 0.144616 -0.328857
O34   O     O_R   0.150592 0.744669 0.241258 -0.354750
N8    N     N_R   0.018435 0.167042 0.743279 0.247565
O35   O     O_R   0.115440 0.217140 0.692088 -0.355886
O36   O     O_R   0.859933 0.197277 0.769443 -0.439987
N9    N     N_R   0.109012 0.468967 0.830365 0.234293
O37   O     O_R   0.167766 0.404706 0.780250 -0.372651
O38   O     O_R   0.200542 0.487681 0.898786 -0.362773
N10   N     N_R   0.393606 0.527708 0.331927 0.235463
O39   O     O_R   0.331907 0.589490 0.280024 -0.374219
O40   O     O_R   0.301139 0.508343 0.399939 -0.352756
N11   N     N_R   0.531767 0.967548 0.134869 0.249311
O41   O     O_R   0.659561 0.950313 0.190083 -0.455820
O42   O     O_R   0.581393 0.987496 0.058280 -0.297908
N12   N     N_R   0.891389 0.971067 0.669749 0.231606
O43   O     O_R   0.831052 0.909721 0.722459 -0.386616
O44   O     O_R   0.798604 0.988867 0.601390 -0.358846

loop_
_geom_bond_atom_site_label_1
_geom_bond_atom_site_label_2
_geom_bond_distance
_ccdc_geom_bond_type
O17   V3    1.783973 S    
C40   H32   1.097350 S    
O1    C5    1.338039 A    
N1    O21   1.298836 A    
C39   H27   1.110824 S    
O19   V1    1.779358 S    
O13   V1    2.019146 S    
C11   N7    1.472648 S    
C10   C14   1.553430 S    
C12   N8    1.464585 S    
C32   C36   1.555113 S    
O15   V3    2.017093 S    
N10   O39   1.298714 A    
C10   C26   1.574454 S    
N2    O24   1.300462 A    
C9    C25   1.576834 S    
O7    C3    1.339209 A    
C22   C38   1.554861 S    
C23   H23   1.109740 S    
C24   C28   1.559587 S    
H13   C33   1.104384 S    
C19   C35   1.557227 S    
C18   C34   1.564082 S    
C13   C29   1.571647 S    
O4    C8    1.336982 A    
C15   C31   1.570323 S    
O1    V3    2.014649 S    
H9    C17   1.115782 S    
N6    O31   1.301035 A    
C22   H18   1.109039 S    
O2    V4    2.017065 S    
C14   H6    1.110139 S    
O3    V1    2.016810 S    
N4    O27   1.301387 A    
C38   H30   1.097145 S    
N4    O28   1.300132 A    
C19   C27   1.571786 S    
O3    C7    1.335766 A    
C18   C26   1.569187 S    
C40   H28   1.107337 S    
C2    O16   1.341092 A    
C39   H31   1.113490 S    
O2    C6    1.335750 A    
N3    O25   1.300337 A    
O14   V2    2.016841 S    
C29   C33   1.560377 S    
C11   C15   1.585305 S    
C14   N10   1.456826 S    
C30   C38   1.549226 S    
O11   C7    1.343171 A    
C29   C37   1.549992 S    
O12   C8    1.343733 A    
C35   H35   1.109029 S    
C5    C27   1.533292 S    
N3    O26   1.300941 A    
C37   H29   1.098146 S    
O10   V2    2.027200 S    
C31   C39   1.561951 S    
N2    O23   1.298971 A    
C1    O15   1.344365 A    
H16   C36   1.103468 S    
O5    V1    2.027218 S    
N7    O34   1.298390 A    
C16   N12   1.460188 S    
C23   C27   1.557083 S    
O7    V3    2.023783 S    
C34   H34   1.108708 S    
O8    V4    2.021609 S    
C13   N9    1.460071 S    
C12   H4    1.115641 S    
C22   C26   1.561689 S    
C38   H26   1.113014 S    
C37   H25   1.112993 S    
O18   V4    1.783972 S    
N12   O44   1.301459 A    
C21   H21   1.107911 S    
C19   N3    1.466943 S    
C1    C32   1.539694 S    
C36   H36   1.113797 S    
C11   H3    1.111960 S    
O5    C1    1.339181 A    
C3    C30   1.541025 S    
C30   C34   1.560521 S    
C16   C32   1.569848 S    
O8    C4    1.339641 A    
C4    C29   1.541304 S    
C24   H24   1.107936 S    
H10   C18   1.115326 S    
O9    C5    1.341181 A    
N7    O33   1.302273 A    
C6    C28   1.534861 S    
C21   C37   1.555000 S    
O6    V2    2.025252 S    
C23   H19   1.108391 S    
C14   C30   1.572091 S    
N9    O37   1.300966 A    
C17   C33   1.560380 S    
C12   C16   1.556944 S    
H11   C19   1.111995 S    
H15   C35   1.111767 S    
N11   O41   1.299653 A    
H14   C34   1.109126 S    
N5    O29   1.301024 A    
O16   V4    2.014679 S    
O9    V1    2.025232 S    
C3    O13   1.345528 A    
C23   C39   1.548919 S    
C10   H2    1.115774 S    
C17   C25   1.565283 S    
C15   H7    1.110373 S    
N11   O42   1.299308 A    
N10   O40   1.301543 A    
O6    C2    1.342181 A    
C2    C31   1.539473 S    
C12   C28   1.580077 S    
O11   V3    2.021588 S    
N12   O43   1.301321 A    
C8    C26   1.533703 S    
O12   V4    2.023760 S    
C17   N1    1.468425 S    
C9    N5    1.465818 S    
N1    O22   1.300143 A    
C21   H17   1.108639 S    
O10   C6    1.344993 A    
C15   N11   1.475713 S    
C9    C13   1.552182 S    
C32   C40   1.548131 S    
C31   C35   1.554446 S    
C20   C36   1.557062 S    
C7    C25   1.529694 S    
C10   N6    1.465560 S    
C33   H33   1.112937 S    
O20   V2    1.779358 S    
N6    O32   1.300277 A    
C24   H20   1.107599 S    
C9    H1    1.115739 S    
C20   N4    1.465994 S    
C11   C27   1.573348 S    
C21   C25   1.561516 S    
C18   N2    1.468270 S    
C20   C28   1.574158 S    
H12   C20   1.115491 S    
C4    O14   1.345302 A    
N9    O38   1.301847 A    
C13   H5    1.109922 S    
C22   H22   1.108216 S    
N8    O35   1.300975 A    
N8    O36   1.300170 A    
C24   C40   1.551718 S    
O4    V2    2.019113 S    
C16   H8    1.115204 S    
N5    O30   1.300306 A    
