data_mof_unit_38102.cif
_audit_creation_date              2012-12-11T14:38:13-0500
_audit_creation_method            fapswitch 2.2
_symmetry_space_group_name_H-M    P1
_symmetry_Int_Tables_number       1
_space_group_crystal_system       triclinic
_cell_length_a                    19.54244
_cell_length_b                    11.297735
_cell_length_c                    19.702736
_cell_angle_alpha                 89.998916
_cell_angle_beta                  95.928189
_cell_angle_gamma                 90.000797
_cell_volume                      4326.81098157

loop_
_atom_site_label
_atom_site_type_symbol
_atom_type_description
_atom_site_fract_x
_atom_site_fract_y
_atom_site_fract_z
_atom_type_partial_charge
C1    C     C_R   0.723748 0.955782 0.360796 0.594479
C2    C     C_R   0.276262 0.955807 0.639194 0.594567
C3    C     C_R   0.207738 0.494470 0.366451 0.564312
C4    C     C_R   0.792242 0.494431 0.633545 0.564313
C5    C     C_3   0.696806 0.481832 0.452949 -0.267090
C6    C     C_3   0.303175 0.481857 0.547048 -0.267109
C7    C     C_3   0.182146 0.940827 0.459296 -0.229789
C8    C     C_3   0.817914 0.940648 0.540674 -0.229598
C9    C     C_3   0.836204 0.507171 0.519120 -0.264618
C10   C     C_3   0.163771 0.507231 0.480894 -0.264598
C11   C     C_3   0.319230 0.003337 0.529985 -0.238092
C12   C     C_3   0.680805 0.003294 0.470011 -0.238024
C13   C     C_3   0.779494 0.320565 0.554809 0.355380
C14   C     C_3   0.220434 0.320596 0.445207 0.355197
C15   C     C_3   0.279932 0.798606 0.552385 0.291710
C16   C     C_3   0.720078 0.798560 0.447606 0.291700
C17   C     C_3   0.778701 0.457786 0.561141 -0.014694
C18   C     C_3   0.221261 0.457823 0.438864 -0.014628
C19   C     C_3   0.265951 0.929698 0.566205 0.024630
C20   C     C_3   0.734070 0.929650 0.433782 0.024704
C21   C     C_3   0.753200 0.398143 0.433136 -0.012620
C22   C     C_3   0.246779 0.398180 0.566873 -0.012549
C23   C     C_3   0.250073 0.895259 0.434591 0.015970
C24   C     C_3   0.749965 0.895200 0.565394 0.015993
C25   C     C_3   0.826101 0.459289 0.445263 0.334401
C26   C     C_3   0.173885 0.459353 0.554758 0.334406
C27   C     C_3   0.309403 0.985116 0.451496 0.308809
C28   C     C_3   0.690700 0.985156 0.548497 0.308793
C29   C     C_3   0.750794 0.288917 0.481242 -0.254006
C30   C     C_3   0.249162 0.288952 0.518765 -0.254078
C31   C     C_3   0.271559 0.781796 0.475037 -0.244702
C32   C     C_3   0.728421 0.781764 0.524957 -0.244759
C33   C     C_3   0.488350 0.301746 0.962794 0.264725
C34   C     C_3   0.511652 0.301746 0.037204 0.264724
C35   C     C_3   0.988350 0.801748 0.962794 0.264624
C36   C     C_3   0.011652 0.801748 0.037204 0.264622
C37   C     C_3   0.428001 0.100230 0.972260 -0.106512
C38   C     C_3   0.571998 0.100231 0.027741 -0.106510
C39   C     C_3   0.928001 0.600233 0.972261 -0.106628
C40   C     C_3   0.071998 0.600233 0.027740 -0.106626
C41   C     C_3   0.554725 0.110627 0.948194 -0.158871
C42   C     C_3   0.445274 0.110626 0.051807 -0.158872
C43   C     C_3   0.054725 0.610631 0.948193 -0.158502
C44   C     C_3   0.945274 0.610630 0.051808 -0.158502
C45   C     C_R   0.536706 0.180636 0.338701 0.547443
C46   C     C_R   0.463287 0.180639 0.661294 0.547466
C47   C     C_R   0.036478 0.680579 0.338592 0.542227
C48   C     C_R   0.963519 0.680581 0.661406 0.542237
C49   C     C_3   0.483693 0.172232 0.934159 -0.050591
C50   C     C_3   0.516308 0.172232 0.065841 -0.050592
C51   C     C_3   0.983692 0.672234 0.934159 -0.051067
C52   C     C_3   0.016308 0.672234 0.065841 -0.051067
C53   C     C_1   0.760412 0.426047 0.904280 0.080206
C54   C     C_1   0.239587 0.426049 0.095720 0.080204
C55   C     C_1   0.260412 0.926045 0.904280 0.082640
C56   C     C_1   0.739588 0.926048 0.095720 0.082639
C57   C     C_1   0.750076 0.413115 0.036131 0.016702
C58   C     C_1   0.249924 0.413114 0.963869 0.016702
C59   C     C_1   0.250075 0.913113 0.036130 0.016625
C60   C     C_1   0.749925 0.913111 0.963870 0.016625
C61   C     C_1   0.753552 0.417564 0.964506 0.042410
C62   C     C_1   0.246447 0.417566 0.035493 0.042408
C63   C     C_1   0.253551 0.917562 0.964506 0.042920
C64   C     C_1   0.746448 0.917563 0.035494 0.042919
C65   C     C_1   0.746425 0.399864 0.096662 0.045220
C66   C     C_1   0.253576 0.399861 0.903337 0.045225
C67   C     C_1   0.246424 0.899861 0.096661 0.045484
C68   C     C_1   0.753577 0.899859 0.903339 0.045483
C69   C     C_R   0.738898 0.358243 0.362099 0.596738
C70   C     C_R   0.261095 0.358263 0.637907 0.596727
C71   C     C_R   0.239517 0.861550 0.361440 0.580256
C72   C     C_R   0.760498 0.861517 0.638548 0.580206
C73   C     C_R   0.723132 0.953133 0.163773 0.576602
C74   C     C_R   0.276867 0.953132 0.836227 0.576614
C75   C     C_R   0.223133 0.453132 0.163774 0.589929
C76   C     C_R   0.776867 0.453131 0.836225 0.589920
C77   C     C_R   0.537216 0.179635 0.139643 0.567381
C78   C     C_R   0.462784 0.179635 0.860356 0.567384
C79   C     C_R   0.037217 0.679635 0.139643 0.568961
C80   C     C_R   0.962783 0.679635 0.860357 0.568960
C81   C     C_R   0.737416 0.361613 0.165110 0.579048
C82   C     C_R   0.262584 0.361612 0.834890 0.579049
C83   C     C_R   0.237416 0.861610 0.165109 0.576554
C84   C     C_R   0.762585 0.861610 0.834891 0.576560
C85   C     C_1   0.484749 0.173856 0.594107 0.033419
C86   C     C_1   0.515232 0.173846 0.405884 0.033446
C87   C     C_1   0.985301 0.673562 0.594295 0.032023
C88   C     C_1   0.014689 0.673557 0.405700 0.032041
C89   C     C_1   0.504638 0.171237 0.464996 -0.008007
C90   C     C_1   0.495336 0.171242 0.534992 -0.008051
C91   C     C_1   0.004294 0.670713 0.464894 -0.007161
C92   C     C_1   0.995692 0.670715 0.535100 -0.007183
C93   C     C_3   0.704423 0.495021 0.530577 -0.253385
C94   C     C_3   0.295548 0.495025 0.469420 -0.253419
C95   C     C_3   0.190677 0.958675 0.536570 -0.231556
C96   C     C_3   0.809352 0.958608 0.463406 -0.231368
Cr1   Cr    Cr6+3 0.765780 0.160710 0.267420 1.086795
Cr2   Cr    Cr6+3 0.234220 0.160710 0.732580 1.086801
Cr3   Cr    Cr6+3 0.265780 0.660710 0.267420 1.086469
Cr4   Cr    Cr6+3 0.734220 0.660710 0.732580 1.086459
Cr5   Cr    Cr6+3 0.612200 0.009560 0.248850 1.090399
Cr6   Cr    Cr6+3 0.387800 0.009560 0.751150 1.090402
Cr7   Cr    Cr6+3 0.112200 0.509560 0.248850 1.091655
Cr8   Cr    Cr6+3 0.887800 0.509560 0.751150 1.091647
Cr9   Cr    Cr6+3 0.616030 0.323720 0.248510 1.099650
Cr10  Cr    Cr6+3 0.383970 0.323720 0.751490 1.099647
Cr11  Cr    Cr6+3 0.116030 0.823720 0.248510 1.097693
Cr12  Cr    Cr6+3 0.883970 0.823720 0.751490 1.097718
H1    H     H_    0.686760 0.579298 0.547024 0.132578
H2    H     H_    0.313212 0.579293 0.452966 0.132604
H3    H     H_    0.174654 0.049175 0.548597 0.137326
H4    H     H_    0.825355 0.049141 0.451417 0.137323
H5    H     H_    0.777967 0.212921 0.461939 0.103734
H6    H     H_    0.222000 0.212954 0.538077 0.103681
H7    H     H_    0.322135 0.755610 0.458973 0.098533
H8    H     H_    0.677827 0.755655 0.541018 0.098527
H9    H     H_    0.887443 0.481609 0.545048 0.088924
H10   H     H_    0.112527 0.481672 0.454977 0.088910
H11   H     H_    0.372561 0.978979 0.550742 0.103595
H12   H     H_    0.627472 0.978862 0.449311 0.103522
H13   H     H_    0.436519 0.343760 0.954553 0.198054
H14   H     H_    0.563484 0.343760 0.045444 0.198051
H15   H     H_    0.936518 0.843763 0.954554 0.198238
H16   H     H_    0.063484 0.843763 0.045444 0.198236
H17   H     H_    0.550659 0.020948 0.924605 0.130045
H18   H     H_    0.449340 0.020947 0.075398 0.130045
H19   H     H_    0.050659 0.520951 0.924603 0.130434
H20   H     H_    0.949340 0.520950 0.075399 0.130434
H21   H     H_    0.665858 0.435786 0.551017 0.204470
H22   H     H_    0.334097 0.435765 0.448976 0.204479
H23   H     H_    0.154017 0.899947 0.560196 0.201233
H24   H     H_    0.846008 0.899934 0.439738 0.201186
H25   H     H_    0.644201 0.447991 0.436325 0.141491
H26   H     H_    0.355779 0.448012 0.563668 0.141495
H27   H     H_    0.139880 0.875965 0.446246 0.134355
H28   H     H_    0.860133 0.875673 0.553683 0.134237
H29   H     H_    0.702846 0.564921 0.426828 0.249200
H30   H     H_    0.297145 0.564959 0.573159 0.249207
H31   H     H_    0.166871 0.024888 0.433165 0.207264
H32   H     H_    0.833277 0.024654 0.566832 0.207275
H33   H     H_    0.316089 0.095245 0.544686 0.120872
H34   H     H_    0.683896 0.095192 0.455267 0.120831
H35   H     H_    0.840194 0.603796 0.518025 0.171098
H36   H     H_    0.159782 0.603853 0.481984 0.171061
H37   H     H_    0.695835 0.266220 0.482692 0.168341
H38   H     H_    0.304119 0.266264 0.517292 0.168352
H39   H     H_    0.234207 0.713497 0.459396 0.130153
H40   H     H_    0.765747 0.713427 0.540606 0.130161
O1    O     O_R   0.783100 0.287550 0.345460 -0.521324
O2    O     O_R   0.216900 0.287550 0.654540 -0.521360
O3    O     O_R   0.283100 0.787550 0.345460 -0.540940
O4    O     O_R   0.716900 0.787550 0.654540 -0.540950
O5    O     O_R   0.554710 0.081900 0.170950 -0.509151
O6    O     O_R   0.445290 0.081900 0.829050 -0.509146
O7    O     O_R   0.054710 0.581900 0.170950 -0.509249
O8    O     O_R   0.945290 0.581900 0.829050 -0.509242
O9    O     O_R   0.545650 0.284910 0.163740 -0.441433
O10   O     O_R   0.454350 0.284910 0.836260 -0.441438
O11   O     O_R   0.045650 0.784910 0.163740 -0.440351
O12   O     O_R   0.954350 0.784910 0.836260 -0.440356
O13   O     O_R   0.677950 0.374280 0.185410 -0.489496
O14   O     O_R   0.322050 0.374280 0.814590 -0.489499
O15   O     O_R   0.177950 0.874280 0.185410 -0.487495
O16   O     O_R   0.822050 0.874280 0.814590 -0.487496
O17   O     O_3   0.664670 0.164660 0.254930 -0.309103
O18   O     O_3   0.335330 0.164660 0.745070 -0.309114
O19   O     O_3   0.164670 0.664660 0.254930 -0.325199
O20   O     O_3   0.835330 0.664660 0.745070 -0.325184
O21   O     O_R   0.760020 0.037400 0.337700 -0.522912
O22   O     O_R   0.239980 0.037400 0.662300 -0.522883
O23   O     O_R   0.260020 0.537400 0.337700 -0.483212
O24   O     O_R   0.739980 0.537400 0.662300 -0.483217
O25   O     O_R   0.666600 0.921990 0.332020 -0.497954
O26   O     O_R   0.333400 0.921990 0.667980 -0.497942
O27   O     O_R   0.166600 0.421990 0.332020 -0.457273
O28   O     O_R   0.833400 0.421990 0.667980 -0.457397
O29   O     O_R   0.557260 0.082670 0.312540 -0.492748
O30   O     O_R   0.442740 0.082670 0.687460 -0.492747
O31   O     O_R   0.057260 0.582670 0.312540 -0.511434
O32   O     O_R   0.942740 0.582670 0.687460 -0.511408
O33   O     O_R   0.548410 0.285740 0.316480 -0.500446
O34   O     O_R   0.451590 0.285740 0.683520 -0.500445
O35   O     O_R   0.048410 0.785740 0.316480 -0.500400
O36   O     O_R   0.951590 0.785740 0.683520 -0.500400
O37   O     O_R   0.680500 0.375040 0.327000 -0.499353
O38   O     O_R   0.319500 0.375040 0.673000 -0.499351
O39   O     O_R   0.180500 0.875040 0.327000 -0.494821
O40   O     O_R   0.819500 0.875040 0.673000 -0.494774
O41   O     O_R   0.780350 0.286720 0.192720 -0.481823
O42   O     O_R   0.219650 0.286720 0.807280 -0.481826
O43   O     O_R   0.280350 0.786720 0.192720 -0.484193
O44   O     O_R   0.719650 0.786720 0.807280 -0.484187
O45   O     O_R   0.757470 0.036630 0.196110 -0.474373
O46   O     O_R   0.242530 0.036630 0.803890 -0.474367
O47   O     O_R   0.257470 0.536630 0.196110 -0.468593
O48   O     O_R   0.742530 0.536630 0.803890 -0.468595
O49   O     O_R   0.663840 0.921160 0.179280 -0.485182
O50   O     O_R   0.336160 0.921160 0.820720 -0.485178
O51   O     O_R   0.163840 0.421160 0.179280 -0.480876
O52   O     O_R   0.836160 0.421160 0.820720 -0.480873
C97   C     C_1   0.883855 0.378561 0.434619 0.279630
N1    N     N_1   0.929103 0.315903 0.426296 -0.252706
C98   C     C_1   0.116125 0.378649 0.565422 0.279668
N2    N     N_1   0.070873 0.316009 0.573761 -0.252723
C99   C     C_1   0.375208 0.948447 0.426556 0.281296
N3    N     N_1   0.426533 0.919390 0.407119 -0.271121
C100  C     C_1   0.624915 0.948717 0.573534 0.281510
N4    N     N_1   0.573611 0.919863 0.593063 -0.271153
F1    F     F_    0.533254 0.372470 0.930196 -0.605391
F2    F     F_    0.466748 0.372470 0.069801 -0.605389
F3    F     F_    0.033254 0.872472 0.930196 -0.605608
F4    F     F_    0.966749 0.872472 0.069801 -0.605608
C101  C     C_1   0.357691 0.141376 0.951130 0.161013
N5    N     N_1   0.301796 0.171047 0.935938 -0.306743
C102  C     C_1   0.642309 0.141377 0.048870 0.161016
N6    N     N_1   0.698205 0.171048 0.064062 -0.306742
C103  C     C_1   0.857690 0.641378 0.951132 0.160222
N7    N     N_1   0.801795 0.671047 0.935940 -0.307387
C104  C     C_1   0.142310 0.641379 0.048868 0.160223
N8    N     N_1   0.198205 0.671048 0.064059 -0.307388
C105  C     C_1   0.391683 0.168653 0.088672 0.276804
N9    N     N_1   0.350053 0.213054 0.117769 -0.235608
C106  C     C_1   0.608316 0.168655 0.911328 0.276805
N10   N     N_1   0.649947 0.213056 0.882230 -0.235619
C107  C     C_1   0.891685 0.668658 0.088674 0.278199
N11   N     N_1   0.850056 0.713060 0.117773 -0.237569
C108  C     C_1   0.108315 0.668659 0.911326 0.278201
N12   N     N_1   0.149945 0.713061 0.882226 -0.237562
C109  C     C_1   0.571804 0.972569 0.045407 0.208560
N13   N     N_1   0.570966 0.872648 0.058351 -0.224911
C110  C     C_1   0.428194 0.972569 0.954596 0.208555
N14   N     N_1   0.429031 0.872648 0.941654 -0.224913
C111  C     C_1   0.071804 0.472572 0.045405 0.207662
N15   N     N_1   0.070966 0.372651 0.058348 -0.224730
C112  C     C_1   0.928194 0.472571 0.954598 0.207659
N16   N     N_1   0.929031 0.372651 0.941656 -0.224731
F5    F     F_    0.291548 0.087971 0.419211 -0.580548
F6    F     F_    0.708694 0.087979 0.580708 -0.580760
F7    F     F_    0.830111 0.550624 0.399230 -0.563800
F8    F     F_    0.169898 0.550694 0.600787 -0.563811
C113  C     C_1   0.848213 0.265018 0.570786 0.290390
N17   N     N_1   0.901992 0.222784 0.583411 -0.276132
C114  C     C_1   0.151697 0.265094 0.429260 0.290006
N18   N     N_1   0.097905 0.222890 0.416658 -0.276070
C115  C     C_1   0.350277 0.758222 0.579428 0.245810
N19   N     N_1   0.404906 0.726888 0.600068 -0.272942
C116  C     C_1   0.649738 0.758175 0.420546 0.245813
N20   N     N_1   0.595113 0.726840 0.399892 -0.272890
F9    F     F_    0.737284 0.279618 0.601685 -0.538138
F10   F     F_    0.262601 0.279590 0.398315 -0.538113
F11   F     F_    0.232001 0.732519 0.582289 -0.603314
F12   F     F_    0.768019 0.732466 0.417724 -0.603341

loop_
_geom_bond_atom_site_label_1
_geom_bond_atom_site_label_2
_ccdc_geom_bond_type
C8    H32   S    
C58   C62   S    
C39   C51   S    
C98   N2    T    
C74   O46   A    
Cr7   O19   S    
C8    C24   S    
C73   O45   A    
C8    H28   S    
C9    H9    S    
C97   N1    T    
C14   C18   S    
Cr5   O25   S    
C35   C36   S    
C70   O2    A    
C38   C102  S    
Cr2   O42   S    
C87   C92   T    
C43   C51   S    
C9    H35   S    
C9    C25   S    
Cr8   O28   S    
C99   N3    T    
Cr4   O4    S    
C67   C83   S    
Cr12  O16   S    
C11   C19   S    
C105  N9    T    
C12   C28   S    
Cr10  O18   S    
C13   C29   S    
C36   H16   S    
C107  N11   T    
Cr6   O26   S    
C25   C97   S    
C93   H1    S    
Cr6   O50   S    
C79   O11   A    
Cr5   O49   S    
C80   O12   A    
C66   C82   S    
C25   F7    S    
C33   C49   S    
C114  N18   T    
C6    C22   S    
Cr3   O47   S    
Cr2   O22   S    
Cr1   O21   S    
C49   C78   S    
Cr2   O46   S    
C3    C18   S    
C113  N17   T    
Cr9   O37   S    
C37   C42   S    
C46   O30   A    
C51   C80   S    
C72   O40   A    
C29   H5    S    
C8    C96   S    
C34   F2    S    
C59   C67   T    
C12   H12   S    
C55   C74   S    
C33   F1    S    
C58   C66   T    
C40   C43   S    
C13   C113  S    
C15   C115  S    
C12   H34   S    
C6    C94   S    
C55   C63   T    
Cr11  O35   S    
C47   O31   A    
C112  N16   T    
C56   C64   T    
C30   H38   S    
C11   C27   S    
C42   C105  S    
C76   O48   A    
C44   C107  S    
Cr6   O6    S    
C36   C52   S    
C45   O29   A    
C96   H24   S    
C46   C85   S    
C77   O5    A    
C5    C93   S    
C10   C26   S    
Cr12  O40   S    
Cr1   O41   S    
Cr12  O20   S    
C11   H11   S    
C34   H14   S    
C115  N19   T    
C82   O42   A    
C95   H23   S    
Cr8   O52   S    
C9    C17   S    
Cr4   O44   S    
C53   C61   T    
C14   C30   S    
C93   H21   S    
C1    O25   A    
C31   H7    S    
Cr6   O18   S    
C43   C108  S    
C60   C64   S    
C80   O8    A    
C38   C109  S    
Cr3   O19   S    
Cr4   O48   S    
C16   F12   S    
C30   H6    S    
C85   C90   T    
Cr11  O19   S    
C34   C50   S    
C78   O10   A    
Cr12  O36   S    
C45   O33   A    
C100  N4    T    
C68   C84   S    
C41   H17   S    
Cr10  O38   S    
C106  N10   T    
C47   O35   A    
C76   O52   A    
C43   H19   S    
C104  N8    T    
C48   O36   A    
C42   H18   S    
C78   O6    A    
Cr7   O51   S    
C82   O14   A    
C72   O4    A    
C103  N7    T    
C101  N5    T    
C21   C29   S    
C15   C31   S    
C94   H2    S    
C32   H8    S    
C74   O50   A    
C54   C75   S    
C21   C69   S    
C27   C99   S    
C23   C31   S    
C6    H30   S    
C33   H13   S    
C15   C19   S    
C102  N6    T    
C24   C32   S    
C7    H27   S    
C109  N13   T    
C10   H10   S    
C22   C30   S    
C35   F3    S    
Cr8   O20   S    
C37   C49   S    
C83   O15   A    
C65   C81   S    
C108  N12   T    
C110  N14   T    
C88   C91   T    
Cr5   O5    S    
C16   C20   S    
Cr9   O9    S    
C12   C20   S    
Cr7   O27   S    
C33   C34   S    
C5    H25   S    
C48   C87   S    
C10   H36   S    
Cr8   O8    S    
Cr5   O17   S    
C11   H33   S    
C81   O41   A    
Cr2   O18   S    
C22   C26   S    
C71   O3    A    
C42   C50   S    
C32   H40   S    
C4    C17   S    
Cr7   O7    S    
C41   C106  S    
Cr11  O15   S    
Cr2   O2    S    
C23   C27   S    
C73   O49   A    
C40   C104  S    
C35   C51   S    
Cr6   O30   S    
C19   C95   S    
Cr9   O13   S    
C7    H31   S    
C53   C76   S    
C17   C93   S    
C94   H22   S    
C50   C77   S    
C69   O37   A    
C48   O32   A    
C7    C95   S    
Cr4   O24   S    
C24   C72   S    
C3    O27   A    
C111  N15   T    
C16   C116  S    
C83   O43   A    
C37   C110  S    
C21   C25   S    
Cr10  O10   S    
C44   H20   S    
C1    C20   S    
C28   F6    S    
C56   C73   S    
C4    O24   A    
C2    C19   S    
C81   O13   A    
C39   C103  S    
Cr3   O3    S    
C24   C28   S    
C71   O39   A    
C40   C111  S    
C86   C89   T    
C84   O16   A    
C44   C52   S    
Cr11  O11   S    
C116  N20   T    
C57   C61   S    
C39   C44   S    
C38   C50   S    
C75   O51   A    
C16   C32   S    
C41   C49   S    
C54   C62   T    
C59   C63   S    
C13   F9    S    
C27   F5    S    
C13   C17   S    
Cr4   O20   S    
C45   C86   S    
C69   O1    A    
C47   C88   S    
C46   O34   A    
C35   H15   S    
C26   C98   S    
C31   H39   S    
C5    H29   S    
C2    O22   A    
C40   C52   S    
C2    O26   A    
Cr3   O43   S    
C3    O23   A    
Cr8   O32   S    
C7    C23   S    
C15   F11   S    
C10   C18   S    
C38   C41   S    
C18   C94   S    
C1    O21   A    
C96   H4    S    
Cr9   O17   S    
C14   F10   S    
C84   O44   A    
Cr7   O31   S    
Cr10  O14   S    
C20   C96   S    
C36   F4    S    
Cr5   O29   S    
C70   O38   A    
C79   O7    A    
C14   C114  S    
C37   C101  S    
Cr12  O12   S    
C26   F8    S    
C5    C21   S    
C60   C68   T    
C23   C71   S    
C6    H26   S    
C4    O28   A    
Cr1   O45   S    
Cr1   O17   S    
C28   C100  S    
Cr1   O1    S    
Cr11  O39   S    
C95   H3    S    
Cr9   O33   S    
C89   C90   S    
C39   C112  S    
C29   H37   S    
C22   C70   S    
C91   C92   S    
Cr10  O34   S    
Cr3   O23   S    
C77   O9    A    
C57   C65   T    
C52   C79   S    
C75   O47   A    
