data_mof_unit_63431.cif
_audit_creation_date              2012-12-10T21:01:47-0500
_audit_creation_method            fapswitch 2.2
_symmetry_space_group_name_H-M    P1
_symmetry_Int_Tables_number       1
_space_group_crystal_system       triclinic
_cell_length_a                    15.778988
_cell_length_b                    15.853754
_cell_length_c                    15.084006
_cell_angle_alpha                 90.016159
_cell_angle_beta                  90.025056
_cell_angle_gamma                 89.990248
_cell_volume                      3773.35696761

loop_
_atom_site_label
_atom_site_type_symbol
_atom_type_description
_atom_site_fract_x
_atom_site_fract_y
_atom_site_fract_z
_atom_type_partial_charge
C1    C     C_R   0.500027 0.338892 0.499970 0.896622
C2    C     C_1   0.499973 0.749478 0.500085 -0.088870
C3    C     C_R   0.445499 0.446457 0.953085 0.544618
C4    C     C_R   0.554500 0.553543 0.046914 0.544618
C5    C     C_R   0.500012 0.499989 0.905049 -0.439561
C6    C     C_R   0.499987 0.500011 0.094951 -0.439561
C7    C     C_R   0.554512 0.553533 0.953169 0.551433
C8    C     C_R   0.445488 0.446467 0.046831 0.551433
C9    C     C_1   0.500020 0.499983 0.807122 0.421204
C10   C     C_1   0.499980 0.500017 0.192878 0.421204
C11   C     C_R   0.337567 0.499984 0.499956 0.884300
C12   C     C_R   0.499973 0.661107 0.500029 0.896621
C13   C     C_R   0.662433 0.500016 0.500044 0.884299
C14   C     C_3   0.972107 0.431951 0.543471 0.482083
C15   C     C_3   0.027893 0.568049 0.456529 0.482081
C16   C     C_3   0.027905 0.430151 0.459751 0.485770
C17   C     C_3   0.972095 0.569849 0.540249 0.485770
C18   C     C_1   0.248976 0.499980 0.499899 -0.082651
C19   C     C_1   0.751023 0.500019 0.500101 -0.082651
C20   C     C_3   0.028037 0.501789 0.583656 0.491451
C21   C     C_3   0.971963 0.498210 0.416344 0.491451
C22   C     C_3   0.083471 0.499990 0.499935 -0.499170
C23   C     C_R   0.499988 0.913103 0.500341 -0.119230
C24   C     C_3   0.916529 0.500010 0.500065 -0.499171
C25   C     C_1   0.173962 0.499982 0.499892 0.309533
C26   C     C_1   0.826038 0.500018 0.500108 0.309533
C27   C     C_R   0.500291 0.956592 0.580953 0.717745
C28   C     C_R   0.499709 0.043408 0.419047 0.717745
C29   C     C_R   0.500012 0.086896 0.499659 -0.119230
C30   C     C_R   0.499698 0.955935 0.419493 -0.303592
C31   C     C_R   0.500302 0.044065 0.580507 -0.303592
C32   C     C_1   0.499978 0.824295 0.500199 0.133777
C33   C     C_1   0.500022 0.175705 0.499801 0.133777
C34   C     C_1   0.500027 0.250522 0.499915 -0.088870
F1    F     F_    0.057814 0.358272 0.418329 -0.515030
F2    F     F_    0.607971 0.606034 0.909320 -0.540700
F3    F     F_    0.392049 0.393948 0.909154 -0.546529
F4    F     F_    0.607951 0.606052 0.090845 -0.546529
F5    F     F_    0.942186 0.641728 0.581671 -0.515030
F6    F     F_    0.942210 0.361923 0.588210 -0.519489
F7    F     F_    0.057790 0.638077 0.411790 -0.519489
F8    F     F_    0.941916 0.496370 0.330255 -0.509939
F9    F     F_    0.058084 0.503630 0.669745 -0.509939
F10   F     F_    0.500573 0.914493 0.659350 -0.589401
F11   F     F_    0.499427 0.085507 0.340649 -0.589401
F12   F     F_    0.392028 0.393966 0.090680 -0.540700
H1    H     H_    0.500535 0.078280 0.642735 0.222148
H2    H     H_    0.499465 0.921720 0.357265 0.222148
N1    N     N_1   0.499980 0.500020 0.270550 -0.080976
N2    N     N_1   0.500020 0.499980 0.729450 -0.080976
O1    O     O_R   0.500000 0.378020 0.573650 -0.608324
O2    O     O_R   0.500000 0.621980 0.426350 -0.608324
O3    O     O_R   0.500040 0.378020 0.426320 -0.588630
O4    O     O_R   0.499960 0.621980 0.573680 -0.588630
O5    O     O_R   0.376760 0.499990 0.573650 -0.595930
O6    O     O_R   0.623240 0.500010 0.426350 -0.595930
O7    O     O_R   0.376800 0.499990 0.426320 -0.596205
O8    O     O_R   0.623200 0.500010 0.573680 -0.596205
Zn1   Zn    Zn3+2 0.499970 0.500000 0.598370 1.083544
Zn2   Zn    Zn3+2 0.500030 0.500000 0.401630 1.083544

loop_
_geom_bond_atom_site_label_1
_geom_bond_atom_site_label_2
_ccdc_geom_bond_type
C6    C10   S    
C6    C8    A    
C11   C18   S    
C5    C9    S    
C16   C21   S    
C23   C27   A    
C5    C7    A    
C7    F2    S    
C13   O6    A    
C2    C12   S    
C23   C32   S    
C17   C20   S    
C28   C30   A    
C33   C34   T    
C29   C31   A    
C31   H1    S    
C1    O1    A    
C15   F7    S    
N1    Zn2   S    
C4    C7    A    
N2    Zn1   S    
C2    C32   T    
C30   H2    S    
C28   C29   A    
C12   O2    A    
O3    Zn2   S    
C24   C26   S    
C1    C34   S    
O5    Zn1   S    
O4    Zn1   S    
C20   C22   S    
C16   F1    S    
C18   C25   T    
C14   C16   S    
C28   F11   S    
C17   C24   S    
O1    Zn1   S    
C13   C19   S    
C14   F6    S    
C21   F8    S    
C23   C30   A    
C29   C33   S    
C15   C21   S    
C20   F9    S    
C11   O5    A    
C3    F3    S    
C14   C20   S    
C4    C6    A    
C3    C8    A    
C17   F5    S    
C21   C24   S    
C14   C24   S    
C15   C17   S    
C19   C26   T    
C1    O3    A    
O7    Zn2   S    
C16   C22   S    
C13   O8    A    
O2    Zn2   S    
C8    F12   S    
O8    Zn1   S    
C11   O7    A    
C10   N1    T    
C27   C31   A    
C27   F10   S    
C15   C22   S    
C12   O4    A    
C9    N2    T    
O6    Zn2   S    
C4    F4    S    
C3    C5    A    
C22   C25   S    
