data_mof_unit_48819.cif
_audit_creation_date              2013-03-05T16:02:52-0500
_audit_creation_method            fapswitch 2.2
_symmetry_space_group_name_H-M    P1
_symmetry_Int_Tables_number       1
_space_group_crystal_system       triclinic
_cell_length_a                    8.399369
_cell_length_b                    14.563526
_cell_length_c                    17.427787
_cell_angle_alpha                 98.721825
_cell_angle_beta                  96.906812
_cell_angle_gamma                 92.311121
_cell_volume                      2088.17151468

loop_
_atom_site_label
_atom_site_type_symbol
_atom_site_description
_atom_site_fract_x
_atom_site_fract_y
_atom_site_fract_z
_atom_type_partial_charge
P1    P     P_3+3 0.017810 0.410420 0.324030 0.601162
O1    O     O_2   0.840370 0.437300 0.310630 -0.378845
O2    O     O_3   0.112450 0.444030 0.408320 -0.383667
O3    O     O_3   0.597270 0.610320 0.351390 -0.366085
O4    O     O_2   0.701463 0.534013 0.220289 -0.381562
O5    O     O_3   0.986790 0.289077 0.304486 -0.461096
O6    O     O_3   0.558703 0.684334 0.203458 -0.530368
H1    H     H_    0.652597 0.763266 0.311710 0.120186
C1    C     C_3   0.626583 0.848303 0.221178 -0.782040
H2    H     H_    0.744620 0.835799 0.201370 0.274689
H3    H     H_    0.540996 0.858243 0.169672 0.270315
P2    P     P_3+3 0.635890 0.718430 0.552520 0.476657
P3    P     P_3+3 0.044173 0.778985 0.388286 0.531386
O7    O     O_2   0.802370 0.730760 0.528330 -0.342162
O8    O     O_3   0.016680 0.660770 0.388810 -0.377905
O9    O     O_2   0.907152 0.827365 0.427515 -0.399745
O10   O     O_3   0.690379 0.747440 0.653870 -0.626669
O11   O     O_3   0.016994 0.801036 0.291135 -0.496616
C2    C     C_3   0.983030 0.717060 0.238396 0.434096
H4    H     H_    0.856070 0.694242 0.235973 0.123382
H5    H     H_    0.055589 0.659910 0.254666 0.110236
C3    C     C_3   0.017109 0.731157 0.156862 -0.849660
H6    H     H_    0.973838 0.668009 0.114122 0.225152
H7    H     H_    0.956073 0.791733 0.138347 0.285692
C4    C     C_3   0.067473 0.757620 0.680763 0.213936
H8    H     H_    0.957009 0.711289 0.670495 0.149414
C5    C     C_3   0.049184 0.840967 0.744536 -0.122230
H9    H     H_    0.164708 0.883449 0.759328 0.135286
H10   H     H_    0.956742 0.886000 0.721640 0.076144
Ba1   Ba    Ba6+2 0.833220 0.541860 0.459910 1.679102
C6    C     C_3   0.989854 0.252784 0.374451 0.320132
H11   H     H_    0.911577 0.291575 0.413213 -0.042418
H12   H     H_    0.113826 0.258933 0.404812 0.156084
C7    C     C_3   0.928122 0.149751 0.357891 -0.088141
H13   H     H_    0.796100 0.145266 0.343174 0.113813
H14   H     H_    0.954832 0.118987 0.412123 0.068764
C8    C     C_3   0.556940 0.767729 0.693222 0.750761
H15   H     H_    0.449316 0.727264 0.661259 0.062136
C9    C     C_3   0.527289 0.871973 0.700548 -0.962391
H16   H     H_    0.642045 0.914590 0.719080 0.276369
H17   H     H_    0.443095 0.891372 0.743876 0.265402
H18   H     H_    0.469876 0.889149 0.644570 0.219557
P4    P     P_3+3 0.171880 0.589650 0.675980 0.571619
O12   O     O_2   0.349330 0.562730 0.689420 -0.317424
O13   O     O_3   0.077250 0.556050 0.591680 -0.374977
O14   O     O_3   0.592420 0.389760 0.648620 -0.349989
O15   O     O_3   0.203927 0.710926 0.701861 -0.560152
P5    P     P_3+3 0.138781 0.220194 0.612931 0.515417
O16   O     O_3   0.628930 0.385070 0.464840 -0.352576
O17   O     O_3   0.173020 0.339310 0.611190 -0.420488
O18   O     O_2   0.255516 0.168376 0.562029 -0.298615
O19   O     O_3   0.200198 0.198457 0.708088 -0.477542
Ba2   Ba    Ba6+2 0.356600 0.458220 0.540090 1.721416
P6    P     P_3+3 0.555675 0.583798 0.248930 0.524222
C10   C     C_3   0.567545 0.766848 0.258363 0.361027
H19   H     H_    0.639857 0.913214 0.264671 0.261955
O20   O     O_3   0.560770 0.615000 0.535160 -0.353766
C11   C     C_3   0.544969 0.276442 0.291787 0.476591
H20   H     H_    0.661164 0.315612 0.307434 0.057284
C12   C     C_3   0.535385 0.219729 0.207886 0.239452
H21   H     H_    0.426191 0.171246 0.198829 0.174967
P7    P     P_3+3 0.560396 0.265402 0.444187 0.553288
O21   O     O_2   0.387340 0.269270 0.471720 -0.275875
O22   O     O_3   0.526632 0.214872 0.344316 -0.584316
H22   H     H_    0.148147 0.743089 0.156086 0.259869
C13   C     C_3   0.205978 0.282026 0.761813 0.526235
H23   H     H_    0.312448 0.326098 0.756429 0.143521
H24   H     H_    0.102010 0.324244 0.749282 -0.026652
C14   C     C_3   0.205815 0.259850 0.845702 -0.711065
H25   H     H_    0.091642 0.280358 0.867883 0.196442
H26   H     H_    0.212345 0.183762 0.845674 0.240566
P8    P     P_3+3 0.637233 0.404655 0.750549 0.508254
C15   C     C_3   0.644116 0.219136 0.766488 0.651588
O23   O     O_2   0.519517 0.475753 0.781199 -0.270398
O24   O     O_3   0.588008 0.307310 0.795045 -0.624887
H27   H     H_    0.677481 0.089133 0.816296 0.266509
C16   C     C_3   0.635057 0.159964 0.832560 -0.759271
H28   H     H_    0.509232 0.151221 0.844714 0.222663
H29   H     H_    0.709492 0.194570 0.887139 0.230980
C17   C     C_2   0.241395 0.517736 0.269535 -0.345121
C18   C     C_3   0.369989 0.505815 0.215370 0.366493
C19   C     C_2   0.297492 0.509110 0.132461 -0.195172
C20   C     C_2   0.139842 0.482681 0.110637 0.077152
C21   C     C_2   0.042106 0.455662 0.172469 -0.228664
C22   C     C_1   0.105316 0.466472 0.247859 0.333877
C23   C     C_R   0.900640 0.469983 0.862518 -0.269740
C24   C     C_R   0.839196 0.458245 0.783638 0.257249
C25   C     C_R   0.076406 0.538366 0.752997 0.136335
C26   C     C_R   0.139640 0.553054 0.834326 0.279838
C27   C     C_R   0.052485 0.515369 0.889578 0.001609
C28   C     C_2   0.066150 0.474153 0.026881 -0.154662
C29   C     C_2   0.114942 0.528095 0.975696 -0.014380
C30   C     C_R   0.927891 0.489828 0.729322 -0.439445
H30   H     H_    0.206471 0.583345 0.998080 0.171400
H31   H     H_    0.919111 0.428152 0.155208 0.214226
H32   H     H_    0.825665 0.445871 0.902492 0.174986
H33   H     H_    0.971570 0.419908 0.007715 0.152735
H34   H     H_    0.375778 0.523209 0.089871 0.188387
H35   H     H_    0.266412 0.558238 0.327736 0.181694
H36   H     H_    0.877188 0.480082 0.668356 0.168929
C31   C     C_R   0.704461 0.940085 0.541574 -0.104651
C32   C     C_R   0.510536 0.800376 0.503408 0.119697
C33   C     C_R   0.357991 0.764732 0.466573 -0.299391
C34   C     C_R   0.244587 0.823372 0.438122 0.338162
C35   C     C_R   0.288471 0.915274 0.439081 -0.296384
C36   C     C_R   0.445226 0.951684 0.467885 -0.058384
C37   C     C_R   0.555495 0.896678 0.505182 -0.040024
H37   H     H_    0.325167 0.691285 0.461979 0.184605
C38   C     C_R   0.636710 0.088082 0.496290 -0.117609
C39   C     C_R   0.744249 0.034811 0.538718 0.060618
C40   C     C_R   0.679492 0.185228 0.498037 0.246414
C41   C     C_R   0.825209 0.224277 0.539710 -0.496050
C42   C     C_R   0.935363 0.169628 0.574351 0.239057
C43   C     C_R   0.894381 0.075705 0.575263 -0.187837
C44   C     C_R   0.491610 0.041526 0.456099 0.362885
H38   H     H_    0.198400 0.956693 0.414059 0.220056
H39   H     H_    0.980593 0.034394 0.603905 0.147091
H40   H     H_    0.857463 0.297408 0.541753 0.146585
H41   H     H_    0.789660 0.901463 0.573392 0.140197
N1    N     N_R   0.001544 0.813389 0.816144 0.312335
O25   O     O_R   0.993422 0.877136 0.876264 -0.284250
O26   O     O_R   0.954115 0.728029 0.819074 -0.340604
N2    N     N_R   0.997500 0.093123 0.294669 0.335929
O27   O     O_R   0.102768 0.127916 0.256315 -0.208744
O28   O     O_R   0.957402 0.004499 0.278525 -0.317665
N3    N     N_R   0.588647 0.739777 0.770727 0.277763
O29   O     O_R   0.627215 0.655199 0.775777 -0.300640
O30   O     O_R   0.595934 0.799735 0.834814 -0.288028
C45   C     C_2   0.404788 0.785600 0.280085 0.411101
H42   H     H_    0.356974 0.853837 0.281182 0.115378
O31   O     O_2   0.324439 0.723113 0.297971 -0.651997
N4    N     N_R   0.413806 0.337601 0.293972 0.188879
O32   O     O_R   0.275198 0.306333 0.255731 -0.394599
O33   O     O_R   0.421112 0.407639 0.350300 -0.400765
N5    N     N_R   0.517707 0.280617 0.148040 0.224814
O34   O     O_R   0.391116 0.269991 0.095872 -0.378873
O35   O     O_R   0.626193 0.346569 0.147154 -0.387339
N6    N     N_R   0.673880 0.163346 0.198281 0.223853
O36   O     O_R   0.801906 0.197690 0.175101 -0.283490
O37   O     O_R   0.655950 0.073717 0.195495 -0.337666
C46   C     C_2   0.341607 0.308943 0.902732 0.673924
H43   H     H_    0.421459 0.269444 0.936939 0.088049
O38   O     O_2   0.361083 0.393429 0.912914 -0.532254
C47   C     C_2   0.813587 0.222862 0.746630 0.409990
H44   H     H_    0.850622 0.273611 0.712187 -0.035099
O39   O     O_2   0.904573 0.162710 0.761245 -0.583797
N7    N     N_R   0.539702 0.175096 0.696293 0.237921
O40   O     O_R   0.533286 0.213825 0.634042 -0.375260
O41   O     O_R   0.473801 0.091426 0.690728 -0.393420
N8    N     N_R   0.285274 0.609968 0.861141 0.259814
O42   O     O_R   0.403258 0.579245 0.903629 -0.301672
O43   O     O_R   0.289452 0.697783 0.854971 -0.290770
N9    N     N_R   0.402533 0.075114 0.392442 0.250479
O44   O     O_R   0.267582 0.111865 0.403375 -0.391569
O45   O     O_R   0.422932 0.038335 0.321699 -0.379310
C48   C     C_2   0.094455 0.791972 0.607387 0.493652
H45   H     H_    0.098053 0.865397 0.602190 -0.056532
O46   O     O_2   0.114187 0.734562 0.551725 -0.546419

loop_
_geom_bond_atom_site_label_1
_geom_bond_atom_site_label_2
_geom_bond_distance
_ccdc_geom_bond_type
C31   C37   1.411101 A    
C13   H24   1.107464 S    
N3    O29   1.299265 A    
C17   C18   1.516091 S    
C5    H10   1.112720 S    
Ba2   O21   2.862800 S    
C19   H34   1.085443 S    
C35   H38   1.078700 S    
C40   C41   1.397751 A    
O6    C10   1.411448 S    
C17   C22   1.322238 D    
C18   C19   1.507534 S    
N2    O27   1.301559 A    
C9    H17   1.109025 S    
C16   H28   1.108687 S    
P7    O21   1.585062 D    
P3    O11   1.760613 S    
C15   N7    1.461416 S    
P4    C25   1.875401 S    
C48   H45   1.086276 S    
C2    H5    1.102487 S    
C45   H42   1.085123 S    
C38   C40   1.440473 A    
C7    H13   1.104709 S    
N2    O28   1.300176 A    
C13   C14   1.544464 S    
C36   C37   1.412449 A    
C11   C12   1.557812 S    
Ba1   O20   2.930194 S    
P1    O1    1.555667 D    
C14   H26   1.111606 S    
C41   C42   1.387339 A    
P7    O22   1.768443 S    
Ba1   O13   2.864876 S    
C42   C43   1.399892 A    
O12   Ba2   2.817392 S    
P4    Ba2   3.380550 S    
P5    O18   1.543912 D    
P7    C40   1.856200 S    
N7    O40   1.293071 A    
C11   N4    1.444796 S    
N4    O32   1.298275 A    
C10   C45   1.486589 S    
P2    O10   1.752556 S    
C6    H12   1.103574 S    
C33   H37   1.082356 S    
C1    C10   1.528444 S    
N9    O45   1.301620 A    
C1    H2    1.101401 S    
C4    O15   1.395921 S    
O14   P8    1.749300 S    
O3    P6    1.757744 S    
P5    O17   1.752376 S    
O5    C6    1.398506 S    
O13   Ba2   2.955032 S    
C44   N9    1.422774 S    
C4    C48   1.480369 S    
C11   O22   1.391960 S    
C15   O24   1.424846 S    
C32   C33   1.403821 A    
O7    Ba1   2.862553 S    
P8    O24   1.773525 S    
H1    C10   1.111482 S    
C34   C35   1.370926 A    
C4    H8    1.105046 S    
N1    O26   1.300344 A    
C9    H18   1.103375 S    
C16   H29   1.111675 S    
P1    C22   1.866476 S    
Ba1   Ba2   4.575061 S    
O17   Ba2   2.794090 S    
P1    O5    1.750943 S    
C31   H41   1.080549 S    
O4    P6    1.543747 D    
N5    O34   1.301027 A    
C2    C3    1.524714 S    
H27   C16   1.112056 S    
C47   O39   1.221141 D    
C23   C27   1.406687 A    
C28   C29   1.362092 D    
Ba2   O20   2.817927 S    
C23   C24   1.391542 A    
O11   C2    1.410590 S    
C11   H20   1.093711 S    
C5    N1    1.462196 S    
P2    Ba1   3.419510 S    
C12   H21   1.115268 S    
P1    O2    1.580858 S    
C21   H31   1.083320 S    
O2    Ba1   2.954175 S    
P4    O12   1.555979 D    
C3    H22   1.109341 S    
P2    C32   1.860067 S    
C8    H15   1.100516 S    
N8    O43   1.298992 A    
P4    O13   1.580949 S    
C27   C29   1.510146 S    
C20   C21   1.518296 S    
C30   H36   1.082118 S    
C29   H30   1.083247 S    
C6    C7    1.540660 S    
C32   C37   1.432430 A    
C1    H19   1.111079 S    
O10   C8    1.401423 S    
C28   H33   1.082720 S    
P3    C34   1.842895 S    
C1    H3    1.111793 S    
C12   N5    1.466291 S    
C23   H32   1.080310 S    
P2    O20   1.580451 S    
P8    O23   1.541730 D    
C26   N8    1.437009 S    
Ba1   O16   2.818626 S    
P2    O7    1.519797 D    
P3    O8    1.729340 S    
C17   H35   1.085444 S    
C3    H7    1.108264 S    
C26   C27   1.435877 A    
C9    H16   1.111151 S    
P8    C24   1.827775 S    
O19   C13   1.413847 S    
N1    O25   1.300620 A    
O8    Ba1   2.793505 S    
C8    N3    1.466331 S    
N5    O35   1.300157 A    
C39   C43   1.407735 A    
C25   C30   1.393791 A    
N3    O30   1.302754 A    
O16   P7    1.782486 S    
N7    O41   1.302854 A    
C3    H6    1.110352 S    
C6    H11   1.108521 S    
C21   C22   1.340046 D    
C47   H44   1.079000 S    
N6    O37   1.300784 A    
C4    C5    1.542467 S    
C20   C28   1.500257 S    
C35   C36   1.403829 A    
C36   C44   1.401992 A    
O1    Ba1   2.816793 S    
C2    H4    1.098054 S    
C46   O38   1.217679 D    
C31   C39   1.415972 A    
C8    C9    1.537041 S    
C38   C39   1.426315 A    
C41   H40   1.082543 S    
O2    Ba2   2.865498 S    
P4    O15   1.756770 S    
O16   Ba2   2.929384 S    
C24   C30   1.391621 A    
O14   Ba2   2.885314 S    
C48   O46   1.213015 D    
P1    Ba1   3.379884 S    
C13   H23   1.101206 S    
C7    H14   1.109005 S    
C14   H25   1.111541 S    
C43   H39   1.083859 S    
N6    O36   1.300807 A    
C38   C44   1.421157 A    
P5    O19   1.755893 S    
C25   C26   1.433397 A    
N4    O33   1.297940 A    
C19   C20   1.356310 D    
P3    O9    1.548207 D    
C33   C34   1.401043 A    
C7    N2    1.466745 S    
C15   C16   1.546295 S    
N8    O42   1.300119 A    
O6    P6    1.768094 S    
C45   O31   1.211566 D    
N9    O44   1.295210 A    
C46   H43   1.084021 S    
C14   C46   1.498669 S    
P6    C18   1.871025 S    
O3    Ba1   2.885885 S    
C12   N6    1.462082 S    
P5    C42   1.840022 S    
C5    H9    1.110780 S    
C15   C47   1.505618 S    
