data_mof_unit_19317.cif
_audit_creation_date              2013-03-05T15:47:08-0500
_audit_creation_method            fapswitch 2.2
_symmetry_space_group_name_H-M    P1
_symmetry_Int_Tables_number       1
_space_group_crystal_system       triclinic
_cell_length_a                    20.079623
_cell_length_b                    11.516329
_cell_length_c                    18.70868
_cell_angle_alpha                 89.999989
_cell_angle_beta                  92.160409
_cell_angle_gamma                 89.999962
_cell_volume                      4323.18638796

loop_
_atom_site_label
_atom_site_type_symbol
_atom_site_description
_atom_site_fract_x
_atom_site_fract_y
_atom_site_fract_z
_atom_type_partial_charge
O1    O     O_R   0.957210 0.449410 0.665480 -0.495256
O2    O     O_R   0.042790 0.449410 0.334520 -0.477598
O3    O     O_R   0.457210 0.949410 0.665480 -0.477594
O4    O     O_R   0.542790 0.949410 0.334520 -0.495255
O5    O     O_R   0.820730 0.541240 0.668250 -0.520869
O6    O     O_R   0.179270 0.541240 0.331750 -0.519330
O7    O     O_R   0.320730 0.041240 0.668250 -0.519330
O8    O     O_R   0.679270 0.041240 0.331750 -0.520869
C1    C     C_R   0.760339 0.524589 0.640192 0.532954
C2    C     C_R   0.239476 0.524431 0.360020 0.554105
C3    C     C_R   0.260524 0.024431 0.639980 0.554101
C4    C     C_R   0.739661 0.024589 0.359808 0.532952
O9    O     O_R   0.714240 0.455060 0.663710 -0.524384
O10   O     O_R   0.285760 0.455060 0.336290 -0.531182
O11   O     O_R   0.214240 0.955060 0.663710 -0.531184
O12   O     O_R   0.785760 0.955060 0.336290 -0.524383
O13   O     O_R   0.736780 0.204870 0.675910 -0.488490
O14   O     O_R   0.263220 0.204870 0.324090 -0.499028
O15   O     O_R   0.236780 0.704870 0.675910 -0.499029
O16   O     O_R   0.763220 0.704870 0.324090 -0.488488
C5    C     C_R   0.773610 0.120448 0.650243 0.574713
C6    C     C_R   0.227053 0.119466 0.349166 0.577015
C7    C     C_R   0.272947 0.619466 0.650835 0.577013
C8    C     C_R   0.726389 0.620448 0.349757 0.574715
O17   O     O_R   0.833070 0.087590 0.673490 -0.530387
O18   O     O_R   0.166930 0.087590 0.326510 -0.526966
O19   O     O_R   0.333070 0.587590 0.673490 -0.526965
O20   O     O_R   0.666930 0.587590 0.326510 -0.530387
O21   O     O_R   0.946890 0.246800 0.676300 -0.466727
O22   O     O_R   0.053110 0.246800 0.323700 -0.489348
O23   O     O_R   0.446890 0.746800 0.676300 -0.489348
O24   O     O_R   0.553110 0.746800 0.323700 -0.466724
C9    C     C_R   0.948755 0.345055 0.637978 0.541776
C10   C     C_R   0.055298 0.346492 0.363521 0.535638
C11   C     C_R   0.444701 0.846492 0.636479 0.535636
C12   C     C_R   0.551244 0.845055 0.362022 0.541777
O25   O     O_R   0.956650 0.457120 0.827980 -0.526802
O26   O     O_R   0.043350 0.457120 0.172020 -0.522821
O27   O     O_R   0.456650 0.957120 0.827980 -0.522822
O28   O     O_R   0.543350 0.957120 0.172020 -0.526804
O29   O     O_R   0.820220 0.548390 0.818890 -0.512764
O30   O     O_R   0.179780 0.548390 0.181110 -0.509650
O31   O     O_R   0.320220 0.048390 0.818890 -0.509650
O32   O     O_R   0.679780 0.048390 0.181110 -0.512764
C13   C     C_R   0.764358 0.520416 0.852651 0.524060
C14   C     C_R   0.235606 0.520303 0.147319 0.529316
C15   C     C_R   0.264394 0.020303 0.852681 0.529321
C16   C     C_R   0.735642 0.020417 0.147349 0.524054
O33   O     O_R   0.713680 0.462770 0.826210 -0.529079
O34   O     O_R   0.286320 0.462770 0.173790 -0.530193
O35   O     O_R   0.213680 0.962770 0.826210 -0.530199
O36   O     O_R   0.786320 0.962770 0.173790 -0.529074
O37   O     O_R   0.736260 0.212010 0.826560 -0.513774
O38   O     O_R   0.263740 0.212010 0.173440 -0.514813
O39   O     O_R   0.236260 0.712010 0.826560 -0.514814
O40   O     O_R   0.763740 0.712010 0.173440 -0.513772
C17   C     C_R   0.775582 0.131642 0.857730 0.561625
C18   C     C_R   0.224450 0.131562 0.142299 0.565358
C19   C     C_R   0.275550 0.631562 0.857701 0.565358
C20   C     C_R   0.724417 0.631642 0.142269 0.561625
O41   O     O_R   0.832520 0.095300 0.836000 -0.486511
O42   O     O_R   0.167480 0.095300 0.164000 -0.484869
O43   O     O_R   0.332520 0.595300 0.836000 -0.484869
O44   O     O_R   0.667480 0.595300 0.164000 -0.486511
O45   O     O_R   0.946380 0.253940 0.826940 -0.530344
O46   O     O_R   0.053620 0.253940 0.173060 -0.530620
O47   O     O_R   0.446380 0.753940 0.826940 -0.530620
O48   O     O_R   0.553620 0.753940 0.173060 -0.530343
C21   C     C_R   0.963112 0.355411 0.855797 0.540014
C22   C     C_R   0.036908 0.355420 0.144199 0.541237
C23   C     C_R   0.463091 0.855420 0.855801 0.541237
C24   C     C_R   0.536888 0.855411 0.144203 0.540013
Cr1   Cr    Cr6+3 0.885690 0.492860 0.745310 1.014155
Cr2   Cr    Cr6+3 0.114310 0.492860 0.254690 1.034571
Cr3   Cr    Cr6+3 0.385690 0.992860 0.745310 1.034572
Cr4   Cr    Cr6+3 0.614310 0.992860 0.254690 1.014155
Cr5   Cr    Cr6+3 0.729880 0.332270 0.748190 1.025405
Cr6   Cr    Cr6+3 0.270120 0.332270 0.251810 1.005207
Cr7   Cr    Cr6+3 0.229880 0.832270 0.748190 1.005198
Cr8   Cr    Cr6+3 0.770120 0.832270 0.251810 1.025417
Cr9   Cr    Cr6+3 0.888120 0.178590 0.753010 1.019571
Cr10  Cr    Cr6+3 0.111880 0.178590 0.246990 1.014356
Cr11  Cr    Cr6+3 0.388120 0.678590 0.753010 1.014355
Cr12  Cr    Cr6+3 0.611880 0.678590 0.246990 1.019573
O49   O     O_3   0.834560 0.334570 0.748840 -0.321418
O50   O     O_3   0.165440 0.334570 0.251160 -0.322975
O51   O     O_3   0.334560 0.834570 0.748840 -0.322974
O52   O     O_3   0.665440 0.834570 0.251160 -0.321419
C25   C     C_3   0.690566 0.132250 0.462370 -0.245944
C26   C     C_3   0.308884 0.138352 0.538935 -0.242840
C27   C     C_3   0.191116 0.638352 0.461065 -0.242842
C28   C     C_3   0.809434 0.632251 0.537630 -0.245947
H1    H     H_    0.642401 0.099167 0.443596 0.148976
H2    H     H_    0.358639 0.110422 0.557377 0.178414
H3    H     H_    0.141362 0.610421 0.442624 0.178419
H4    H     H_    0.857599 0.599169 0.556405 0.148976
H5    H     H_    0.692643 0.220791 0.439208 0.115004
H6    H     H_    0.304842 0.224366 0.564756 0.114717
H7    H     H_    0.195157 0.724365 0.435244 0.114718
H8    H     H_    0.807356 0.720792 0.560790 0.115002
C29   C     C_3   0.693599 0.140075 0.543725 -0.225364
C30   C     C_3   0.303341 0.153540 0.457674 -0.238584
C31   C     C_3   0.196660 0.653541 0.542326 -0.238586
C32   C     C_3   0.806401 0.640073 0.456274 -0.225364
H9    H     H_    0.685199 0.229860 0.560566 0.145121
H10   H     H_    0.302417 0.244099 0.442823 0.136170
H11   H     H_    0.197585 0.744100 0.557177 0.136171
H12   H     H_    0.814804 0.729856 0.439432 0.145125
H13   H     H_    0.652185 0.089818 0.564315 0.189459
H14   H     H_    0.348546 0.121403 0.434553 0.179453
H15   H     H_    0.151454 0.621406 0.565448 0.179453
H16   H     H_    0.847813 0.589810 0.435686 0.189458
H17   H     H_    0.718789 0.881303 0.463141 0.106190
H18   H     H_    0.281635 0.875365 0.541322 0.103941
H19   H     H_    0.218365 0.375365 0.458678 0.103942
H20   H     H_    0.781208 0.381302 0.536860 0.106191
H21   H     H_    0.718353 0.914877 0.583678 0.163556
H22   H     H_    0.302270 0.936528 0.422386 0.184572
H23   H     H_    0.197729 0.436529 0.577613 0.184567
H24   H     H_    0.781644 0.414875 0.416322 0.163558
C33   C     C_3   0.757939 0.942067 0.478977 -0.232670
C34   C     C_3   0.247427 0.941912 0.519780 -0.243943
C35   C     C_3   0.252572 0.441911 0.480221 -0.243943
C36   C     C_3   0.742059 0.442068 0.521024 -0.232671
C37   C     C_3   0.811317 0.129497 0.452030 -0.258040
C38   C     C_3   0.188374 0.123633 0.545224 -0.258613
C39   C     C_3   0.311626 0.623633 0.454776 -0.258611
C40   C     C_3   0.688683 0.629499 0.547971 -0.258039
C41   C     C_3   0.749105 0.057722 0.436040 0.053589
C42   C     C_3   0.252293 0.057299 0.563442 0.052360
C43   C     C_3   0.247707 0.557298 0.436558 0.052360
C44   C     C_3   0.750895 0.557722 0.563960 0.053589
H25   H     H_    0.855807 0.087025 0.429760 0.163764
H26   H     H_    0.145044 0.081875 0.569637 0.169201
H27   H     H_    0.354956 0.581877 0.430362 0.169199
H28   H     H_    0.644192 0.587028 0.570240 0.163763
H29   H     H_    0.805861 0.217148 0.428186 0.142109
H30   H     H_    0.194569 0.213832 0.562617 0.172294
H31   H     H_    0.305430 0.713832 0.437387 0.172298
H32   H     H_    0.694139 0.717150 0.571814 0.142109
C45   C     C_3   0.760203 0.090010 0.574397 0.066430
C46   C     C_3   0.241487 0.089608 0.425033 0.052424
C47   C     C_3   0.258513 0.589608 0.574967 0.052423
C48   C     C_3   0.739796 0.590010 0.425603 0.066430
C49   C     C_3   0.760479 0.959395 0.560219 -0.259777
C50   C     C_3   0.252610 0.961072 0.438914 -0.254148
C51   C     C_3   0.247389 0.461072 0.561086 -0.254148
C52   C     C_3   0.739519 0.459395 0.439781 -0.259779
C53   C     C_3   0.819797 0.139375 0.533964 -0.227899
C54   C     C_3   0.178030 0.125044 0.463921 -0.240220
C55   C     C_3   0.321971 0.625041 0.536079 -0.240222
C56   C     C_3   0.680203 0.639376 0.466036 -0.227898
H33   H     H_    0.830316 0.228733 0.551201 0.092820
H34   H     H_    0.161722 0.209442 0.443072 0.105084
H35   H     H_    0.338279 0.709439 0.556929 0.105085
H36   H     H_    0.669683 0.728734 0.448798 0.092820
H37   H     H_    0.864352 0.086653 0.550093 0.137365
H38   H     H_    0.137847 0.061315 0.449740 0.142257
H39   H     H_    0.362154 0.561311 0.550260 0.142258
H40   H     H_    0.635647 0.586654 0.449908 0.137365
H41   H     H_    0.806503 0.904343 0.465374 0.137857
H42   H     H_    0.196017 0.910127 0.526062 0.133634
H43   H     H_    0.303983 0.410126 0.473938 0.133634
H44   H     H_    0.693494 0.404347 0.534627 0.137858
H45   H     H_    0.806343 0.918763 0.584266 0.129210
H46   H     H_    0.215313 0.908177 0.408080 0.140287
H47   H     H_    0.284685 0.408175 0.591921 0.140287
H48   H     H_    0.693654 0.418764 0.415735 0.129212
C57   C     C_3   0.014662 0.218964 0.463767 -0.244878
C58   C     C_3   0.972006 0.222454 0.528276 -0.266085
C59   C     C_3   0.527993 0.722455 0.471724 -0.266089
C60   C     C_3   0.485338 0.718965 0.536233 -0.244878
H49   H     H_    0.060121 0.175303 0.482258 0.119837
H50   H     H_    0.923302 0.218007 0.502676 0.138797
H51   H     H_    0.576697 0.718009 0.497323 0.138799
H52   H     H_    0.439880 0.675302 0.517743 0.119832
H53   H     H_    0.993431 0.159699 0.422158 0.200043
H54   H     H_    0.977991 0.143457 0.561598 0.192219
H55   H     H_    0.522008 0.643458 0.438402 0.192218
H56   H     H_    0.506570 0.659702 0.577843 0.200044
H57   H     H_    0.614634 0.904057 0.484042 0.053193
H58   H     H_    0.373846 0.841920 0.501438 0.053679
H59   H     H_    0.126153 0.341921 0.498561 0.053674
H60   H     H_    0.885363 0.404054 0.515958 0.053195
C61   C     C_3   0.080381 0.389401 0.499135 -0.287098
C62   C     C_3   0.938851 0.426030 0.516901 -0.281477
C63   C     C_3   0.561146 0.926031 0.483098 -0.281471
C64   C     C_3   0.419617 0.889400 0.500864 -0.287101
C65   C     C_3   0.963590 0.428120 0.439421 0.088945
C66   C     C_3   0.055265 0.379267 0.577449 0.089272
C67   C     C_3   0.444734 0.879264 0.422549 0.089272
C68   C     C_3   0.536407 0.928123 0.560578 0.088946
C69   C     C_3   0.028779 0.345687 0.438873 0.014966
C70   C     C_3   0.979328 0.341471 0.567400 0.025464
C71   C     C_3   0.520671 0.841471 0.432599 0.025465
C72   C     C_3   0.471219 0.845688 0.561126 0.014961
H61   H     H_    0.942795 0.512319 0.540432 0.203978
H62   H     H_    0.094115 0.477579 0.487990 0.165670
H63   H     H_    0.405883 0.977579 0.512007 0.165663
H64   H     H_    0.557203 0.012320 0.459565 0.203988
C73   C     C_3   0.817112 0.008097 0.046927 0.030060
C74   C     C_3   0.182927 0.008054 0.953090 0.030225
C75   C     C_3   0.317073 0.508055 0.046910 0.030233
C76   C     C_3   0.682888 0.508096 0.953073 0.030054
H65   H     H_    0.819818 0.915349 0.057723 0.165710
H66   H     H_    0.180214 0.915306 0.942308 0.165788
H67   H     H_    0.319785 0.415307 0.057691 0.165784
H68   H     H_    0.680181 0.415348 0.942277 0.165713
C77   C     C_3   0.825238 0.024071 0.966319 -0.007860
C78   C     C_3   0.174786 0.024055 0.033691 -0.008472
C79   C     C_3   0.325213 0.524056 0.966309 -0.008469
C80   C     C_3   0.674762 0.524071 0.033681 -0.007863
H69   H     H_    0.868656 0.078213 0.961035 0.133515
H70   H     H_    0.131408 0.078309 0.038953 0.133578
H71   H     H_    0.368592 0.578310 0.961047 0.133572
H72   H     H_    0.631343 0.578213 0.038965 0.133519
H73   H     H_    0.704431 0.903866 0.027181 0.096791
H74   H     H_    0.295568 0.903688 0.972805 0.096820
H75   H     H_    0.204432 0.403689 0.027194 0.096819
H76   H     H_    0.795569 0.403866 0.972820 0.096792
H77   H     H_    0.707666 0.945517 0.907168 0.183096
H78   H     H_    0.292330 0.945196 0.092840 0.182800
H79   H     H_    0.207671 0.445197 0.907159 0.182797
H80   H     H_    0.792335 0.445518 0.092833 0.183098
C81   C     C_3   0.693923 0.992772 0.020328 -0.269159
C82   C     C_3   0.306098 0.992557 0.979704 -0.269846
C83   C     C_3   0.193901 0.492557 0.020296 -0.269848
C84   C     C_3   0.806076 0.492771 0.979672 -0.269160
C85   C     C_3   0.735847 0.178412 0.055831 -0.245300
C86   C     C_3   0.264275 0.178275 0.944217 -0.244783
C87   C     C_3   0.235725 0.678275 0.055783 -0.244781
C88   C     C_3   0.764153 0.678411 0.944169 -0.245301
C89   C     C_3   0.745900 0.051903 0.070301 0.017554
C90   C     C_3   0.254155 0.051781 0.929732 0.016769
C91   C     C_3   0.245845 0.551782 0.070268 0.016768
C92   C     C_3   0.754100 0.551902 0.929699 0.017555
H81   H     H_    0.682203 0.197621 0.060115 0.191838
H82   H     H_    0.317927 0.197438 0.939913 0.191333
H83   H     H_    0.182072 0.697438 0.060087 0.191332
H84   H     H_    0.817797 0.697620 0.939885 0.191838
H85   H     H_    0.762243 0.231100 0.096741 0.137375
H86   H     H_    0.237884 0.231030 0.903334 0.139016
H87   H     H_    0.262116 0.731029 0.096666 0.139021
H88   H     H_    0.737757 0.731100 0.903259 0.137371
C93   C     C_3   0.763733 0.093299 0.933003 0.007013
C94   C     C_3   0.236327 0.093156 0.067036 0.006781
C95   C     C_3   0.263673 0.593157 0.932964 0.006780
C96   C     C_3   0.736267 0.593299 0.066997 0.007014
C97   C     C_3   0.701250 0.023011 0.940218 -0.236795
C98   C     C_3   0.298771 0.022736 0.059827 -0.235910
C99   C     C_3   0.201229 0.522736 0.940172 -0.235911
C100  C     C_3   0.798750 0.523012 0.059782 -0.236794
C101  C     C_3   0.755959 0.201787 0.978977 -0.268341
C102  C     C_3   0.244195 0.201638 0.021078 -0.269117
C103  C     C_3   0.255805 0.701639 0.978922 -0.269116
C104  C     C_3   0.744041 0.701787 0.021022 -0.268342
H89   H     H_    0.805450 0.235961 0.982251 0.100838
H90   H     H_    0.194723 0.235862 0.017816 0.101000
H91   H     H_    0.305276 0.735863 0.982184 0.101002
H92   H     H_    0.694550 0.735961 0.017748 0.100837
H93   H     H_    0.719226 0.258221 0.952906 0.139733
H94   H     H_    0.280974 0.257986 0.047157 0.139805
H95   H     H_    0.219026 0.757986 0.952843 0.139805
H96   H     H_    0.780773 0.758221 0.047094 0.139732
H97   H     H_    0.643340 0.013272 0.036596 0.136351
H98   H     H_    0.356685 0.012965 0.963450 0.135847
H99   H     H_    0.143315 0.512966 0.036549 0.135848
H100  H     H_    0.856660 0.513270 0.963404 0.136350
H101  H     H_    0.656967 0.072072 0.919272 0.153108
H102  H     H_    0.343070 0.071712 0.080805 0.152430
H103  H     H_    0.156930 0.571713 0.919194 0.152433
H104  H     H_    0.843032 0.572074 0.080727 0.153106
C105  C     C_3   0.003039 0.485305 0.040474 -0.216370
C106  C     C_3   0.997092 0.485275 0.959492 -0.216705
C107  C     C_3   0.502907 0.985275 0.040508 -0.216706
C108  C     C_3   0.496960 0.985305 0.959526 -0.216369
H105  H     H_    0.043121 0.546065 0.057742 0.142169
H106  H     H_    0.957010 0.546057 0.942238 0.142232
H107  H     H_    0.542989 0.046057 0.057762 0.142233
H108  H     H_    0.456879 0.046065 0.942258 0.142168
H109  H     H_    0.957042 0.522845 0.062241 0.165568
H110  H     H_    0.043102 0.522706 0.937696 0.164669
H111  H     H_    0.456897 0.022706 0.062304 0.164667
H112  H     H_    0.542957 0.022845 0.937759 0.165568
H113  H     H_    0.613119 0.831858 0.040873 0.107716
H114  H     H_    0.386853 0.831387 0.959097 0.107700
H115  H     H_    0.113147 0.331389 0.040903 0.107699
H116  H     H_    0.886881 0.331858 0.959127 0.107715
C109  C     C_3   0.065948 0.294006 0.025872 -0.233150
C110  C     C_3   0.934008 0.294251 0.974163 -0.233826
C111  C     C_3   0.565992 0.794252 0.025837 -0.233825
C112  C     C_3   0.434052 0.794005 0.974128 -0.233148
C113  C     C_3   0.949607 0.291674 0.056146 -0.001329
C114  C     C_3   0.050349 0.291417 0.943900 -0.002130
C115  C     C_3   0.449651 0.791417 0.056100 -0.002128
C116  C     C_3   0.550393 0.791675 0.943854 -0.001331
C117  C     C_3   0.013459 0.358387 0.068874 0.067082
C118  C     C_3   0.986572 0.358366 0.931132 0.067750
C119  C     C_3   0.513427 0.858366 0.068869 0.067749
C120  C     C_3   0.486541 0.858387 0.931126 0.067083
H117  H     H_    0.958767 0.201154 0.072372 0.167382
H118  H     H_    0.041087 0.200902 0.927697 0.167409
H119  H     H_    0.458913 0.700902 0.072304 0.167403
H120  H     H_    0.541234 0.701154 0.927628 0.167385
H121  H     H_    0.934055 0.204685 0.955131 0.100664
H122  H     H_    0.065757 0.204429 0.044917 0.100751
H123  H     H_    0.434244 0.704427 0.955083 0.100749
H124  H     H_    0.565945 0.704685 0.044869 0.100664
C121  C     C_2   0.589205 0.879555 0.616459 0.550650
O53   O     O_2   0.626120 0.944425 0.651196 -0.525728
O54   O     O_R   0.591063 0.762099 0.634436 -0.750692
H125  H     H_    0.624614 0.743505 0.674699 0.327780
C122  C     C_2   0.406894 0.786573 0.374982 0.537603
O55   O     O_2   0.352699 0.808845 0.346139 -0.550196
O56   O     O_R   0.435618 0.680206 0.357792 -0.720935
H126  H     H_    0.407620 0.633288 0.321937 0.337192
C123  C     C_2   0.093106 0.286579 0.625017 0.537602
O57   O     O_2   0.147299 0.308856 0.653864 -0.550194
O58   O     O_R   0.064384 0.180207 0.642203 -0.720941
H127  H     H_    0.092382 0.133292 0.678061 0.337192
C124  C     C_2   0.910793 0.379547 0.383539 0.550645
O59   O     O_2   0.873876 0.444415 0.348804 -0.525729
O60   O     O_R   0.908938 0.262091 0.365563 -0.750690
H128  H     H_    0.875387 0.243496 0.325300 0.327781
C125  C     C_2   0.976705 0.560278 0.421557 0.578462
O61   O     O_2   0.951934 0.606035 0.367729 -0.466554
O62   O     O_R   0.018645 0.628726 0.464761 -0.710423
H129  H     H_    0.022963 0.711372 0.446766 0.331959
C126  C     C_2   0.067185 0.498627 0.616622 0.579873
O63   O     O_2   0.103333 0.506071 0.670672 -0.501309
O64   O     O_R   0.033697 0.599176 0.594550 -0.677791
H130  H     H_    0.044408 0.668953 0.626022 0.334547
C127  C     C_2   0.432811 0.998622 0.383374 0.579873
O65   O     O_2   0.396657 0.006063 0.329328 -0.501320
O66   O     O_R   0.466303 0.099171 0.405438 -0.677777
H131  H     H_    0.455589 0.168946 0.373966 0.334548
C128  C     C_2   0.523290 0.060281 0.578439 0.578445
O67   O     O_2   0.548057 0.106039 0.632270 -0.466547
O68   O     O_R   0.481355 0.128729 0.535226 -0.710431
H132  H     H_    0.477037 0.211376 0.553220 0.331958
N1    N     N_2   0.872032 0.061857 0.088198 -0.556298
H133  H     H_    0.858679 0.111783 0.130908 0.277782
C129  C     C_3   0.929259 0.988190 0.105045 -0.283719
H134  H     H_    0.965278 0.034730 0.141312 0.139463
H135  H     H_    0.955028 0.965808 0.055509 0.202565
H136  H     H_    0.913832 0.907734 0.132726 0.177964
N2    N     N_2   0.128028 0.061830 0.911787 -0.555727
H137  H     H_    0.141437 0.111769 0.869110 0.278575
C130  C     C_3   0.070853 0.988128 0.894782 -0.287024
H138  H     H_    0.034869 0.034709 0.858492 0.138104
H139  H     H_    0.045024 0.965586 0.944251 0.203499
H140  H     H_    0.086352 0.907764 0.867053 0.174260
N3    N     N_2   0.371972 0.561830 0.088213 -0.555731
H141  H     H_    0.358565 0.611753 0.130898 0.278578
C131  C     C_3   0.429157 0.488137 0.105197 -0.286967
H142  H     H_    0.465126 0.534696 0.141516 0.138100
H143  H     H_    0.454999 0.465675 0.055719 0.203458
H144  H     H_    0.413667 0.407725 0.132885 0.174260
N4    N     N_2   0.627968 0.561858 0.911802 -0.556295
H145  H     H_    0.641323 0.611798 0.869099 0.277780
C132  C     C_3   0.570749 0.488182 0.894935 -0.283765
H146  H     H_    0.534718 0.534744 0.858693 0.139465
H147  H     H_    0.544993 0.465728 0.944465 0.202599
H148  H     H_    0.586186 0.407767 0.867217 0.177965
C133  C     C_2   0.846595 0.914366 0.927968 0.521913
O69   O     O_2   0.895834 0.861598 0.950742 -0.574990
O70   O     O_R   0.815319 0.879893 0.863244 -0.707847
H149  H     H_    0.839317 0.813792 0.839318 0.339234
C134  C     C_2   0.153367 0.914370 0.072029 0.521328
O71   O     O_2   0.104114 0.861666 0.049231 -0.574504
O72   O     O_R   0.184615 0.879837 0.136755 -0.702690
H150  H     H_    0.160596 0.813736 0.160655 0.342352
C135  C     C_2   0.346634 0.414370 0.927972 0.521328
O73   O     O_2   0.395886 0.361665 0.950772 -0.574499
O74   O     O_R   0.315387 0.379836 0.863246 -0.702689
H151  H     H_    0.339406 0.313735 0.839346 0.342351
C136  C     C_2   0.653406 0.414366 0.072033 0.521913
O75   O     O_2   0.604166 0.361598 0.049260 -0.574994
O76   O     O_R   0.684682 0.379894 0.136757 -0.707847
H152  H     H_    0.660686 0.313793 0.160683 0.339235
N5    N     N_2   0.605074 0.837002 0.904079 -0.564053
H153  H     H_    0.647439 0.799865 0.923798 0.254039
C137  C     C_3   0.603116 0.830994 0.826441 -0.280374
H154  H     H_    0.654662 0.829200 0.806765 0.147688
H155  H     H_    0.579149 0.909934 0.803468 0.227670
H156  H     H_    0.577042 0.751624 0.806635 0.162962
N6    N     N_2   0.394908 0.836511 0.095860 -0.572283
H157  H     H_    0.352558 0.799358 0.076113 0.252787
C138  C     C_3   0.396875 0.830441 0.173482 -0.260996
H158  H     H_    0.345328 0.828821 0.193140 0.180801
H159  H     H_    0.420949 0.909281 0.196382 0.229051
H160  H     H_    0.422887 0.751026 0.193307 0.167249
N7    N     N_2   0.105091 0.336513 0.904140 -0.572282
H161  H     H_    0.147442 0.299364 0.923888 0.252781
C139  C     C_3   0.103125 0.330438 0.826517 -0.260997
H162  H     H_    0.154672 0.328817 0.806859 0.180798
H163  H     H_    0.079050 0.409276 0.803615 0.229058
H164  H     H_    0.077114 0.251021 0.806694 0.167246
N8    N     N_2   0.894926 0.337000 0.095922 -0.564050
H165  H     H_    0.852561 0.299863 0.076202 0.254044
C140  C     C_3   0.896884 0.330990 0.173560 -0.280369
H166  H     H_    0.845337 0.329194 0.193235 0.147690
H167  H     H_    0.920851 0.409929 0.196534 0.227670
H168  H     H_    0.922958 0.251620 0.193365 0.162959

loop_
_geom_bond_atom_site_label_1
_geom_bond_atom_site_label_2
_geom_bond_distance
_ccdc_geom_bond_type
O4    C12   1.315767 A    
O25   C21   1.286300 A    
C110  C113  1.554121 S    
C46   C50   1.517937 S    
C106  H110  1.110861 S    
C75   C79   1.533988 S    
Cr7   O51   2.101681 S    
C128  O67   1.225366 D    
H57   C63   1.102924 S    
C61   C66   1.571747 S    
C127  O65   1.225321 D    
C58   H54   1.106837 S    
C64   C67   1.571753 S    
C108  H108  1.105499 S    
C114  C118  1.506119 S    
O39   C19   1.336234 A    
C27   C43   1.553072 S    
C65   C124  1.564048 S    
C25   C41   1.550693 S    
C73   C77   1.534040 S    
C1    O9    1.312355 A    
C2    C43   1.484310 S    
O44   Cr12  2.169753 S    
C84   H100  1.096962 S    
C3    O11   1.315366 A    
C56   H36   1.096580 S    
H115  C109  1.068894 S    
C55   H35   1.092915 S    
C54   H38   1.115308 S    
C45   C49   1.527459 S    
O2    C10   1.323620 A    
C47   C55   1.545747 S    
O17   Cr9   2.099871 S    
C7    C47   1.478471 S    
N3    C131  1.453333 S    
C107  C119  1.566450 S    
C103  H91   1.068302 S    
O31   Cr3   2.041715 S    
C132  H148  1.111183 S    
H19   C35   1.095754 S    
O16   Cr8   2.003635 S    
O60   H128  1.014328 S    
C59   C71   1.558181 S    
C57   C69   1.561101 S    
C93   C101  1.528158 S    
C77   H69   1.079403 S    
O28   Cr4   2.103705 S    
O12   Cr8   2.135148 S    
O22   Cr10  2.048650 S    
O15   C7    1.319287 A    
C66   C126  1.571835 S    
C74   C90   1.592875 S    
C36   C52   1.531933 S    
C131  H142  1.110780 S    
O48   C24   1.325228 A    
C33   H41   1.105948 S    
C76   C80   1.534043 S    
C76   N4    1.459947 S    
C37   C53   1.540121 S    
C11   C72   1.525640 S    
C103  H95   1.085058 S    
C9    C70   1.477565 S    
H24   C52   1.094964 S    
C96   C100  1.503442 S    
C21   C118  1.469502 S    
C104  H96   1.084984 S    
C138  H158  1.111575 S    
C60   C72   1.561099 S    
C85   H81   1.105502 S    
C137  H154  1.111730 S    
C83   C99   1.551161 S    
C58   H50   1.073822 S    
C101  H93   1.084983 S    
N8    C140  1.453209 S    
C25   C29   1.523642 S    
Cr12  O52   2.093595 S    
C27   C31   1.530189 S    
C31   C47   1.549318 S    
O74   H151  1.014048 S    
C17   O41   1.297142 A    
N7    H161  1.009464 S    
C19   O43   1.297233 A    
C63   H64   1.088567 S    
C20   O44   1.297144 A    
C109  C117  1.540037 S    
C40   H28   1.113085 S    
C81   C89   1.534114 S    
C76   C92   1.592949 S    
C133  O69   1.223365 D    
C83   H99   1.096694 S    
O46   C22   1.325251 A    
C59   H51   1.073820 S    
C86   C90   1.494212 S    
C34   C50   1.536304 S    
C39   C43   1.521206 S    
C28   C32   1.523640 S    
O66   H131  1.014454 S    
C37   C41   1.518242 S    
C16   O36   1.297291 A    
C18   C94   1.503491 S    
C38   H26   1.107609 S    
Cr8   O52   2.101676 S    
C124  O59   1.222109 D    
C111  H124  1.091213 S    
O29   C13   1.346973 A    
C31   H11   1.079271 S    
C29   H13   1.095004 S    
H74   C82   1.052017 S    
O32   C16   1.346971 A    
H116  C110  1.068681 S    
O47   Cr11  1.978027 S    
C130  H138  1.110759 S    
O21   C9    1.340833 A    
C13   C92   1.508032 S    
C80   C96   1.578374 S    
C79   C135  1.522591 S    
C140  H166  1.111732 S    
O24   C12   1.340830 A    
H21   C49   1.094968 S    
C28   C44   1.550690 S    
C122  O56   1.396638 S    
N8    H165  1.009457 S    
C28   H4    1.085477 S    
C36   C44   1.562042 S    
C79   C95   1.578394 S    
C125  O62   1.390178 S    
C26   C30   1.530189 S    
C53   H33   1.096582 S    
C39   C55   1.527492 S    
C40   C56   1.540124 S    
O11   Cr7   2.135148 S    
C138  H160  1.110050 S    
C62   H61   1.088565 S    
O27   Cr3   2.103704 S    
C107  H111  1.110863 S    
C16   C89   1.508031 S    
Cr5   O49   2.101681 S    
C126  O64   1.393767 S    
C59   H55   1.106835 S    
C85   C89   1.494167 S    
C57   H53   1.108395 S    
O7    C3    1.315464 A    
N1    C129  1.453340 S    
O22   C10   1.368425 A    
C4    O12   1.312357 A    
C2    O10   1.315368 A    
C32   H16   1.094996 S    
C108  H112  1.110928 S    
C67   C71   1.590014 S    
C55   H39   1.115308 S    
O5    C1    1.317128 A    
C86   H86   1.097445 S    
O3    C11   1.323621 A    
O8    C4    1.317124 A    
C6    C46   1.478471 S    
H58   C64   1.069827 S    
Cr1   O49   2.094412 S    
C63   C68   1.550106 S    
C112  H123  1.091455 S    
H78   C98   1.096184 S    
Cr3   O51   2.094412 S    
C131  H143  1.108704 S    
C130  H140  1.111166 S    
C129  H135  1.108688 S    
C67   C127  1.571838 S    
C78   C94   1.578394 S    
C113  H117  1.099316 S    
C24   C119  1.469502 S    
N4    H145  1.028152 S    
C140  H168  1.110073 S    
C115  H119  1.099463 S    
O26   Cr2   2.103705 S    
C116  H120  1.099320 S    
C5    O17   1.310974 A    
O27   C23   1.286198 A    
O28   C24   1.286300 A    
C80   C136  1.522534 S    
O14   C6    1.319289 A    
C62   C70   1.563187 S    
C8    O20   1.310971 A    
N6    C138  1.452945 S    
C95   C99   1.503580 S    
H113  C111  1.068681 S    
C82   C90   1.534143 S    
H114  C112  1.068896 S    
C40   H32   1.107351 S    
C137  H156  1.110073 S    
C48   C56   1.547752 S    
O41   Cr9   2.169755 S    
C38   C54   1.527495 S    
C73   N1    1.459946 S    
C115  N6    1.446695 S    
C104  H92   1.068457 S    
C22   C117  1.469279 S    
C77   C133  1.522534 S    
C25   H1    1.085475 S    
C105  C117  1.566536 S    
C136  O76   1.400334 S    
H80   C100  1.096086 S    
O29   Cr1   2.041715 S    
C101  H89   1.068457 S    
H17   C33   1.085307 S    
C102  H94   1.085061 S    
C57   H49   1.087146 S    
C87   C91   1.494208 S    
C30   C46   1.549321 S    
C36   H44   1.105947 S    
Cr9   O49   2.093594 S    
C60   H52   1.087146 S    
C78   C134  1.522593 S    
H73   C81   1.052239 S    
C134  O72   1.400338 S    
C18   O42   1.297235 A    
Cr11  O51   2.093594 S    
O26   C22   1.286197 A    
O20   Cr12  2.099870 S    
C106  C118  1.566450 S    
C107  C108  1.515271 S    
C110  C118  1.539938 S    
C129  H134  1.110742 S    
N3    H141  1.028090 S    
O76   H152  1.014051 S    
C49   H45   1.112760 S    
C132  H147  1.108667 S    
C68   C72   1.617329 S    
C39   H27   1.107608 S    
C135  O74   1.400338 S    
O38   C18   1.336235 A    
C139  H164  1.110052 S    
C68   C128  1.582428 S    
C38   C42   1.521203 S    
H23   C51   1.092267 S    
O72   H150  1.014049 S    
H76   C84   1.052237 S    
C31   H15   1.085186 S    
O30   C14   1.346954 A    
C123  O58   1.396645 S    
C93   C97   1.503441 S    
C108  C120  1.566537 S    
C67   C122  1.567724 S    
C81   C97   1.551055 S    
O6    Cr2   1.987085 S    
C87   C103  1.531810 S    
C60   H56   1.108395 S    
O42   Cr10  2.169753 S    
O56   H126  1.014677 S    
O18   Cr10  2.099870 S    
O34   Cr6   2.128578 S    
C128  O68   1.390200 S    
C26   H2    1.092990 S    
C66   C123  1.567724 S    
C127  O66   1.393773 S    
O24   Cr12  2.048650 S    
N5    C137  1.453210 S    
O30   Cr2   2.041714 S    
C4    C41   1.481620 S    
C45   C53   1.547752 S    
O48   Cr12  1.978027 S    
C57   C58   1.506543 S    
C97   H101  1.112279 S    
C75   N3    1.459996 S    
N2    H137  1.028088 S    
C58   C70   1.558182 S    
O37   C17   1.336201 A    
C15   O35   1.297376 A    
C94   C102  1.528158 S    
C37   H29   1.107352 S    
C109  H122  1.091453 S    
Cr10  O50   2.093595 S    
C105  H105  1.105500 S    
O40   C20   1.336200 A    
O43   Cr11  2.169755 S    
O37   Cr5   2.017447 S    
O64   H130  1.014454 S    
C75   C91   1.592868 S    
O39   Cr7   2.017447 S    
C73   C89   1.592945 S    
O68   H132  1.014369 S    
C13   O33   1.297293 A    
C105  H109  1.110928 S    
O13   Cr5   2.003637 S    
O23   Cr11  2.048648 S    
O15   Cr7   2.003637 S    
C10   C69   1.525631 S    
H77   C97   1.096085 S    
C81   H97   1.096964 S    
C52   H48   1.112760 S    
O23   C11   1.368429 A    
C112  C120  1.540037 S    
C3    C42   1.484310 S    
C77   C93   1.578371 S    
C32   H12   1.095849 S    
C1    C44   1.481619 S    
H79   C99   1.096184 S    
C82   C98   1.551158 S    
H20   C36   1.085310 S    
C35   C43   1.560959 S    
C88   H88   1.097409 S    
C33   C41   1.562040 S    
O31   C15   1.346957 A    
C86   C102  1.531809 S    
O40   Cr8   2.017447 S    
C74   N2    1.459994 S    
O6    C2    1.315462 A    
C115  C119  1.506119 S    
C139  H162  1.111576 S    
C109  C114  1.553939 S    
O1    Cr1   2.169111 S    
C14   C91   1.507990 S    
C46   C54   1.545749 S    
C62   C65   1.550108 S    
O19   Cr11  2.099871 S    
C111  C116  1.554123 S    
C5    C45   1.476503 S    
O62   H129  1.014368 S    
C122  O55   1.223483 D    
C8    C48   1.476502 S    
O45   C21   1.325228 A    
C116  N5    1.446852 S    
H60   C62   1.102924 S    
O47   C23   1.325251 A    
C113  C117  1.505921 S    
C125  O61   1.225350 D    
O13   C5    1.322686 A    
C114  H118  1.099466 S    
O58   H127  1.014678 S    
C26   C42   1.553074 S    
C116  C120  1.505921 S    
C6    O18   1.316535 A    
C65   C125  1.582429 S    
C138  H159  1.107238 S    
C34   H42   1.105716 S    
H75   C83   1.052018 S    
O36   Cr8   2.128578 S    
C53   H37   1.113444 S    
O38   Cr6   2.017447 S    
C95   C103  1.528159 S    
C79   H71   1.079451 S    
C59   C60   1.506544 S    
C56   H40   1.113444 S    
C126  O63   1.225319 D    
C107  H107  1.105599 S    
O70   H149  1.014050 S    
C88   C104  1.531881 S    
C88   C92   1.494169 S    
C48   C52   1.527462 S    
O1    C9    1.315771 A    
C121  O53   1.222109 D    
C47   C51   1.517938 S    
N7    C139  1.452950 S    
C68   C121  1.564045 S    
C87   H83   1.105598 S    
C133  O70   1.400333 S    
O46   Cr10  1.978027 S    
C102  H90   1.068302 S    
C35   H43   1.105716 S    
O32   Cr4   2.041714 S    
C23   C120  1.469281 S    
C29   C45   1.546752 S    
O16   C8    1.322691 A    
O33   Cr5   2.128578 S    
C124  O60   1.394004 S    
C32   C48   1.546752 S    
C7    O19   1.316536 A    
C61   H62   1.074746 S    
C111  C119  1.539938 S    
Cr4   O52   2.094411 S    
O2    Cr2   2.169113 S    
O14   Cr6   2.003635 S    
C15   C90   1.507990 S    
Cr6   O50   2.101676 S    
C85   H85   1.097408 S    
C50   H46   1.110032 S    
C130  H139  1.108659 S    
O5    Cr1   1.987083 S    
C39   H31   1.094218 S    
C74   C78   1.533993 S    
C40   C44   1.518245 S    
C140  H167  1.107783 S    
O35   Cr7   2.128578 S    
C29   H9    1.095847 S    
O9    Cr5   2.135148 S    
C84   C92   1.534114 S    
C80   H72   1.079404 S    
H22   C50   1.092268 S    
C17   C93   1.503343 S    
C99   H103  1.112245 S    
C100  H104  1.112279 S    
O7    Cr3   1.987083 S    
C64   H63   1.074749 S    
C78   H70   1.079451 S    
C75   H67   1.087982 S    
C25   H5    1.109322 S    
C87   H87   1.097445 S    
C137  H155  1.107783 S    
C65   C69   1.617332 S    
N2    C130  1.453322 S    
H59   C61   1.069828 S    
C105  C106  1.515271 S    
N4    C132  1.453333 S    
Cr2   O50   2.094411 S    
C136  O75   1.223366 D    
C51   H47   1.110032 S    
C82   H98   1.096694 S    
C76   H68   1.088018 S    
C35   C51   1.536304 S    
O21   Cr9   2.048648 S    
C20   C96   1.503344 S    
O8    Cr4   1.987085 S    
C74   H66   1.087983 S    
C33   C49   1.531934 S    
C86   H82   1.105600 S    
C98   H102  1.112243 S    
O3    Cr3   2.169111 S    
C28   H8    1.109321 S    
C134  O71   1.223358 D    
C94   C98   1.503584 S    
C37   H25   1.113085 S    
O25   Cr1   2.103704 S    
C38   H30   1.094224 S    
C110  H121  1.091214 S    
C73   H65   1.088016 S    
C113  N8    1.446851 S    
C63   C71   1.563185 S    
C106  H106  1.105601 S    
C112  C115  1.553940 S    
C61   C69   1.584309 S    
C85   C101  1.531882 S    
C96   C104  1.528158 S    
C83   C91   1.534147 S    
C132  H146  1.110733 S    
C14   O34   1.297377 A    
C27   H7    1.106390 S    
C12   C71   1.477561 S    
C135  O73   1.223358 D    
C139  H163  1.107240 S    
C19   C95   1.503490 S    
N5    H153  1.009457 S    
C121  O54   1.394004 S    
C114  N7    1.446697 S    
C26   H6    1.106389 S    
C30   H10   1.079272 S    
O10   Cr6   2.135148 S    
C123  O57   1.223488 D    
O4    Cr4   2.169113 S    
C30   H14   1.085187 S    
C66   C70   1.590017 S    
H18   C34   1.095755 S    
C131  H144  1.111209 S    
C84   C100  1.551054 S    
C64   C72   1.584312 S    
C27   H3    1.092984 S    
C54   H34   1.092912 S    
C129  H136  1.111197 S    
C88   H84   1.105503 S    
N1    H133  1.028156 S    
O45   Cr9   1.978027 S    
C34   C42   1.560960 S    
N6    H157  1.009461 S    
O54   H125  1.014328 S    
