data_mof_unit_58992.cif
_audit_creation_date              2012-10-26T19:28:57-0400
_audit_creation_method            fapswitch 2.2
_symmetry_space_group_name_H-M    P1
_symmetry_Int_Tables_number       1
_space_group_crystal_system       triclinic
_cell_length_a                    9.435042
_cell_length_b                    10.732147
_cell_length_c                    17.33289
_cell_angle_alpha                 90.894733
_cell_angle_beta                  86.329509
_cell_angle_gamma                 90.625659
_cell_volume                      1751.19794611

loop_
_atom_site_label
_atom_site_type_symbol
_atom_type_description
_atom_site_fract_x
_atom_site_fract_y
_atom_site_fract_z
_atom_type_partial_charge
C1    C     C_R   0.500530 0.740087 0.499317 0.548574
C2    C     C_R   0.526632 0.484629 0.265825 -0.002641
C3    C     C_3   0.428361 0.926141 0.428047 -0.238410
C4    C     C_R   0.481847 0.501096 0.649866 0.538792
C5    C     C_3   0.425846 0.069934 0.429659 -0.246469
C6    C     C_3   0.416887 0.927030 0.573840 -0.214241
C7    C     C_3   0.653741 0.930284 0.498187 -0.241122
C8    C     C_3   0.500100 0.878024 0.499632 0.042617
C9    C     C_3   0.499303 0.121841 0.501349 0.055537
C10   C     C_3   0.416587 0.072042 0.576156 -0.102601
C11   C     C_3   0.654108 0.072487 0.496520 -0.231275
C12   C     C_R   0.341692 0.514735 0.776275 -0.139840
C13   C     C_3   0.916913 0.376334 0.473209 -0.116710
C14   C     C_3   0.085124 0.378215 0.467136 -0.115263
C15   C     C_3   0.925283 0.590585 0.443343 -0.091757
C16   C     C_R   0.499584 0.259902 0.499768 0.546641
C17   C     C_3   0.911338 0.528212 0.577280 0.025249
C18   C     C_3   0.091270 0.598184 0.450448 -0.097881
C19   C     C_3   0.076588 0.510064 0.578048 -0.073690
C20   C     C_R   0.518116 0.497157 0.350114 0.550120
C21   C     C_R   0.473247 0.503206 0.734286 0.007542
C22   C     C_R   0.597987 0.494559 0.773638 -0.149564
C23   C     C_R   0.407953 0.457745 0.147455 -0.129759
C24   C     C_R   0.591515 0.496208 0.853706 -0.119754
C25   C     C_R   0.459817 0.505121 0.895714 0.040424
C26   C     C_R   0.335336 0.516510 0.856736 -0.123673
C27   C     C_3   0.812575 0.452420 0.101472 -0.256948
C28   C     C_3   0.852283 0.574263 0.059900 -0.290969
C29   C     C_3   0.998230 0.565420 0.016932 -0.466771
C30   C     C_3   0.474629 0.123724 0.652369 -0.264053
C31   C     C_3   0.368372 0.103364 0.722098 -0.313460
C32   C     C_3   0.429963 0.147639 0.797174 -0.448301
C33   C     C_3   0.864742 0.655081 0.618119 -0.235703
C34   C     C_R   0.401550 0.474402 0.226876 -0.147721
C35   C     C_3   0.949001 0.777079 0.599204 -0.317579
C36   C     C_3   0.913289 0.878158 0.660412 -0.472547
C37   C     C_R   0.658771 0.476335 0.224259 -0.129723
C38   C     C_R   0.667115 0.459930 0.143755 0.015574
C39   C     C_R   0.539504 0.452662 0.104972 0.050784
C40   C     C_2   0.450830 0.506296 0.980294 -0.147291
C41   C     C_2   0.541568 0.441904 0.020367 -0.144685
Cu1   Cu    Cu3+1 0.357600 0.500140 0.499960 0.863168
Cu2   Cu    Cu3+1 0.642400 0.499860 0.500040 0.859725
H1    H     H_    0.700859 0.486059 0.742752 0.107274
H2    H     H_    0.711585 0.103833 0.441995 0.113366
H3    H     H_    0.298115 0.478093 0.257750 0.115062
H4    H     H_    0.714044 0.110016 0.545144 0.112877
H5    H     H_    0.465198 0.888440 0.625213 0.108647
H6    H     H_    0.876907 0.347513 0.416555 0.114573
H7    H     H_    0.880085 0.303704 0.515162 0.103061
H8    H     H_    0.122615 0.297031 0.498923 0.112342
H9    H     H_    0.124951 0.364889 0.405755 0.106585
H10   H     H_    0.904194 0.562975 0.382938 0.097853
H11   H     H_    0.144940 0.593046 0.391550 0.112978
H12   H     H_    0.317664 0.889396 0.427238 0.114196
H13   H     H_    0.755684 0.482890 0.254494 0.107523
H14   H     H_    0.863876 0.455802 0.616691 0.108909
H15   H     H_    0.097248 0.425125 0.611648 0.083978
H16   H     H_    0.129892 0.584533 0.610044 0.134106
H17   H     H_    0.876883 0.683351 0.451416 0.118668
H18   H     H_    0.120603 0.690552 0.474312 0.110421
H19   H     H_    0.622399 0.385023 0.990317 0.116231
H20   H     H_    0.233287 0.525133 0.888567 0.097099
H21   H     H_    0.309212 0.447981 0.119223 0.098923
H22   H     H_    0.244068 0.522448 0.747127 0.108056
H23   H     H_    0.487344 0.892618 0.374155 0.111179
H24   H     H_    0.368178 0.562106 0.009963 0.116348
H25   H     H_    0.689882 0.492145 0.882425 0.098581
H26   H     H_    0.080963 0.547087 0.058015 0.142874
H27   H     H_    0.998488 0.489358 0.972712 0.142683
H28   H     H_    0.024408 0.654621 0.987429 0.136669
H29   H     H_    0.772859 0.596026 0.017621 0.168657
H30   H     H_    0.853861 0.652095 0.102946 0.158649
H31   H     H_    0.894639 0.433729 0.143041 0.125908
H32   H     H_    0.816118 0.372362 0.060071 0.129455
H33   H     H_    0.526697 0.094047 0.807782 0.145980
H34   H     H_    0.480777 0.105865 0.375612 0.110811
H35   H     H_    0.457512 0.248228 0.794296 0.174578
H36   H     H_    0.350298 0.133354 0.846286 0.142160
H37   H     H_    0.269688 0.155992 0.713985 0.153356
H38   H     H_    0.339948 0.003005 0.727344 0.158623
H39   H     H_    0.576912 0.078364 0.662834 0.140610
H40   H     H_    0.495709 0.225392 0.648016 0.162549
H41   H     H_    0.796721 0.890136 0.669889 0.140923
H42   H     H_    0.956457 0.852807 0.716147 0.149147
H43   H     H_    0.961982 0.968261 0.641540 0.129332
H44   H     H_    0.065238 0.766281 0.597454 0.147687
H45   H     H_    0.313778 0.101726 0.431044 0.109243
H46   H     H_    0.923267 0.813122 0.542512 0.138819
H47   H     H_    0.752406 0.674808 0.611147 0.210341
H48   H     H_    0.871630 0.639886 0.681136 0.101453
H49   H     H_    0.305181 0.892168 0.575617 0.105966
H50   H     H_    0.304395 0.103080 0.574793 0.125673
H51   H     H_    0.703287 0.900541 0.550869 0.126193
H52   H     H_    0.718275 0.893415 0.446986 0.112962
N1    N     N_3   0.856560 0.499750 0.498270 -0.216406
N2    N     N_3   0.143860 0.496700 0.498910 -0.229450
O1    O     O_R   0.379740 0.682430 0.499960 -0.516474
O2    O     O_R   0.620260 0.682190 0.500020 -0.524622
O3    O     O_R   0.365800 0.500150 0.613560 -0.517902
O4    O     O_R   0.606310 0.499910 0.613620 -0.532881
O5    O     O_R   0.379740 0.317810 0.499980 -0.513955
O6    O     O_R   0.620260 0.317570 0.500040 -0.519049
O7    O     O_R   0.393690 0.500090 0.386380 -0.511693
O8    O     O_R   0.634200 0.499850 0.386440 -0.512050

loop_
_geom_bond_atom_site_label_1
_geom_bond_atom_site_label_2
_ccdc_geom_bond_type
C15   C18   S    
C1    C8    S    
C15   H17   S    
C11   H4    S    
C35   C36   S    
C1    O2    A    
C19   N2    S    
C7    C8    S    
C39   C41   S    
C7    C11   S    
C6    H5    S    
C15   H10   S    
C28   C29   S    
C9    C16   S    
Cu2   O2    S    
C20   O8    A    
Cu1   O1    S    
C25   C40   S    
C30   C31   S    
C23   C39   A    
C27   C38   S    
C35   H44   S    
Cu2   O8    S    
C30   H40   S    
C17   C19   S    
C5    H45   S    
C3    H12   S    
C14   H9    S    
C31   C32   S    
C40   H24   S    
C34   H3    S    
C18   N2    S    
C27   H31   S    
C9    C10   S    
C2    C34   A    
C21   C22   A    
C37   H13   S    
C28   H29   S    
C17   C33   S    
C41   H19   S    
C27   H32   S    
C28   H30   S    
Cu1   O5    S    
C29   H26   S    
C19   H15   S    
C22   H1    S    
C13   N1    S    
C2    C20   S    
C31   H37   S    
C24   C25   A    
C3    C8    S    
Cu1   N2    S    
C15   N1    S    
C18   H11   S    
C6    C8    S    
C10   H50   S    
C19   H16   S    
C25   C26   A    
C12   C21   A    
C12   C26   A    
C30   H39   S    
C26   H20   S    
Cu2   O4    S    
C5    C9    S    
C37   C38   A    
Cu1   O3    S    
C10   C30   S    
C16   O6    A    
C14   H8    S    
C23   C34   A    
C4    O4    A    
Cu2   N1    S    
C17   N1    S    
C9    C11   S    
C13   H6    S    
C35   H46   S    
C16   O5    A    
C40   C41   D    
C4    O3    A    
C22   C24   A    
C11   H2    S    
C3    H23   S    
Cu1   Cu2   S    
C5    H34   S    
C14   N2    S    
C29   H27   S    
C7    H51   S    
C23   H21   S    
C3    C5    S    
Cu1   O7    S    
C1    O1    A    
C32   H33   S    
C18   H18   S    
C20   O7    A    
C36   H42   S    
C7    H52   S    
C12   H22   S    
C31   H38   S    
C36   H43   S    
C33   H48   S    
C33   H47   S    
C32   H36   S    
C4    C21   S    
C2    C37   A    
C38   C39   A    
C36   H41   S    
C6    H49   S    
C33   C35   S    
Cu2   O6    S    
C6    C10   S    
C24   H25   S    
C32   H35   S    
C13   H7    S    
C27   C28   S    
C13   C14   S    
C17   H14   S    
C29   H28   S    
