data_mof_unit_35139.cif
_audit_creation_date              2013-03-05T16:04:00-0500
_audit_creation_method            fapswitch 2.2
_symmetry_space_group_name_H-M    P1
_symmetry_Int_Tables_number       1
_space_group_crystal_system       triclinic
_cell_length_a                    13.007315
_cell_length_b                    10.817105
_cell_length_c                    9.514217
_cell_angle_alpha                 89.781744
_cell_angle_beta                  95.946035
_cell_angle_gamma                 89.918489
_cell_volume                      1331.45050491

loop_
_atom_site_label
_atom_site_type_symbol
_atom_site_description
_atom_site_fract_x
_atom_site_fract_y
_atom_site_fract_z
_atom_type_partial_charge
O1    O     O_R   0.499990 0.319660 0.618740 -0.548721
O2    O     O_R   0.500010 0.680340 0.381260 -0.548720
O3    O     O_R   0.499990 0.319630 0.381170 -0.602276
O4    O     O_R   0.500010 0.680370 0.618830 -0.602275
C1    C     C_R   0.501046 0.262176 0.500556 0.845160
C2    C     C_R   0.498954 0.737824 0.499444 0.845165
O5    O     O_R   0.349000 0.499990 0.599490 -0.540335
O6    O     O_R   0.651000 0.500010 0.400510 -0.540332
O7    O     O_R   0.348990 0.499960 0.361920 -0.592550
O8    O     O_R   0.651010 0.500040 0.638080 -0.592551
C3    C     C_R   0.300671 0.498738 0.473952 0.829774
C4    C     C_R   0.699329 0.501260 0.526048 0.829777
Cu1   Cu    Cu3+1 0.500000 0.500020 0.640660 0.974589
Cu2   Cu    Cu3+1 0.500000 0.499980 0.359340 0.974589
C5    C     C_R   0.811807 0.499558 0.540919 -0.146746
C6    C     C_R   0.188193 0.500440 0.459081 -0.146750
C7    C     C_R   0.029000 0.570285 0.329804 -0.178119
C8    C     C_R   0.971000 0.429711 0.670196 -0.178115
C9    C     C_R   0.135411 0.556118 0.339579 -0.279883
C10   C     C_R   0.864589 0.443878 0.660420 -0.279889
C11   C     C_R   0.133373 0.452036 0.567037 0.455757
C12   C     C_R   0.866627 0.547964 0.432965 0.455772
C13   C     C_R   0.026288 0.470169 0.559799 0.004412
C14   C     C_R   0.973712 0.529829 0.440201 0.004417
H1    H     H_    0.823103 0.407705 0.744654 0.194161
H2    H     H_    0.176897 0.592288 0.255343 0.194161
C15   C     C_R   0.456346 0.066199 0.382232 -0.361299
C16   C     C_R   0.543654 0.933801 0.617768 -0.361298
H3    H     H_    0.419390 0.117732 0.292985 0.172116
H4    H     H_    0.580610 0.882268 0.707015 0.172116
C17   C     C_R   0.455839 0.937552 0.378433 0.513618
C18   C     C_R   0.544161 0.062448 0.621567 0.513619
C19   C     C_R   0.498556 0.871676 0.498335 -0.188309
C20   C     C_R   0.501444 0.128324 0.501664 -0.188309
C21   C     C_R   0.436419 0.422596 0.065724 -0.034903
C22   C     C_R   0.563581 0.577404 0.934275 -0.034903
C23   C     C_R   0.436483 0.422616 0.916890 0.007975
C24   C     C_R   0.563517 0.577384 0.083110 0.007976
H5    H     H_    0.385842 0.360422 0.853860 0.145521
H6    H     H_    0.614157 0.639578 0.146140 0.145515
N1    N     N_R   0.500030 0.500030 0.852080 -0.159072
N2    N     N_R   0.499970 0.499970 0.147920 -0.159072
O9    O     O_3   0.815212 0.607615 0.317051 -0.582150
C25   C     C_3   0.802904 0.733168 0.351562 -0.349844
H7    H     H_    0.752916 0.743983 0.438870 0.151933
H8    H     H_    0.764259 0.781802 0.257626 0.179311
H9    H     H_    0.878924 0.778722 0.379692 0.166025
O10   O     O_3   0.184788 0.392385 0.682958 -0.582130
C26   C     C_3   0.197092 0.266821 0.648450 -0.349812
H10   H     H_    0.235711 0.218175 0.742405 0.179293
H11   H     H_    0.247103 0.256000 0.561157 0.151932
H12   H     H_    0.121072 0.221275 0.620287 0.166008
H13   H     H_    0.990606 0.615031 0.236647 0.195423
H14   H     H_    0.009394 0.384964 0.763352 0.195425
O11   O     O_3   0.404629 0.875701 0.264589 -0.559535
C27   C     C_3   0.456468 0.895551 0.143329 -0.303294
H15   H     H_    0.425797 0.829557 0.060426 0.190952
H16   H     H_    0.541165 0.878208 0.164481 0.139040
H17   H     H_    0.441560 0.990293 0.100549 0.141899
O12   O     O_3   0.595371 0.124299 0.735411 -0.559535
C28   C     C_3   0.543531 0.104449 0.856671 -0.303293
H18   H     H_    0.458834 0.121793 0.835518 0.139041
H19   H     H_    0.574202 0.170443 0.939574 0.190952
H20   H     H_    0.558438 0.009707 0.899450 0.141898
H21   H     H_    0.385581 0.360486 0.114875 0.119349
H22   H     H_    0.614419 0.639514 0.885125 0.119349

loop_
_geom_bond_atom_site_label_1
_geom_bond_atom_site_label_2
_geom_bond_distance
_ccdc_geom_bond_type
C28   H20   1.110613 S    
C24   H6    1.081019 S    
O7    Cu2   1.966929 S    
C17   C19   1.406862 A    
C6    C11   1.409354 A    
O6    C4    1.290936 A    
C15   H3    1.083455 S    
C25   H9    1.113449 S    
C3    C6    1.455284 S    
C12   O9    1.385781 S    
C2    C19   1.447886 S    
Cu2   N2    2.011456 S    
C8    H14   1.083323 S    
C13   C14   1.418042 A    
C26   H12   1.113460 S    
C17   O11   1.386297 S    
C1    C20   1.447886 S    
C11   O10   1.385829 S    
O11   C27   1.411201 S    
C16   H4    1.083455 S    
C21   N2    1.366901 A    
C23   H5    1.081018 S    
C15   C20   1.398472 A    
Cu1   Cu2   2.676541 S    
C27   H15   1.109415 S    
O5    C3    1.290936 A    
O7    C3    1.292300 A    
C22   N1    1.366901 A    
O2    C2    1.288289 A    
O3    Cu2   1.961105 S    
O8    C4    1.292299 A    
C6    C9    1.399527 A    
O1    C1    1.288290 A    
C12   C14   1.400934 A    
C22   C24   1.416131 A    
O10   C26   1.411346 S    
C7    C9    1.385835 A    
C27   H16   1.114712 S    
C16   C19   1.398472 A    
C24   N2    1.366861 A    
C4    C5    1.455282 S    
C8    C10   1.385835 A    
C11   C13   1.400932 A    
O9    C25   1.411235 S    
C23   N1    1.366862 A    
C28   H18   1.114715 S    
O2    Cu2   1.962877 S    
C22   H22   1.081784 S    
C7    C14   1.402067 A    
O1    Cu1   1.962875 S    
C10   H1    1.083691 S    
C21   H21   1.081784 S    
C15   C17   1.392199 A    
C8    C13   1.402071 A    
C7    H13   1.083314 S    
C16   C18   1.392199 A    
C25   H7    1.113054 S    
C9    H2    1.083693 S    
O4    C2    1.291502 A    
C26   H10   1.109477 S    
C26   H11   1.113141 S    
O4    Cu1   1.961105 S    
C28   H19   1.109416 S    
C27   H17   1.110610 S    
C18   O12   1.386296 S    
Cu1   N1    2.011456 S    
O12   C28   1.411202 S    
O6    Cu2   1.962586 S    
O5    Cu1   1.962587 S    
C21   C23   1.416131 A    
C5    C12   1.409346 A    
C25   H8    1.109403 S    
C5    C10   1.399525 A    
O3    C1    1.291501 A    
O8    Cu1   1.966929 S    
C18   C20   1.406862 A    
