data_mof_unit_51735.cif
_audit_creation_date              2012-12-10T17:48:43-0500
_audit_creation_method            fapswitch 2.2
_symmetry_space_group_name_H-M    P1
_symmetry_Int_Tables_number       1
_space_group_crystal_system       triclinic
_cell_length_a                    15.730671
_cell_length_b                    10.629023
_cell_length_c                    9.932857
_cell_angle_alpha                 89.909269
_cell_angle_beta                  89.80448
_cell_angle_gamma                 91.63947
_cell_volume                      1660.09834756

loop_
_atom_site_label
_atom_site_type_symbol
_atom_type_description
_atom_site_fract_x
_atom_site_fract_y
_atom_site_fract_z
_atom_type_partial_charge
C1    C     C_R   0.502087 0.260761 0.500104 0.845738
C2    C     C_3   0.947978 0.377963 0.571689 -0.400461
C3    C     C_3   0.917192 0.496474 0.497586 0.344807
C4    C     C_3   0.953271 0.615422 0.569439 -0.404561
C5    C     C_3   0.051299 0.614546 0.569644 -0.425135
C6    C     C_1   0.825759 0.497475 0.498552 -0.114300
C7    C     C_1   0.174155 0.496559 0.499495 -0.115076
C8    C     C_1   0.249513 0.497965 0.500470 -0.177593
C9    C     C_R   0.645551 0.137113 0.620626 -0.173811
C10   C     C_R   0.712856 0.074198 0.678747 -0.139017
C11   C     C_R   0.712939 0.943277 0.678544 -0.144316
C12   C     C_R   0.338444 0.499545 0.500249 0.891217
C13   C     C_R   0.645753 0.874816 0.620116 -0.190438
C14   C     C_R   0.576561 0.937189 0.561837 0.095314
C15   C     C_R   0.576433 0.069096 0.562130 0.098421
C16   C     C_R   0.507819 0.128676 0.499897 -0.084180
C17   C     C_R   0.443029 0.061942 0.434140 -0.218660
C18   C     C_R   0.443172 0.933382 0.433850 -0.201374
C19   C     C_R   0.508096 0.871975 0.499314 -0.096867
C20   C     C_R   0.388660 0.334857 0.140622 -0.145586
C21   C     C_R   0.333807 0.253551 0.070936 -0.181092
C22   C     C_R   0.333794 0.253589 0.931585 -0.189656
C23   C     C_R   0.502378 0.739399 0.499850 0.864961
C24   C     C_R   0.388660 0.334907 0.861032 -0.145626
C25   C     C_R   0.445197 0.418609 0.928170 0.165670
C26   C     C_R   0.445205 0.418629 0.072645 0.167172
C27   C     C_R   0.552423 0.577888 0.070996 -0.109948
C28   C     C_R   0.552405 0.577859 0.928019 -0.109628
C29   C     C_R   0.661561 0.500177 0.499739 0.879462
C30   C     C_3   0.046103 0.377848 0.572701 -0.395037
C31   C     C_3   0.048954 0.496528 0.349266 -0.121399
C32   C     C_3   0.950295 0.494990 0.350589 -0.426684
C33   C     C_1   0.750445 0.498773 0.499218 -0.189778
C34   C     C_3   0.082492 0.495366 0.497005 0.310543
H1    H     H_    0.922882 0.291363 0.520895 0.170346
H2    H     H_    0.068994 0.378029 0.678656 0.173210
H3    H     H_    0.923632 0.376151 0.677083 0.169004
H4    H     H_    0.931747 0.701691 0.517427 0.168552
H5    H     H_    0.391388 0.109664 0.385415 0.137691
H6    H     H_    0.649031 0.238780 0.620269 0.151524
H7    H     H_    0.765489 0.127237 0.722887 0.132371
H8    H     H_    0.765621 0.894598 0.722563 0.130389
H9    H     H_    0.649384 0.773397 0.619276 0.140294
H10   H     H_    0.391607 0.881369 0.385009 0.151515
H11   H     H_    0.595285 0.641632 0.124186 0.147444
H12   H     H_    0.068482 0.290068 0.524989 0.173671
H13   H     H_    0.384763 0.329245 0.247389 0.197723
H14   H     H_    0.291004 0.190155 0.125601 0.154027
H15   H     H_    0.290963 0.190236 0.877613 0.148666
H16   H     H_    0.384807 0.329461 0.754271 0.202005
H17   H     H_    0.595238 0.641611 0.874065 0.145122
H18   H     H_    0.072352 0.584690 0.299061 0.123612
H19   H     H_    0.923028 0.410733 0.297698 0.174443
H20   H     H_    0.927836 0.579056 0.295523 0.156799
H21   H     H_    0.074605 0.616841 0.675378 0.180996
H22   H     H_    0.077079 0.700874 0.518541 0.167266
H23   H     H_    0.929377 0.618592 0.674995 0.171096
N1    N     N_R   0.499210 0.498800 0.142780 -0.121003
N2    N     N_R   0.499180 0.498720 0.857170 -0.120510
O1    O     O_R   0.500000 0.316780 0.614690 -0.640481
O2    O     O_R   0.499990 0.316750 0.385360 -0.629695
O3    O     O_R   0.377150 0.500020 0.614720 -0.628278
O4    O     O_R   0.377140 0.499990 0.385380 -0.630438
O5    O     O_R   0.500010 0.683250 0.614640 -0.614391
O6    O     O_R   0.500000 0.683220 0.385310 -0.611946
O7    O     O_R   0.622860 0.500010 0.614620 -0.626507
O8    O     O_R   0.622850 0.499980 0.385280 -0.605976
Zn1   Zn    Zn3+2 0.500010 0.500020 0.653130 0.932422
Zn2   Zn    Zn3+2 0.499990 0.499980 0.346870 0.940866
C35   C     C_1   0.080635 0.390629 0.268739 0.153430
N3    N     N_1   0.105541 0.307819 0.205756 -0.228344

loop_
_geom_bond_atom_site_label_1
_geom_bond_atom_site_label_2
_ccdc_geom_bond_type
C4    H23   S    
C2    H1    S    
C19   C23   S    
C30   H2    S    
N1    Zn2   S    
C35   N3    T    
C18   H10   S    
N2    Zn1   S    
C29   O7    A    
C12   O3    A    
C9    C10   A    
C5    H22   S    
O7    Zn1   S    
C31   C32   S    
C6    C33   T    
O3    Zn1   S    
C31   H18   S    
C8    C12   S    
C3    C6    S    
C5    C34   S    
C27   H11   S    
C13   H9    S    
C17   C18   A    
C9    C15   A    
C31   C34   S    
C7    C8    T    
C1    C16   S    
C29   O8    A    
C21   C22   A    
C20   C21   A    
C10   H7    S    
C26   N1    A    
C2    H3    S    
C23   O6    A    
C20   C26   A    
C22   H15   S    
O6    Zn2   S    
O5    Zn1   S    
C32   H20   S    
C23   O5    A    
C28   H17   S    
C5    H21   S    
C2    C3    S    
C9    H6    S    
C24   H16   S    
C3    C32   S    
C7    C34   S    
C22   C24   A    
C28   N2    A    
C20   H13   S    
C10   C11   A    
C30   C34   S    
C15   C16   A    
C21   H14   S    
C29   C33   S    
C32   H19   S    
C11   C13   A    
C2    C30   S    
C24   C25   A    
O1    Zn1   S    
C11   H8    S    
C18   C19   A    
C17   H5    S    
C1    O1    A    
O2    Zn2   S    
C27   C28   A    
C12   O4    A    
C14   C15   A    
C16   C17   A    
C25   N2    A    
C25   C26   A    
C13   C14   A    
C14   C19   A    
C30   H12   S    
C31   C35   S    
C3    C4    S    
O4    Zn2   S    
C4    H4    S    
C4    C5    S    
O8    Zn2   S    
C27   N1    A    
C1    O2    A    
