data_mof_unit_30083.cif
_audit_creation_date              2012-10-26T21:06:24-0400
_audit_creation_method            fapswitch 2.2
_symmetry_space_group_name_H-M    P1
_symmetry_Int_Tables_number       1
_space_group_crystal_system       triclinic
_cell_length_a                    15.863898
_cell_length_b                    10.795222
_cell_length_c                    9.565628
_cell_angle_alpha                 89.538472
_cell_angle_beta                  89.304781
_cell_angle_gamma                 90.739515
_cell_volume                      1637.84266234

loop_
_atom_site_label
_atom_site_type_symbol
_atom_type_description
_atom_site_fract_x
_atom_site_fract_y
_atom_site_fract_z
_atom_type_partial_charge
C1    C     C_R   0.502563 0.262533 0.500317 0.569983
C2    C     C_R   0.554208 0.575698 0.070725 0.177919
C3    C     C_R   0.339912 0.499634 0.500694 0.571569
C4    C     C_R   0.660088 0.500366 0.499306 0.571572
C5    C     C_3   0.971368 0.392629 0.551083 0.040207
C6    C     C_3   0.028632 0.607371 0.448917 0.040206
C7    C     C_3   0.028731 0.406671 0.420328 -0.134104
C8    C     C_3   0.971269 0.593328 0.579672 -0.134104
C9    C     C_1   0.250261 0.499677 0.502097 0.050962
C10   C     C_1   0.749739 0.500322 0.497903 0.050962
C11   C     C_3   0.026800 0.485147 0.632342 -0.129957
C12   C     C_R   0.497435 0.737466 0.499683 0.569984
C13   C     C_3   0.973200 0.514853 0.367658 -0.129957
C14   C     C_3   0.083091 0.500627 0.500906 0.044508
C15   C     C_3   0.916909 0.499373 0.499094 0.044508
C16   C     C_1   0.174742 0.499946 0.502109 0.019032
C17   C     C_1   0.825258 0.500054 0.497891 0.019031
C18   C     C_R   0.453625 0.067432 0.403411 -0.136535
C19   C     C_R   0.546373 0.932567 0.596586 -0.136538
C20   C     C_2   0.941590 0.270315 0.609258 0.238663
C21   C     C_2   0.058409 0.729685 0.390742 0.238663
C22   C     C_2   0.386657 0.880331 0.305450 0.618180
C23   C     C_R   0.447291 0.938919 0.402927 0.052415
C24   C     C_2   0.613346 0.119666 0.694543 0.618188
C25   C     C_2   0.385307 0.340147 0.862514 0.605095
C26   C     C_2   0.614694 0.659849 0.137485 0.605095
C27   C     C_R   0.552708 0.061080 0.597070 0.052409
C28   C     C_R   0.495474 0.871428 0.499774 -0.011576
C29   C     C_R   0.504524 0.128571 0.500223 -0.011577
C30   C     C_R   0.446093 0.424951 0.077403 0.017388
C31   C     C_R   0.553906 0.575049 0.922597 0.017387
C32   C     C_R   0.445792 0.424301 0.929275 0.177918
Cu1   Cu    Cu3+1 0.500000 0.500020 0.640660 1.055272
Cu2   Cu    Cu3+1 0.500000 0.499980 0.359340 1.055272
H1    H     H_    0.053035 0.329655 0.355715 0.124280
H2    H     H_    0.012637 0.797359 0.357764 0.101971
H3    H     H_    0.328972 0.888207 0.118774 0.356973
H4    H     H_    0.671043 0.111779 0.881214 0.356974
H5    H     H_    0.266281 0.312031 0.797229 0.328952
H6    H     H_    0.733720 0.687959 0.202773 0.328952
H7    H     H_    0.946965 0.670345 0.644285 0.124280
H8    H     H_    0.950469 0.527778 0.259258 0.129756
H9    H     H_    0.049530 0.472221 0.740742 0.129756
H10   H     H_    0.415721 0.120885 0.331718 0.162707
H11   H     H_    0.584275 0.879115 0.668281 0.162712
H12   H     H_    0.403158 0.364897 0.136107 0.131150
H13   H     H_    0.596842 0.635102 0.863892 0.131150
H14   H     H_    0.987363 0.202641 0.642236 0.101971
N1    N     N_R   0.500020 0.500030 0.852070 -0.270492
N2    N     N_R   0.499980 0.499970 0.147930 -0.270492
O1    O     O_R   0.500000 0.319660 0.618740 -0.449904
O2    O     O_2   0.133549 0.753940 0.380083 -0.456194
O3    O     O_2   0.347388 0.786553 0.339961 -0.468007
O4    O     O_R   0.372065 0.935675 0.175424 -0.665926
O5    O     O_2   0.652612 0.213448 0.660033 -0.468004
O6    O     O_R   0.627945 0.064317 0.824564 -0.665931
O7    O     O_2   0.405551 0.233934 0.836156 -0.491076
O8    O     O_R   0.302685 0.378708 0.841133 -0.696339
O9    O     O_2   0.594452 0.766062 0.163846 -0.491077
O10   O     O_R   0.697316 0.621284 0.158868 -0.696338
O11   O     O_R   0.500000 0.680340 0.381260 -0.449906
O12   O     O_R   0.499990 0.319630 0.381170 -0.521165
O13   O     O_R   0.500010 0.680370 0.618830 -0.521167
O14   O     O_R   0.379080 0.500000 0.618760 -0.474850
O15   O     O_R   0.620920 0.500000 0.381240 -0.474848
O16   O     O_R   0.379080 0.499970 0.381190 -0.490859
O17   O     O_R   0.620920 0.500030 0.618810 -0.490858
O18   O     O_2   0.866451 0.246059 0.619917 -0.456195

loop_
_geom_bond_atom_site_label_1
_geom_bond_atom_site_label_2
_ccdc_geom_bond_type
C2    C26   S    
C4    O17   A    
C19   H11   S    
C11   H9    S    
H6    O10   S    
C18   H10   S    
C27   C29   A    
C19   C27   A    
C26   O9    D    
C30   H12   S    
C24   C27   S    
Cu2   O12   S    
Cu1   O13   S    
C5    C15   S    
C1    O12   A    
Cu2   O16   S    
C25   C32   S    
C1    C29   S    
Cu1   Cu2   S    
C30   N2    A    
C6    C14   S    
C22   O4    S    
C5    C20   S    
C31   H13   S    
C23   C28   A    
C6    C21   S    
C6    C13   S    
C30   C32   A    
C12   O11   A    
C1    O1    A    
C20   H14   S    
C25   O7    D    
C31   N1    A    
Cu1   O14   S    
C3    C9    S    
H3    O4    S    
Cu2   O15   S    
C7    H1    S    
C13   H8    S    
C9    C16   T    
C12   C28   S    
C5    C11   S    
C22   O3    D    
C5    C7    S    
C8    C11   S    
C13   C15   S    
C19   C28   A    
C4    O15   A    
C11   C14   S    
C14   C16   S    
C32   N1    A    
Cu2   N2    S    
C3    O16   A    
C24   O6    S    
C25   O8    S    
C10   C17   T    
C18   C29   A    
C18   C23   A    
C21   O2    D    
C7    C13   S    
H4    O6    S    
C8    H7    S    
Cu1   O17   S    
C15   C17   S    
Cu1   N1    S    
C21   H2    S    
C12   O13   A    
C22   C23   S    
C6    C8    S    
C8    C15   S    
C2    N2    A    
C3    O14   A    
H5    O8    S    
C26   O10   S    
C20   O18   D    
Cu2   O11   S    
C7    C14   S    
Cu1   O1    S    
C4    C10   S    
C2    C31   A    
C24   O5    D    
