data_mof_unit_34598.cif
_audit_creation_date              2012-12-11T14:15:25-0500
_audit_creation_method            fapswitch 2.2
_symmetry_space_group_name_H-M    P1
_symmetry_Int_Tables_number       1
_space_group_crystal_system       triclinic
_cell_length_a                    11.213274
_cell_length_b                    12.666846
_cell_length_c                    23.448904
_cell_angle_alpha                 90.726366
_cell_angle_beta                  97.042085
_cell_angle_gamma                 68.27359
_cell_volume                      3068.73529644

loop_
_atom_site_label
_atom_site_type_symbol
_atom_type_description
_atom_site_fract_x
_atom_site_fract_y
_atom_site_fract_z
_atom_type_partial_charge
C1    C     C_R   0.105708 0.593368 0.420701 0.561813
C2    C     C_R   0.652516 0.562751 0.309471 0.265895
C3    C     C_R   0.728022 0.720568 0.316879 -0.188906
C4    C     C_R   0.716762 0.729785 0.257216 -0.011351
C5    C     C_R   0.690371 0.644584 0.224575 -0.032174
C6    C     C_R   0.685835 0.649410 0.165620 -0.123337
C7    C     C_R   0.707594 0.832390 0.168917 -0.101171
C8    C     C_R   0.730089 0.822325 0.229049 0.294701
C9    C     C_1   0.233975 0.165970 0.122158 -0.015679
C10   C     C_2   0.171162 0.239663 0.224605 -0.149848
C11   C     C_2   0.161178 0.166131 0.262648 -0.132132
C12   C     C_R   0.750305 0.603860 0.403613 0.543786
C13   C     C_1   0.134591 0.199945 0.320150 -0.040092
C14   C     C_1   0.205388 0.202982 0.168325 -0.060531
C15   C     C_1   0.116293 0.232816 0.367990 0.008509
C16   C     C_1   0.165722 0.751700 0.123013 -0.001269
C17   C     C_2   0.132036 0.718700 0.229711 0.124014
C18   C     C_2   0.151068 0.616363 0.252341 -0.113960
C19   C     C_1   0.139184 0.603258 0.311989 -0.034890
C20   C     C_1   0.149360 0.732028 0.170894 -0.020367
C21   C     C_1   0.126746 0.597146 0.361946 0.000749
C22   C     C_1   0.626242 0.755237 0.864579 0.012733
C23   C     C_R   0.101076 0.282537 0.423257 0.544520
C24   C     C_2   0.692426 0.701879 0.760489 -0.123568
C25   C     C_2   0.601950 0.717297 0.714802 0.098689
C26   C     C_1   0.642773 0.679457 0.659652 -0.039700
C27   C     C_1   0.659321 0.732977 0.817461 -0.020156
C28   C     C_1   0.685129 0.645327 0.615249 -0.022777
C29   C     C_R   0.203123 0.178819 0.852121 0.007106
C30   C     C_R   0.116371 0.209603 0.637166 -0.015129
C31   C     C_R   0.006344 0.167187 0.712213 0.268229
C32   C     C_R   0.017480 0.177152 0.653338 0.090092
C33   C     C_R   0.217490 0.207839 0.678020 -0.134454
C34   C     C_R   0.105041 0.591644 0.594483 0.583707
C35   C     C_R   0.206880 0.202245 0.735535 -0.030732
C36   C     C_R   0.099946 0.184222 0.754230 0.039022
C37   C     C_R   0.094557 0.180481 0.814320 0.267544
C38   C     C_R   0.296525 0.212833 0.831950 -0.186827
C39   C     C_R   0.299386 0.222833 0.774168 -0.143497
C40   C     C_R   0.113580 0.736197 0.857303 0.025330
C41   C     C_R   0.123137 0.591922 0.657836 0.027189
C42   C     C_R   0.247864 0.519533 0.751116 -0.109193
C43   C     C_R   0.231553 0.510998 0.691264 0.251845
C44   C     C_R   0.028897 0.674134 0.685368 -0.170841
C45   C     C_R   0.748818 0.603448 0.565568 0.534505
C46   C     C_R   0.048771 0.685120 0.744608 -0.006421
C47   C     C_R   0.161872 0.610353 0.777607 0.024265
C48   C     C_R   0.191523 0.632871 0.835403 0.270525
C49   C     C_R   0.992850 0.800376 0.826709 -0.185795
C50   C     C_R   0.960557 0.774387 0.770695 -0.168416
C51   C     C_R   0.265671 0.110614 0.069221 0.534298
C52   C     C_R   0.602848 0.773454 0.080454 0.540910
C53   C     C_R   0.188460 0.786720 0.068960 0.536926
C54   C     C_R   0.240940 0.115749 0.907462 0.553927
C55   C     C_R   0.573766 0.776033 0.918182 0.549614
C56   C     C_R   0.101976 0.273877 0.583546 0.567110
C57   C     C_R   0.162504 0.785008 0.907795 0.560141
C58   C     C_R   0.677321 0.748935 0.137565 -0.053392
C59   C     C_R   0.700912 0.634732 0.343253 -0.058211
C60   C     C_R   0.659086 0.560371 0.250513 0.278536
Cr1   Cr    Cr6+3 0.189770 0.415650 0.511620 1.015222
Cr2   Cr    Cr6+3 0.930400 0.667320 0.496770 1.037194
Cr3   Cr    Cr6+3 0.879870 0.417010 0.491650 1.034373
Cr4   Cr    Cr6+3 0.149500 0.973980 0.985330 1.035745
Cr5   Cr    Cr6+3 0.457000 0.976510 0.994660 1.010291
Cr6   Cr    Cr6+3 0.411170 0.724270 0.995270 1.036993
H1    H     H_    0.669470 0.582081 0.141055 0.182489
H2    H     H_    0.794090 0.659643 0.755630 0.107467
H3    H     H_    0.376671 0.219514 0.860560 0.130631
H4    H     H_    0.377880 0.241633 0.759745 0.120953
H5    H     H_    0.299333 0.223887 0.665462 0.184319
H6    H     H_    0.706097 0.907990 0.147283 0.134633
H7    H     H_    0.927360 0.875529 0.844640 0.140471
H8    H     H_    0.331952 0.458085 0.776123 0.129749
H9    H     H_    0.870522 0.827850 0.746315 0.119012
H10   H     H_    0.942853 0.733476 0.660253 0.135276
H11   H     H_    0.761187 0.778061 0.342863 0.185125
H12   H     H_    0.176849 0.079065 0.251239 0.171457
H13   H     H_    0.156910 0.326516 0.236037 0.126602
H14   H     H_    0.176986 0.541660 0.226221 0.096029
O1    O     O_R   0.196340 0.303200 0.448500 -0.528629
O2    O     O_R   0.811960 0.658090 0.547150 -0.513703
O3    O     O_R   0.757930 0.506140 0.547110 -0.524462
O4    O     O_R   0.988670 0.321620 0.556040 -0.472508
O5    O     O_3   0.000020 0.499990 0.500010 -0.306007
O6    O     O_R   0.113660 0.883270 0.047820 -0.509965
O7    O     O_R   0.186930 0.068530 0.043990 -0.500144
O8    O     O_R   0.377770 0.089040 0.054220 -0.519910
O9    O     O_R   0.562800 0.872960 0.056970 -0.500363
O10   O     O_R   0.555390 0.700940 0.062700 -0.521926
O11   O     O_R   0.295020 0.731920 0.049950 -0.504679
O12   O     O_R   0.199310 0.519670 0.454880 -0.517376
O13   O     O_R   0.094290 0.884230 0.921550 -0.518221
O14   O     O_R   0.168980 0.069410 0.926940 -0.452648
O15   O     O_R   0.358400 0.089990 0.927950 -0.531514
O16   O     O_R   0.544850 0.873850 0.939920 -0.493416
O17   O     O_R   0.536020 0.701900 0.936430 -0.494734
O18   O     O_R   0.277070 0.732810 0.932890 -0.450443
O19   O     O_3   0.339220 0.891590 0.991750 -0.245950
O20   O     O_R   0.045660 0.691380 0.441680 -0.468839
O21   O     O_R   0.811930 0.659460 0.430950 -0.526235
O22   O     O_R   0.757900 0.507620 0.421760 -0.471833
O23   O     O_R   0.988630 0.322990 0.439840 -0.478509
O24   O     O_R   0.196380 0.301720 0.573850 -0.502128
O25   O     O_R   0.199350 0.518300 0.571080 -0.442753
O26   O     O_R   0.045700 0.689900 0.567030 -0.493993
I1    I     I_    0.086483 0.867578 0.278828 -0.366908
I2    I     I_    0.400166 0.792042 0.720309 -0.378059
O27   O     O_3   0.991452 0.168110 0.836448 -0.547897
C61   C     C_3   0.893410 0.276646 0.840310 0.032905
H15   H     H_    0.799781 0.264562 0.837903 0.152955
H16   H     H_    0.883245 0.336359 0.803760 0.140147
C62   C     C_3   0.915358 0.329803 0.897792 -0.289924
H17   H     H_    0.926626 0.269199 0.933768 0.178451
H18   H     H_    0.004996 0.348322 0.899790 0.137570
C63   C     C_3   0.802553 0.440622 0.904795 -0.469143
H19   H     H_    0.790907 0.502472 0.869442 0.156118
H20   H     H_    0.821806 0.477897 0.946391 0.151990
H21   H     H_    0.711373 0.424825 0.904336 0.162882
O28   O     O_3   0.889771 0.169873 0.726973 -0.578255
C64   C     C_3   0.892633 0.059469 0.737036 0.048923
H22   H     H_    0.963290 0.018082 0.775181 0.181830
H23   H     H_    0.921904 0.004115 0.699972 0.161848
C65   C     C_3   0.756792 0.070184 0.749107 -0.253898
H24   H     H_    0.763063 0.001196 0.779204 0.115890
H25   H     H_    0.709944 0.151197 0.770605 0.172483
C66   C     C_3   0.669704 0.066583 0.694295 -0.423465
H26   H     H_    0.710485 0.983418 0.673815 0.157192
H27   H     H_    0.659785 0.135710 0.663405 0.185556
H28   H     H_    0.572047 0.077736 0.704975 0.145816
I3    I     I_    0.892188 0.133796 0.589324 -0.398626
O29   O     O_3   0.306853 0.564485 0.866898 -0.554577
C67   C     C_3   0.291472 0.469700 0.891724 -0.015243
H29   H     H_    0.384531 0.396505 0.891728 0.138436
H30   H     H_    0.215172 0.444360 0.866984 0.112576
C68   C     C_3   0.264002 0.491432 0.954075 -0.254209
H31   H     H_    0.339463 0.517862 0.978188 0.190267
H32   H     H_    0.168192 0.560968 0.954926 0.146802
C69   C     C_3   0.263953 0.384925 0.983821 -0.472806
H33   H     H_    0.188476 0.357161 0.961027 0.137260
H34   H     H_    0.243282 0.403515 0.028767 0.147120
H35   H     H_    0.359873 0.314792 0.984678 0.163316
O30   O     O_3   0.319115 0.422271 0.665127 -0.561933
C70   C     C_3   0.446665 0.418617 0.679834 -0.000931
H36   H     H_    0.498682 0.348210 0.712255 0.120663
H37   H     H_    0.451961 0.499258 0.697769 0.156012
C71   C     C_3   0.514272 0.396066 0.626007 -0.250183
H38   H     H_    0.508714 0.317745 0.605946 0.175888
H39   H     H_    0.465623 0.468766 0.594568 0.193757
C72   C     C_3   0.655110 0.381547 0.640964 -0.466569
H40   H     H_    0.663632 0.456992 0.662639 0.156194
H41   H     H_    0.701767 0.368548 0.601237 0.211328
H42   H     H_    0.705063 0.306792 0.670338 0.214790
O31   O     O_3   0.613717 0.488813 0.216911 -0.568870
C73   C     C_3   0.702237 0.374688 0.224416 0.024336
H43   H     H_    0.644396 0.319812 0.220775 0.162737
H44   H     H_    0.762106 0.353949 0.267385 0.162540
C74   C     C_3   0.790825 0.344977 0.177032 -0.299131
H45   H     H_    0.732451 0.376732 0.134612 0.172430
H46   H     H_    0.862401 0.386774 0.185234 0.154629
C75   C     C_3   0.862304 0.216685 0.174680 -0.455733
H47   H     H_    0.912154 0.180079 0.217807 0.182051
H48   H     H_    0.935142 0.198452 0.144152 0.167894
H49   H     H_    0.793112 0.175316 0.159485 0.147546
O32   O     O_3   0.764322 0.903298 0.259480 -0.543264
C76   C     C_3   0.653660 0.987517 0.277907 0.009057
H50   H     H_    0.687355 0.022736 0.317572 0.172177
H51   H     H_    0.581321 0.953306 0.289988 0.116526
C77   C     C_3   0.588915 0.083817 0.232213 -0.273008
H52   H     H_    0.664053 0.105168 0.213714 0.176928
H53   H     H_    0.532643 0.055721 0.197083 0.162389
C78   C     C_3   0.498093 0.190134 0.257824 -0.480531
H54   H     H_    0.428090 0.169364 0.280652 0.166232
H55   H     H_    0.444136 0.255015 0.223091 0.159791
H56   H     H_    0.554782 0.226269 0.288619 0.150907
O33   O     O_3   0.609865 0.486667 0.334164 -0.543725
C79   C     C_3   0.488009 0.546570 0.352664 0.035248
H57   H     H_    0.410622 0.549817 0.317525 0.161917
H58   H     H_    0.472549 0.636087 0.364311 0.107258
C80   C     C_3   0.474442 0.486427 0.406174 -0.238297
H59   H     H_    0.557847 0.473932 0.439689 0.193612
H60   H     H_    0.387030 0.542349 0.424183 0.152162
C81   C     C_3   0.464345 0.371523 0.393026 -0.388553
H61   H     H_    0.383116 0.381178 0.358654 0.144090
H62   H     H_    0.446630 0.334647 0.432358 0.154545
H63   H     H_    0.556307 0.312161 0.379413 0.175217

loop_
_geom_bond_atom_site_label_1
_geom_bond_atom_site_label_2
_ccdc_geom_bond_type
C74   H46   S    
C1    C21   S    
O32   C76   S    
C73   H44   S    
C77   H53   S    
C77   H52   S    
C6    C58   A    
C52   O10   A    
C35   C36   A    
C9    C51   S    
C24   C27   S    
C71   H38   S    
C4    C8    A    
C75   H47   S    
C7    C8    A    
Cr6   O10   S    
O28   C64   S    
Cr5   O9    S    
Cr6   O17   S    
C36   C37   A    
C71   H39   S    
Cr4   O13   S    
C81   H62   S    
C5    C6    A    
Cr1   O5    S    
C69   H35   S    
C2    C60   A    
C29   C54   S    
C40   C49   A    
C11   C13   S    
C17   C20   S    
C63   H19   S    
C18   C19   S    
C44   H10   S    
C16   C53   S    
C64   C65   S    
C74   C75   S    
C2    O33   S    
C61   H15   S    
C12   C59   S    
C43   O30   S    
Cr4   O19   S    
C23   O23   A    
C45   O2    A    
C44   C46   A    
O29   C67   S    
C79   H58   S    
C72   H42   S    
C54   O15   A    
C29   C38   A    
C53   O11   A    
C67   C68   S    
C74   H45   S    
C53   O6    A    
C78   H56   S    
C23   O1    A    
C7    C58   A    
C37   O27   S    
C55   O16   A    
C30   C33   A    
Cr1   O12   S    
C62   C63   S    
C15   C23   S    
Cr2   O2    S    
C38   H3    S    
C57   O13   A    
Cr3   O5    S    
C73   C74   S    
C76   H51   S    
C41   C43   A    
C70   C71   S    
C52   O9    A    
C45   O3    A    
C34   C41   S    
Cr3   O22   S    
C1    O20   A    
Cr4   O6    S    
C75   H48   S    
C78   H55   S    
C56   O4    A    
C61   H16   S    
Cr5   O16   S    
Cr2   O5    S    
C28   C45   S    
C42   H8    S    
C64   H23   S    
C34   O26   A    
C47   C48   A    
Cr1   O24   S    
C24   C25   D    
C56   O24   A    
Cr3   O23   S    
C10   C14   S    
C81   H63   S    
C51   O7    A    
C7    H6    S    
C33   H5    S    
C2    C59   A    
C4    C5    A    
C25   C26   S    
C30   C56   S    
Cr3   O3    S    
C68   C69   S    
Cr6   O19   S    
C35   C39   A    
C9    C14   T    
C66   H27   S    
C81   H61   S    
C12   O22   A    
C11   H12   S    
C31   C32   A    
C16   C20   T    
C79   C80   S    
C55   O17   A    
C17   C18   D    
O31   C73   S    
C61   C62   S    
Cr5   O19   S    
C64   H22   S    
Cr6   O11   S    
C52   C58   S    
C65   C66   S    
Cr2   O20   S    
C70   H37   S    
O33   C79   S    
C49   C50   A    
C1    O12   A    
C22   C27   T    
C13   C15   T    
C67   H29   S    
C41   C44   A    
C49   H7    S    
C42   C43   A    
C29   C37   A    
C3    C4    A    
C3    H11   S    
C71   C72   S    
C75   H49   S    
Cr1   O25   S    
C78   H54   S    
C69   H33   S    
Cr5   O8    S    
C65   H25   S    
C62   H17   S    
C40   C48   A    
C46   C47   A    
C6    H1    S    
C40   C57   S    
Cr4   O7    S    
C5    C60   A    
C19   C21   T    
C72   H40   S    
C34   O25   A    
C68   H31   S    
C51   O8    A    
C10   H13   S    
C80   C81   S    
C22   C55   S    
Cr2   O26   S    
C46   C50   A    
C26   C28   T    
C63   H21   S    
Cr3   O4    S    
C70   H36   S    
C10   C11   D    
Cr2   O21   S    
C17   I1    S    
O30   C70   S    
C66   H28   S    
Cr4   O14   S    
C12   O21   A    
Cr1   O1    S    
C50   H9    S    
C80   H60   S    
C30   C32   A    
C69   H34   S    
Cr6   O18   S    
C38   C39   A    
C76   H50   S    
C57   O18   A    
C33   C35   A    
C39   H4    S    
C63   H20   S    
C72   H41   S    
C42   C47   A    
C60   O31   S    
C31   O28   S    
C54   O14   A    
C8    O32   S    
C24   H2    S    
Cr5   O15   S    
C76   C77   S    
C18   H14   S    
C79   H57   S    
C68   H32   S    
C73   H43   S    
C67   H30   S    
C31   C36   A    
C48   O29   S    
C77   C78   S    
O27   C61   S    
C32   I3    S    
C80   H59   S    
C66   H26   S    
C25   I2    S    
C65   H24   S    
C62   H18   S    
C3    C59   A    
