data_mof_unit_20661.cif
_audit_creation_date              2012-12-10T17:42:12-0500
_audit_creation_method            fapswitch 2.2
_symmetry_space_group_name_H-M    P1
_symmetry_Int_Tables_number       1
_space_group_crystal_system       triclinic
_cell_length_a                    15.115978
_cell_length_b                    13.688927
_cell_length_c                    10.776427
_cell_angle_alpha                 89.724759
_cell_angle_beta                  89.252807
_cell_angle_gamma                 90.970944
_cell_volume                      2229.33673469

loop_
_atom_site_label
_atom_site_type_symbol
_atom_type_description
_atom_site_fract_x
_atom_site_fract_y
_atom_site_fract_z
_atom_type_partial_charge
C1    C     C_R   0.328680 0.499126 0.503816 0.867761
C2    C     C_3   0.583656 0.555165 0.922653 -0.409722
C3    C     C_R   0.817620 0.580654 0.436618 0.390805
C4    C     C_R   0.768498 0.503549 0.494246 -0.129682
C5    C     C_R   0.812245 0.426997 0.552258 -0.285328
C6    C     C_R   0.904123 0.426176 0.555800 0.133185
C7    C     C_R   0.953953 0.501693 0.497395 0.031006
C8    C     C_R   0.910787 0.578847 0.436551 -0.039063
C9    C     C_R   0.946684 0.350806 0.617768 -0.182921
C10   C     C_R   0.038459 0.349986 0.623127 -0.122489
C11   C     C_R   0.089902 0.424133 0.565041 0.064013
C12   C     C_R   0.500958 0.500193 0.259424 0.903355
C13   C     C_R   0.047089 0.500100 0.500483 -0.017617
C14   C     C_R   0.097122 0.574823 0.439950 0.012843
C15   C     C_R   0.053885 0.650683 0.377822 0.368293
C16   C     C_R   0.961938 0.652484 0.377168 -0.154342
C17   C     C_R   0.182877 0.424381 0.570293 0.324263
C18   C     C_R   0.232054 0.497575 0.506142 -0.164912
C19   C     C_R   0.189176 0.571825 0.442619 -0.211974
C20   C     C_R   0.446810 0.791943 0.582275 0.044561
C21   C     C_R   0.446875 0.205399 0.582219 0.048319
C22   C     C_R   0.552526 0.794715 0.417392 0.129856
C23   C     C_R   0.553954 0.207908 0.419111 0.045608
C24   C     C_R   0.554037 0.897744 0.415677 -0.020916
C25   C     C_R   0.554747 0.104899 0.416506 -0.016171
C26   C     C_R   0.671520 0.501077 0.496704 0.891254
C27   C     C_R   0.499774 0.948173 0.499999 0.084377
C28   C     C_R   0.499902 0.051797 0.500120 0.092426
C29   C     C_R   0.445427 0.895016 0.584226 -0.003729
C30   C     C_R   0.445511 0.102289 0.584242 -0.012241
C31   C     C_R   0.608377 0.951283 0.332122 -0.125829
C32   C     C_R   0.608891 0.053970 0.332739 -0.166280
C33   C     C_R   0.391383 0.048707 0.668051 -0.152827
C34   C     C_R   0.391366 0.945991 0.668074 -0.155694
C35   C     C_R   0.499790 0.499611 0.740058 0.827087
C36   C     C_3   0.410193 0.535429 0.070970 0.153660
C37   C     C_3   0.510826 0.392945 0.070077 0.155070
C38   C     C_3   0.416003 0.547898 0.928532 -0.391222
C39   C     C_3   0.504135 0.392619 0.927832 -0.407524
C40   C     C_3   0.579650 0.567633 0.065416 0.702189
C41   C     C_3   0.501967 0.500581 0.120937 -0.167475
C42   C     C_3   0.500590 0.498806 0.877215 -0.083179
Cu1   Cu    Cu3+1 0.499990 0.597420 0.500010 1.033134
Cu2   Cu    Cu3+1 0.499990 0.402580 0.500010 0.998188
H1    H     H_    0.228732 0.627099 0.394473 0.244525
H2    H     H_    0.650610 0.913754 0.266531 0.195575
H3    H     H_    0.651479 0.093529 0.267563 0.182934
H4    H     H_    0.349081 0.086214 0.733561 0.171823
H5    H     H_    0.349088 0.906456 0.733653 0.163875
H6    H     H_    0.589675 0.627547 0.875571 0.209106
H7    H     H_    0.643605 0.514293 0.894231 0.198235
H8    H     H_    0.774365 0.368631 0.597516 0.172510
N1    N     N_R   0.499930 0.743810 0.499950 -0.202358
N2    N     N_R   0.499930 0.256190 0.499950 -0.203756
O1    O     O_R   0.370250 0.582280 0.500040 -0.586309
O2    O     O_R   0.370250 0.417720 0.500040 -0.543063
O3    O     O_R   0.499970 0.582270 0.317700 -0.507099
O4    O     O_R   0.499970 0.417730 0.317700 -0.579347
O5    O     O_R   0.629730 0.582260 0.499980 -0.547971
O6    O     O_R   0.629730 0.417740 0.499980 -0.593080
O7    O     O_R   0.500000 0.582270 0.682320 -0.603020
O8    O     O_R   0.500000 0.417730 0.682320 -0.593194
Cl1   Cl    Cl    0.364262 0.642316 0.141524 -0.505541
Cl2   Cl    Cl    0.608198 0.329329 0.116276 -0.584535
H9    H     H_    0.068248 0.290161 0.672330 0.208753
Cl3   Cl    Cl    0.237162 0.337941 0.664382 -0.677816
Cl4   Cl    Cl    0.111787 0.746296 0.299833 -0.531852
H10   H     H_    0.931516 0.712392 0.328984 0.236016
H11   H     H_    0.405462 0.749948 0.646451 0.135276
H12   H     H_    0.406119 0.245293 0.646944 0.180995
H13   H     H_    0.593153 0.754938 0.352689 0.217504
H14   H     H_    0.596836 0.249753 0.357185 0.193797
H15   H     H_    0.359659 0.477332 0.091891 0.121067
H16   H     H_    0.454797 0.347367 0.107597 0.139257
H17   H     H_    0.355952 0.514709 0.885954 0.178535
H18   H     H_    0.443304 0.351408 0.900579 0.179800
H19   H     H_    0.417689 0.626790 0.902980 0.239245
H20   H     H_    0.561355 0.354247 0.885511 0.235745
Cl5   Cl    Cl    0.565830 0.695147 0.098224 -0.529245
Cl6   Cl    Cl    0.685444 0.539952 0.129027 -0.481201
Cl7   Cl    Cl    0.763673 0.678515 0.362398 -0.575722
H21   H     H_    0.908844 0.292486 0.662950 0.160424

loop_
_geom_bond_atom_site_label_1
_geom_bond_atom_site_label_2
_ccdc_geom_bond_type
C37   H16   S    
C27   C29   A    
C24   C27   A    
C6    C9    A    
C7    C8    A    
C25   C28   A    
C1    C18   S    
C1    O2    A    
Cu2   O6    S    
C38   C42   S    
C5    C6    A    
C15   C16   A    
C18   C19   A    
C35   C42   S    
C2    H6    S    
Cu1   N1    S    
Cu2   O4    S    
C31   H2    S    
C3    Cl7   S    
C40   Cl6   S    
C5    H8    S    
C16   H10   S    
C39   C42   S    
C36   Cl1   S    
C26   O5    A    
Cu1   O5    S    
C9    H21   S    
C20   C29   A    
C12   O4    A    
C25   C32   A    
C8    C16   A    
C13   C14   A    
C36   C41   S    
C14   C19   A    
C17   C18   A    
C22   N1    A    
C38   H17   S    
C39   H20   S    
C3    C8    A    
C2    H7    S    
C20   N1    A    
Cu2   O8    S    
C29   C34   A    
Cu1   Cu2   S    
C12   C41   S    
C2    C40   S    
Cu2   O2    S    
C31   C32   A    
C15   Cl4   S    
C33   C34   A    
C17   Cl3   S    
C40   Cl5   S    
C35   O7    A    
C39   H18   S    
C12   O3    A    
Cu1   O1    S    
C40   C41   S    
C32   H3    S    
C22   C24   A    
C20   H11   S    
C3    C4    A    
C22   H13   S    
C37   Cl2   S    
Cu1   O7    S    
C23   N2    A    
C9    C10   A    
C10   H9    S    
C11   C17   A    
C34   H5    S    
C30   C33   A    
C23   H14   S    
C4    C5    A    
C4    C26   S    
C19   H1    S    
C6    C7    A    
C38   H19   S    
C21   C30   A    
C21   H12   S    
C28   C30   A    
C1    O1    A    
C24   C31   A    
C37   C39   S    
C11   C13   A    
C21   N2    A    
C2    C42   S    
C36   C38   S    
C35   O8    A    
C23   C25   A    
C37   C41   S    
C10   C11   A    
Cu1   O3    S    
Cu2   N2    S    
C7    C13   A    
C27   C28   A    
C33   H4    S    
C14   C15   A    
C26   O6    A    
C36   H15   S    
