data_mof_unit_66015.cif
_audit_creation_date              2012-10-26T19:58:49-0400
_audit_creation_method            fapswitch 2.2
_symmetry_space_group_name_H-M    P1
_symmetry_Int_Tables_number       1
_space_group_crystal_system       triclinic
_cell_length_a                    14.350722
_cell_length_b                    10.998501
_cell_length_c                    9.854597
_cell_angle_alpha                 110.835124
_cell_angle_beta                  98.567535
_cell_angle_gamma                 90.205456
_cell_volume                      1434.78470054

loop_
_atom_site_label
_atom_site_type_symbol
_atom_type_description
_atom_site_fract_x
_atom_site_fract_y
_atom_site_fract_z
_atom_type_partial_charge
C1    C     C_R   0.490330 0.253998 0.441844 0.573801
C2    C     C_1   0.957293 0.500006 0.499911 0.013619
C3    C     C_2   0.478635 0.114638 0.413295 -0.071895
C4    C     C_2   0.496538 0.885228 0.586605 -0.069940
C5    C     C_2   0.454353 0.070488 0.515290 0.191439
C6    C     C_2   0.451322 0.928886 0.484366 0.194899
C7    C     C_2   0.507907 0.511682 0.080540 0.169132
C8    C     C_2   0.491172 0.489628 0.919833 0.165790
C9    C     C_R   0.502492 0.745977 0.558150 0.573487
C10   C     C_R   0.331085 0.499957 0.500130 0.545422
C11   C     C_R   0.668909 0.500041 0.499870 0.533057
C12   C     C_1   0.228780 0.499986 0.500323 -0.014002
C13   C     C_1   0.771222 0.500017 0.499681 -0.022825
C14   C     C_1   0.143376 0.499996 0.500282 -0.022061
C15   C     C_1   0.856628 0.500010 0.499726 -0.026003
C16   C     C_1   0.042713 0.500002 0.500099 0.014468
Cu1   Cu    Cu3+1 0.515060 0.521810 0.644910 1.011375
Cu2   Cu    Cu3+1 0.484940 0.478190 0.355090 1.016162
H1    H     H_    0.530179 0.953455 0.692949 0.078232
H2    H     H_    0.490651 0.046732 0.307082 0.081141
H3    H     H_    0.437771 0.416143 0.846870 0.185128
H4    H     H_    0.560484 0.586319 0.153844 0.157278
H5    H     H_    0.631668 0.682310 0.889981 0.371658
H6    H     H_    0.369548 0.315970 0.109517 0.370044
H7    H     H_    0.368487 0.892816 0.297741 0.321128
H8    H     H_    0.409540 0.105689 0.701526 0.330255
N1    N     N_2   0.462290 0.445430 0.137370 -0.090565
N2    N     N_2   0.537710 0.554570 0.862630 -0.097556
O1    O     O_R   0.508040 0.332330 0.577400 -0.437022
O2    O     O_3   0.396811 0.353971 0.045931 -0.635427
O3    O     O_3   0.404407 0.842445 0.351488 -0.670976
O4    O     O_3   0.434350 0.156450 0.647874 -0.683534
O5    O     O_R   0.491960 0.667670 0.422600 -0.436611
O6    O     O_R   0.482600 0.295500 0.332650 -0.513156
O7    O     O_R   0.517400 0.704500 0.667350 -0.511848
O8    O     O_R   0.388780 0.518420 0.622400 -0.491372
O9    O     O_R   0.611220 0.481580 0.377600 -0.497993
O10   O     O_R   0.363340 0.481590 0.377660 -0.476670
O11   O     O_R   0.636660 0.518410 0.622340 -0.486406
O12   O     O_3   0.604083 0.644810 0.953723 -0.641649

loop_
_geom_bond_atom_site_label_1
_geom_bond_atom_site_label_2
_ccdc_geom_bond_type
H7    O3    S    
C9    O5    A    
H8    O4    S    
Cu1   O8    S    
C7    H4    S    
C2    C16   T    
C13   C15   T    
C10   O10   A    
C5    O4    S    
Cu1   N2    S    
C1    O1    A    
C6    O3    S    
Cu2   O10   S    
C7    C8    S    
Cu1   O1    S    
N1    O2    S    
C11   O11   A    
C2    C15   S    
C11   C13   S    
C10   C12   S    
Cu2   O9    S    
C12   C14   T    
C1    O6    A    
Cu1   Cu2   S    
H6    O2    S    
Cu2   O6    S    
C5    C6    S    
C8    N2    D    
Cu2   O5    S    
C14   C16   S    
N2    O12   S    
C9    O7    A    
H5    O12   S    
C3    H2    S    
C7    N1    D    
C4    C6    D    
Cu1   O11   S    
C11   O9    A    
C10   O8    A    
Cu1   O7    S    
C3    C5    D    
C4    C9    S    
C4    H1    S    
Cu2   N1    S    
C1    C3    S    
C8    H3    S    
