data_mof_unit_9458.cif
_audit_creation_date              2012-12-10T17:47:16-0500
_audit_creation_method            fapswitch 2.2
_symmetry_space_group_name_H-M    P1
_symmetry_Int_Tables_number       1
_space_group_crystal_system       triclinic
_cell_length_a                    11.690961
_cell_length_b                    14.733056
_cell_length_c                    14.67099
_cell_angle_alpha                 64.483556
_cell_angle_beta                  103.311954
_cell_angle_gamma                 103.2179
_cell_volume                      2194.98248807

loop_
_atom_site_label
_atom_site_type_symbol
_atom_type_description
_atom_site_fract_x
_atom_site_fract_y
_atom_site_fract_z
_atom_type_partial_charge
C1    C     C_R   0.480170 0.119972 0.311777 0.790247
C2    C     C_R   0.517746 0.879848 0.688042 0.782335
C3    C     C_R   0.442604 0.317063 0.994842 0.084061
C4    C     C_R   0.437694 0.668008 0.980279 0.081602
C5    C     C_R   0.424516 0.457949 0.034966 -0.117154
C6    C     C_R   0.444566 0.527272 0.934383 -0.114318
C7    C     C_R   0.440925 0.486417 0.860963 0.453111
C8    C     C_R   0.386603 0.494006 0.097511 0.460601
C9    C     C_R   0.440069 0.382550 0.892370 -0.290508
C10   C     C_R   0.397369 0.598052 0.070925 -0.289216
C11   C     C_R   0.702894 0.288023 0.663298 -0.410416
C12   C     C_R   0.296118 0.710592 0.338433 -0.412942
C13   C     C_R   0.668460 0.203528 0.637289 0.665550
C14   C     C_R   0.327551 0.793443 0.366636 0.653846
C15   C     C_R   0.513233 0.284087 0.511250 -0.081645
C16   C     C_R   0.486735 0.715838 0.489286 -0.071858
C17   C     C_R   0.542299 0.370409 0.536590 -0.017182
C18   C     C_R   0.455663 0.627998 0.466406 -0.014518
C19   C     C_R   0.639409 0.370272 0.614569 0.100588
C20   C     C_R   0.358432 0.627814 0.388644 0.090829
C21   C     C_R   0.479977 0.456567 0.487259 0.065165
C22   C     C_R   0.517029 0.541234 0.516855 0.084503
C23   C     C_R   0.284114 0.999982 0.499975 0.819765
C24   C     C_R   0.715901 0.000009 0.500058 0.823605
C25   C     C_R   0.613582 0.535985 0.596071 -0.179527
C26   C     C_R   0.381977 0.460931 0.409423 -0.198146
C27   C     C_R   0.673430 0.452337 0.643479 -0.179630
C28   C     C_R   0.323055 0.544978 0.361237 -0.161923
C29   C     C_1   0.162403 0.999992 0.499928 -0.210126
C30   C     C_1   0.837624 0.000092 0.500006 -0.177562
C31   C     C_1   0.059885 0.000023 0.499877 -0.013805
C32   C     C_1   0.940115 0.000075 0.499920 -0.004551
C33   C     C_R   0.465269 0.186906 0.202471 -0.079641
C34   C     C_R   0.509168 0.810756 0.794874 -0.086771
C35   C     C_R   0.449437 0.214012 0.025331 -0.186070
C36   C     C_R   0.449668 0.772615 0.956253 -0.169169
C37   C     C_R   0.458628 0.148967 0.128362 -0.170335
C38   C     C_R   0.482653 0.843695 0.862905 -0.204794
C39   C     C_R   0.457129 0.289501 0.171894 -0.209040
C40   C     C_R   0.508102 0.707087 0.823197 -0.199967
C41   C     C_R   0.438919 0.354732 0.067804 0.081532
C42   C     C_R   0.462737 0.633583 0.911347 0.087571
Cu1   Cu    Cu3+1 0.469550 0.918260 0.475690 0.963276
Cu2   Cu    Cu3+1 0.530450 0.081740 0.524310 0.974811
H1    H     H_    0.439847 0.353494 0.835800 0.160427
H2    H     H_    0.371879 0.624054 0.121203 0.161410
H3    H     H_    0.645437 0.595487 0.623698 0.140430
H4    H     H_    0.347731 0.400182 0.383896 0.167506
H5    H     H_    0.543253 0.686088 0.774503 0.195515
H6    H     H_    0.469383 0.318354 0.230295 0.200571
H7    H     H_    0.483143 0.923717 0.842488 0.143255
H8    H     H_    0.464320 0.069745 0.150166 0.162618
H9    H     H_    0.449160 0.184005 0.969555 0.130303
H10   H     H_    0.428984 0.799311 0.007999 0.132966
H11   H     H_    0.747488 0.451945 0.703705 0.139289
H12   H     H_    0.248353 0.545096 0.301816 0.138748
H13   H     H_    0.560271 0.723202 0.546357 0.152457
H14   H     H_    0.441423 0.277865 0.452490 0.152129
H15   H     H_    0.779382 0.290005 0.720694 0.145646
H16   H     H_    0.222789 0.710682 0.277889 0.146393
N1    N     N_R   0.576230 0.204580 0.560790 -0.211149
N2    N     N_R   0.423770 0.795420 0.439210 -0.217672
O1    O     O_R   0.459870 0.022090 0.338120 -0.538163
O2    O     O_R   0.540130 0.977910 0.661880 -0.560595
O3    O     O_R   0.511290 0.160150 0.379180 -0.592684
O4    O     O_R   0.488710 0.839850 0.620820 -0.593660
O5    O     O_R   0.311490 0.930960 0.479480 -0.559605
O6    O     O_R   0.688510 0.069040 0.520520 -0.520495
O7    O     O_R   0.362910 0.069020 0.520540 -0.582000
O8    O     O_R   0.637090 0.930980 0.479460 -0.589393
O9    O     O_3   0.435984 0.545142 0.757311 -0.637613
C43   C     C_3   0.318916 0.566291 0.712889 0.055455
H17   H     H_    0.326121 0.642931 0.649531 0.185590
H18   H     H_    0.267339 0.569967 0.766215 0.125879
C44   C     C_3   0.251622 0.488380 0.668805 -0.352471
H19   H     H_    0.307580 0.479523 0.622233 0.241641
H20   H     H_    0.232037 0.413473 0.732242 0.206191
C45   C     C_3   0.135170 0.521167 0.601848 -0.912344
H21   H     H_    0.077132 0.529964 0.646877 0.252090
H22   H     H_    0.088002 0.462583 0.572235 0.261635
H23   H     H_    0.152965 0.594390 0.535878 0.250680
O10   O     O_3   0.334302 0.429822 0.183483 -0.643460
C46   C     C_3   0.220105 0.382329 0.155224 0.041349
H24   H     H_    0.199337 0.310236 0.221556 0.165249
H25   H     H_    0.215524 0.360639 0.090335 0.142933
C47   C     C_3   0.125201 0.449476 0.130520 -0.366630
H26   H     H_    0.125826 0.465815 0.197736 0.216938
H27   H     H_    0.144818 0.522652 0.065018 0.214734
C48   C     C_3   0.001590 0.397290 0.103362 -0.904373
H28   H     H_    0.997891 0.381747 0.034979 0.252192
H29   H     H_    0.934843 0.447529 0.086176 0.258678
H30   H     H_    0.978740 0.324601 0.168361 0.257545
O11   O     O_3   0.267473 0.876831 0.316404 -0.589192
C49   C     C_3   0.144775 0.848698 0.325655 0.049610
H31   H     H_    0.122590 0.894085 0.361303 0.179347
H32   H     H_    0.118684 0.767238 0.375634 0.110894
C50   C     C_3   0.069829 0.874686 0.219832 -0.363472
H33   H     H_    0.090798 0.957310 0.172790 0.229987
H34   H     H_    0.091188 0.831890 0.180953 0.211716
C51   C     C_3   0.937343 0.848259 0.227693 -0.905217
H35   H     H_    0.914302 0.765785 0.274036 0.258186
H36   H     H_    0.884681 0.866611 0.150364 0.257718
H37   H     H_    0.913175 0.892745 0.263474 0.257827
O12   O     O_3   0.734006 0.123555 0.679635 -0.583090
C52   C     C_3   0.753547 0.082771 0.787871 0.031752
H38   H     H_    0.719978 0.999998 0.815238 0.175067
H39   H     H_    0.705153 0.114195 0.822450 0.108832
C53   C     C_3   0.887080 0.096525 0.826119 -0.343337
H40   H     H_    0.933377 0.063201 0.792262 0.232558
H41   H     H_    0.922725 0.178728 0.801611 0.209282
C54   C     C_3   0.913347 0.044597 0.942250 -0.928946
H42   H     H_    0.868395 0.076711 0.978179 0.258807
H43   H     H_    0.010621 0.056697 0.967605 0.256745
H44   H     H_    0.882239 0.961598 0.967714 0.256606

loop_
_geom_bond_atom_site_label_1
_geom_bond_atom_site_label_2
_ccdc_geom_bond_type
C21   C26   A    
C4    C36   A    
C9    H1    S    
O11   C49   S    
C35   H9    S    
C11   C13   A    
C39   H6    S    
C23   O7    A    
C54   H42   S    
Cu1   Cu2   S    
C50   H33   S    
C28   H12   S    
C24   O8    A    
C39   C41   A    
Cu2   O2    S    
C52   H39   S    
C11   C19   A    
C33   C39   A    
C34   C40   A    
C23   C29   S    
C35   C37   A    
C7    O9    S    
C5    C6    A    
C47   H27   S    
C40   H5    S    
C14   N2    A    
C53   H40   S    
C7    C9    A    
C23   O5    A    
C46   H24   S    
C22   C25   A    
C10   H2    S    
C1    O3    A    
C48   H29   S    
C19   C27   A    
C25   H3    S    
C14   O11   S    
C18   C20   A    
C26   H4    S    
C2    C34   S    
C40   C42   A    
C18   C22   A    
C21   C22   A    
Cu2   O3    S    
C16   N2    A    
C43   C44   S    
C11   H15   S    
C1    O1    A    
O12   C52   S    
C50   H34   S    
C2    O2    A    
C52   C53   S    
Cu1   O1    S    
C43   H18   S    
C37   H8    S    
C24   O6    A    
C47   H26   S    
C38   H7    S    
C20   C28   A    
C49   C50   S    
C51   H37   S    
C33   C37   A    
C48   H30   S    
C44   H19   S    
C3    C9    A    
C31   C32   S    
C3    C35   A    
C12   C20   A    
C51   H36   S    
C15   N1    A    
Cu2   O7    S    
C54   H43   S    
C13   O12   S    
C49   H32   S    
C44   H20   S    
Cu1   O5    S    
C46   H25   S    
C12   C14   A    
Cu1   O8    S    
C15   H14   S    
C8    O10   S    
Cu2   O6    S    
C4    C10   A    
C50   C51   S    
C15   C17   A    
C5    C41   A    
C3    C41   A    
C34   C38   A    
C8    C10   A    
C43   H17   S    
C2    O4    A    
C47   C48   S    
C5    C8    A    
C6    C7    A    
Cu2   N1    S    
C25   C27   A    
C52   H38   S    
C27   H11   S    
C26   C28   A    
C53   C54   S    
C36   C38   A    
O9    C43   S    
C29   C31   T    
C30   C32   T    
C45   H21   S    
C45   H23   S    
C4    C42   A    
Cu1   O4    S    
C51   H35   S    
C17   C19   A    
C53   H41   S    
C54   H44   S    
C45   H22   S    
C16   H13   S    
C49   H31   S    
C44   C45   S    
C24   C30   S    
C36   H10   S    
C1    C33   S    
C12   H16   S    
C46   C47   S    
C13   N1    A    
C16   C18   A    
O10   C46   S    
C6    C42   A    
C48   H28   S    
Cu1   N2    S    
C17   C21   A    
