data_mof_unit_55444.cif
_audit_creation_date              2012-12-11T15:43:46-0500
_audit_creation_method            fapswitch 2.2
_symmetry_space_group_name_H-M    P1
_symmetry_Int_Tables_number       1
_space_group_crystal_system       triclinic
_cell_length_a                    14.416026
_cell_length_b                    16.295488
_cell_length_c                    6.969526
_cell_angle_alpha                 90.009273
_cell_angle_beta                  98.7373
_cell_angle_gamma                 90.00874
_cell_volume                      1618.25436679

loop_
_atom_site_label
_atom_site_type_symbol
_atom_type_description
_atom_site_fract_x
_atom_site_fract_y
_atom_site_fract_z
_atom_type_partial_charge
O1    O     O_R   0.831700 0.662810 0.581550 -0.536697
O2    O     O_R   0.168300 0.337190 0.418450 -0.536233
O3    O     O_R   0.168300 0.162810 0.418450 -0.536958
O4    O     O_R   0.831700 0.837190 0.581550 -0.536531
O5    O     O_R   0.842890 0.834390 0.255500 -0.505436
O6    O     O_R   0.157110 0.165610 0.744500 -0.505667
O7    O     O_R   0.157110 0.334390 0.744500 -0.504987
O8    O     O_R   0.842890 0.665610 0.255500 -0.505217
O9    O     O_R   0.661690 0.835580 0.024130 -0.551116
O10   O     O_R   0.338310 0.164420 0.975870 -0.550235
O11   O     O_R   0.338310 0.335580 0.975870 -0.551048
O12   O     O_R   0.661690 0.664420 0.024130 -0.550157
C1    C     C_R   0.865187 0.864515 0.430414 0.807374
C2    C     C_R   0.134727 0.135533 0.569528 0.807513
C3    C     C_R   0.134855 0.364556 0.569670 0.807082
C4    C     C_R   0.865229 0.635489 0.430390 0.807264
C5    C     C_R   0.066645 0.065172 0.537935 -0.213860
C6    C     C_R   0.933172 0.934919 0.461835 -0.213795
C7    C     C_R   0.933243 0.565075 0.461798 -0.214369
C8    C     C_R   0.066942 0.435017 0.538453 -0.214281
C9    C     C_R   0.017112 0.933964 0.379499 0.373847
C10   C     C_R   0.982677 0.066130 0.620216 0.373822
C11   C     C_R   0.983745 0.434768 0.623490 0.374862
C12   C     C_R   0.016467 0.565322 0.376812 0.374832
O13   O     O_3   0.687240 0.750000 0.366320 -0.397421
O14   O     O_3   0.312760 0.250000 0.633680 -0.397431
V1    V     V_3+5 0.757720 0.750000 0.115230 1.534852
V2    V     V_3+5 0.242280 0.250000 0.884770 1.534869
O15   O     O_R   0.650500 0.664000 0.690740 -0.550342
O16   O     O_R   0.349500 0.336000 0.309260 -0.546284
O17   O     O_R   0.349500 0.164000 0.309260 -0.550278
O18   O     O_R   0.650500 0.836000 0.690740 -0.546221
C13   C     C_R   0.623807 0.639968 0.852970 0.712245
C14   C     C_R   0.375699 0.360934 0.146874 0.713377
C15   C     C_R   0.376186 0.139971 0.147014 0.712004
C16   C     C_R   0.624309 0.860933 0.853141 0.713140
C17   C     C_R   0.084664 0.997441 0.420322 0.043110
C18   C     C_R   0.915060 0.002710 0.579148 0.043279
C19   C     C_R   0.915999 0.498016 0.582101 0.043375
C20   C     C_R   0.084284 0.502142 0.418472 0.043401
V3    V     V_3+5 0.735670 0.750000 0.607790 1.436553
V4    V     V_3+5 0.264330 0.250000 0.392210 1.436586
O19   O     O_3   0.806150 0.750000 0.906560 -0.331479
O20   O     O_3   0.193850 0.250000 0.093440 -0.331460
C21   C     C_2   0.549626 0.925618 0.840663 -0.012651
C22   C     C_2   0.457630 0.082675 0.158592 -0.021775
C23   C     C_2   0.450399 0.425623 0.159358 -0.012806
C24   C     C_2   0.542348 0.582667 0.841384 -0.021943
C25   C     C_2   0.522397 0.962063 0.000148 0.159737
C26   C     C_2   0.481161 0.048325 0.994837 0.171149
C27   C     C_2   0.477618 0.462055 0.999862 0.159785
C28   C     C_2   0.518835 0.548331 0.005157 0.171219
Cl1   Cl    Cl    0.037950 0.852699 0.222872 -0.563193
Cl2   Cl    Cl    0.961848 0.147319 0.777022 -0.563115
Cl3   Cl    Cl    0.964039 0.354876 0.784739 -0.562116
Cl4   Cl    Cl    0.036173 0.645131 0.215384 -0.562052
C29   C     C_3   0.177826 0.991672 0.344402 -0.626316
H1    H     H_    0.175854 0.030509 0.212979 0.214722
H2    H     H_    0.236262 0.011963 0.456989 0.157079
H3    H     H_    0.196268 0.928278 0.307430 0.243121
C30   C     C_3   0.821730 0.008633 0.654392 -0.626319
H4    H     H_    0.763428 0.987964 0.541933 0.154030
H5    H     H_    0.823599 0.970199 0.786437 0.215699
H6    H     H_    0.803131 0.072158 0.690016 0.243181
C31   C     C_3   0.823381 0.492491 0.660257 -0.623776
H7    H     H_    0.764490 0.513278 0.549375 0.156745
H8    H     H_    0.804761 0.428999 0.696165 0.242178
H9    H     H_    0.826402 0.530906 0.792645 0.216292
C32   C     C_3   0.177081 0.507853 0.341024 -0.623632
H10   H     H_    0.235824 0.486523 0.451586 0.153838
H11   H     H_    0.174102 0.470017 0.207732 0.217264
H12   H     H_    0.195928 0.571514 0.306967 0.242126
C33   C     C_3   0.504149 0.108658 0.842987 -0.735774
H13   H     H_    0.443825 0.113266 0.724290 0.207619
H14   H     H_    0.518143 0.171260 0.904308 0.197972
H15   H     H_    0.568999 0.090289 0.786568 0.208953
C34   C     C_3   0.518415 0.909529 0.177642 -0.750782
H16   H     H_    0.585078 0.914509 0.279847 0.212463
H17   H     H_    0.457942 0.927900 0.248589 0.207876
H18   H     H_    0.505236 0.844084 0.137488 0.201341
C35   C     C_3   0.495848 0.608668 0.157034 -0.735687
H19   H     H_    0.430987 0.590292 0.213415 0.208884
H20   H     H_    0.556160 0.613284 0.275763 0.207600
H21   H     H_    0.481880 0.671268 0.095755 0.197944
C36   C     C_3   0.481597 0.409502 0.822356 -0.750691
H22   H     H_    0.542093 0.427861 0.751458 0.207780
H23   H     H_    0.494736 0.344059 0.862482 0.201326
H24   H     H_    0.414949 0.414482 0.720113 0.212439
C37   C     C_3   0.538203 0.103326 0.315540 -0.798810
H25   H     H_    0.567076 0.164357 0.285119 0.212704
H26   H     H_    0.513177 0.107003 0.456472 0.217194
H27   H     H_    0.596384 0.058314 0.324529 0.219708
C38   C     C_3   0.497389 0.942297 0.641617 -0.824660
H28   H     H_    0.475434 0.882880 0.570949 0.219274
H29   H     H_    0.431964 0.977890 0.642341 0.224268
H30   H     H_    0.545365 0.974103 0.557878 0.223645
C39   C     C_3   0.461746 0.603337 0.684546 -0.798938
H31   H     H_    0.432853 0.664329 0.715200 0.212716
H32   H     H_    0.486741 0.607110 0.543590 0.217159
H33   H     H_    0.403588 0.558279 0.675445 0.219740
C40   C     C_3   0.502664 0.442324 0.358389 -0.824792
H34   H     H_    0.524611 0.382915 0.429022 0.219252
H35   H     H_    0.568094 0.477925 0.357635 0.224323
H36   H     H_    0.454714 0.474134 0.442177 0.223601

loop_
_geom_bond_atom_site_label_1
_geom_bond_atom_site_label_2
_ccdc_geom_bond_type
O3    V4    S    
C38   H28   S    
C23   C40   S    
O17   V4    S    
C32   H12   S    
C6    C9    A    
C19   C31   S    
C33   H13   S    
C21   C38   S    
C27   C36   S    
C39   H31   S    
C10   Cl2   S    
C22   C37   S    
C34   H16   S    
C24   C39   S    
O9    V1    S    
C40   H34   S    
C1    C6    S    
O18   C16   A    
C8    C20   A    
C29   H2    S    
O4    V3    S    
C10   C18   A    
O15   C13   A    
C32   H11   S    
O8    C4    A    
O4    C1    A    
C30   H5    S    
C40   H36   S    
C35   H20   S    
O5    V1    S    
O6    V2    S    
C31   H8    S    
O9    C16   A    
O18   V3    S    
O10   C15   A    
C37   H26   S    
O5    C1    A    
C18   C30   S    
O7    C3    A    
C40   H35   S    
V3    O19   S    
C2    C5    S    
C32   H10   S    
V4    O20   S    
C39   H32   S    
C35   H19   S    
C34   H17   S    
C3    C8    S    
C20   C32   S    
O16   C14   A    
C36   H23   S    
C27   C28   S    
C26   C33   S    
O13   V3    S    
C29   H3    S    
C23   C27   D    
O12   V1    S    
C36   H22   S    
V2    O20   S    
O7    V2    S    
C30   H6    S    
O6    C2    A    
C28   C35   S    
C8    C11   A    
C21   C25   D    
C31   H9    S    
C16   C21   S    
O1    C4    A    
C5    C17   A    
C37   H27   S    
O2    C3    A    
O3    C2    A    
C7    C19   A    
O1    V3    S    
C31   H7    S    
C38   H30   S    
C33   H15   S    
O17   C15   A    
O13   V1    S    
C33   H14   S    
C37   H25   S    
C35   H21   S    
O14   V4    S    
C36   H24   S    
O10   V2    S    
C13   C24   S    
C39   H33   S    
O15   V3    S    
O11   C14   A    
C11   Cl3   S    
C12   Cl4   S    
C22   C26   D    
O14   V2    S    
C5    C10   A    
C7    C12   A    
C6    C18   A    
C9    Cl1   S    
C34   H18   S    
C29   H1    S    
O11   V2    S    
O2    V4    S    
C4    C7    S    
C11   C19   A    
C12   C20   A    
C25   C34   S    
C30   H4    S    
V1    O19   S    
C24   C28   D    
C9    C17   A    
C38   H29   S    
C25   C26   S    
O8    V1    S    
O16   V4    S    
C14   C23   S    
O12   C13   A    
C15   C22   S    
C17   C29   S    
