data_mof_unit_64650.cif
_audit_creation_date              2012-10-26T20:09:04-0400
_audit_creation_method            fapswitch 2.2
_symmetry_space_group_name_H-M    P1
_symmetry_Int_Tables_number       1
_space_group_crystal_system       triclinic
_cell_length_a                    12.76219
_cell_length_b                    13.943094
_cell_length_c                    15.939468
_cell_angle_alpha                 90.135546
_cell_angle_beta                  92.800604
_cell_angle_gamma                 98.188086
_cell_volume                      2803.94743329

loop_
_atom_site_label
_atom_site_type_symbol
_atom_type_description
_atom_site_fract_x
_atom_site_fract_y
_atom_site_fract_z
_atom_type_partial_charge
C1    C     C_R   0.483384 0.316048 0.499206 0.545055
C2    C     C_2   0.544056 0.977723 0.498057 0.020991
C3    C     C_2   0.455794 0.022301 0.500313 0.020384
C4    C     C_R   0.500605 0.500007 0.340113 0.548138
C5    C     C_1   0.465276 0.126399 0.499609 0.045680
C6    C     C_1   0.534751 0.873637 0.499316 0.049402
C7    C     C_1   0.473596 0.213161 0.499348 0.069327
C8    C     C_2   0.027735 0.468940 0.473918 0.052418
C9    C     C_2   0.972161 0.524674 0.521537 0.185893
C10   C     C_1   0.854392 0.518532 0.516219 0.221198
C11   C     C_1   0.145389 0.479231 0.482152 0.258227
C12   C     C_3   0.407634 0.417523 0.945443 0.459872
C13   C     C_R   0.516629 0.683964 0.500694 0.556199
C14   C     C_R   0.499399 0.499902 0.659907 0.553647
C15   C     C_3   0.413690 0.409379 0.045777 0.190663
C16   C     C_3   0.615593 0.479353 0.053916 0.301936
C17   C     C_3   0.610281 0.470862 0.953322 0.405613
C18   C     C_1   0.498192 0.499383 0.749049 0.010608
C19   C     C_3   0.500712 0.495700 0.083265 -0.051350
C20   C     C_2   0.303100 0.401051 0.082147 0.568191
C21   C     C_2   0.568616 0.682834 0.920314 0.669520
C22   C     C_2   0.345763 0.969385 0.505845 0.595399
C23   C     C_3   0.499639 0.498457 0.916897 -0.046592
C24   C     C_2   0.653960 0.030767 0.492171 0.593442
C25   C     C_2   0.974816 0.395087 0.411575 0.551327
C26   C     C_2   0.656939 0.394068 0.101480 0.628626
C27   C     C_3   0.481956 0.603109 0.950685 0.201168
C28   C     C_3   0.476409 0.598775 0.050925 0.438146
C29   C     C_1   0.498375 0.498937 0.824275 -0.044387
C30   C     C_1   0.501749 0.497490 0.175796 0.132864
C31   C     C_1   0.501779 0.498988 0.251012 0.111099
C32   C     C_1   0.526460 0.786870 0.500073 0.077432
Cu1   Cu    Cu3+1 0.395330 0.493960 0.494700 1.104287
Cu2   Cu    Cu3+1 0.604670 0.506040 0.505300 1.086483
H1    H     H_    0.400593 0.324262 0.851203 0.355931
H2    H     H_    0.761509 0.549403 0.067657 0.381303
H3    H     H_    0.717160 0.348085 0.211485 0.351311
H4    H     H_    0.624672 0.373181 0.865991 0.333059
H5    H     H_    0.699158 0.523939 0.860956 0.331447
H6    H     H_    0.318253 0.582162 0.044744 0.357722
H7    H     H_    0.526864 0.734876 0.079187 0.378501
H8    H     H_    0.380332 0.622660 0.855517 0.375843
H9    H     H_    0.207749 0.440314 0.169754 0.373263
H10   H     H_    0.277210 0.481882 0.946337 0.343918
H11   H     H_    0.714168 0.761174 0.937430 0.362031
H12   H     H_    0.249381 0.847827 0.535807 0.370254
H13   H     H_    0.749942 0.151852 0.460413 0.366378
H14   H     H_    0.979344 0.625137 0.606912 0.344999
H15   H     H_    0.839714 0.322514 0.357943 0.358690
H16   H     H_    0.449615 0.312102 0.128030 0.323434
N1    N     N_1   0.238030 0.484880 0.486720 -0.163652
N2    N     N_1   0.761970 0.515120 0.513270 -0.162828
O1    O     O_R   0.399110 0.356330 0.494870 -0.490521
O2    O     O_2   0.232319 0.339982 0.052754 -0.381343
O3    O     O_R   0.283439 0.455642 0.151921 -0.694117
O4    O     O_3   0.307991 0.436378 0.911023 -0.637890
O5    O     O_2   0.553263 0.724341 0.854199 -0.483689
O6    O     O_R   0.665408 0.708395 0.965547 -0.572350
O7    O     O_2   0.269976 0.010937 0.486473 -0.454636
O8    O     O_R   0.327578 0.874198 0.534952 -0.676030
O9    O     O_2   0.729898 0.989877 0.512588 -0.458547
O10   O     O_R   0.671810 0.125268 0.461415 -0.684593
O11   O     O_3   0.029646 0.590479 0.577364 -0.676350
O12   O     O_R   0.575900 0.366540 0.503830 -0.475460
O13   O     O_2   0.029127 0.351497 0.367994 -0.468439
O14   O     O_R   0.864360 0.374199 0.402244 -0.681510
O15   O     O_3   0.448673 0.320150 0.066043 -0.572884
O16   O     O_3   0.688546 0.561709 0.078745 -0.562625
O17   O     O_2   0.663038 0.316420 0.067661 -0.365370
O18   O     O_R   0.691357 0.407581 0.185986 -0.685909
O19   O     O_3   0.620962 0.375712 0.927961 -0.568637
O20   O     O_3   0.696382 0.533870 0.922376 -0.639594
O21   O     O_3   0.377508 0.617478 0.078939 -0.607392
O22   O     O_3   0.551440 0.671290 0.089906 -0.544916
O23   O     O_R   0.411570 0.494900 0.374960 -0.483878
O24   O     O_3   0.384511 0.628266 0.917650 -0.692431
O25   O     O_R   0.588350 0.505100 0.383910 -0.472149
O26   O     O_R   0.424100 0.633460 0.496170 -0.476404
O27   O     O_R   0.600890 0.643670 0.505130 -0.493034
O28   O     O_R   0.411650 0.494900 0.616090 -0.480424
O29   O     O_R   0.588430 0.505100 0.625040 -0.502289
O30   O     O_3   0.421984 0.326473 0.912001 -0.509101

loop_
_geom_bond_atom_site_label_1
_geom_bond_atom_site_label_2
_ccdc_geom_bond_type
C6    C32   T    
C13   O27   A    
C24   O9    D    
C14   C18   S    
C13   C32   S    
C10   N2    T    
H13   O10   S    
C15   C19   S    
C12   C23   S    
C17   C23   S    
C23   C29   S    
C16   C19   S    
Cu2   O25   S    
C22   O8    S    
C30   C31   T    
Cu1   O26   S    
H6    O21   S    
C1    O1    A    
C4    O23   A    
H7    O22   S    
C13   O26   A    
Cu1   O23   S    
C8    C9    D    
H5    O20   S    
C16   O16   S    
Cu2   O29   S    
C14   O28   A    
C9    C10   S    
C21   C27   S    
C28   O22   S    
C9    O11   S    
H3    O18   S    
C16   C26   S    
C8    C25   S    
C2    C6    S    
C20   O3    S    
C28   O21   S    
H1    O30   S    
Cu1   O1    S    
C15   C20   S    
H11   O6    S    
H15   O14   S    
C25   O13   D    
C20   O2    D    
C22   O7    D    
C5    C7    T    
C16   C17   S    
H14   O11   S    
C21   O5    D    
Cu2   O27   S    
H10   O4    S    
C12   C15   S    
C15   O15   S    
Cu2   O12   S    
Cu1   Cu2   S    
C12   O30   S    
C18   C29   T    
C19   C28   S    
C12   O4    S    
H9    O3    S    
C17   O19   S    
C23   C27   S    
C2    C24   S    
C26   O18   S    
C27   O24   S    
C1    O12   A    
H16   O15   S    
H4    O19   S    
C24   O10   S    
H12   O8    S    
C1    C7    S    
Cu2   N2    S    
C25   O14   S    
C3    C5    S    
H2    O16   S    
Cu1   O28   S    
Cu1   N1    S    
H8    O24   S    
C2    C3    D    
C4    O25   A    
C8    C11   S    
C4    C31   S    
C11   N1    T    
C21   O6    S    
C17   O20   S    
C27   C28   S    
C26   O17   D    
C3    C22   S    
C14   O29   A    
C19   C30   S    
