data_mof_unit_14628.cif
_audit_creation_date              2013-03-05T16:33:56-0500
_audit_creation_method            fapswitch 2.2
_symmetry_space_group_name_H-M    P1
_symmetry_Int_Tables_number       1
_space_group_crystal_system       triclinic
_cell_length_a                    26.298663
_cell_length_b                    22.468821
_cell_length_c                    17.2327
_cell_angle_alpha                 89.776047
_cell_angle_beta                  139.232094
_cell_angle_gamma                 90.17958
_cell_volume                      6649.28250363

loop_
_atom_site_label
_atom_site_type_symbol
_atom_site_description
_atom_site_fract_x
_atom_site_fract_y
_atom_site_fract_z
_atom_type_partial_charge
Zn1   Zn    Zn3+2 0.006080 0.799450 0.098920 0.998993
Zn2   Zn    Zn3+2 0.993920 0.200550 0.901080 0.999575
Zn3   Zn    Zn3+2 0.993920 0.799450 0.901080 1.026073
Zn4   Zn    Zn3+2 0.006080 0.200550 0.098920 1.021516
Zn5   Zn    Zn3+2 0.506080 0.299450 0.098920 1.001599
Zn6   Zn    Zn3+2 0.493920 0.700550 0.901080 1.015629
Zn7   Zn    Zn3+2 0.493920 0.299450 0.901080 1.032356
Zn8   Zn    Zn3+2 0.506080 0.700550 0.098920 1.024368
Zn9   Zn    Zn3+2 0.092840 0.700530 0.098900 1.022465
Zn10  Zn    Zn3+2 0.907160 0.299470 0.901100 1.049880
Zn11  Zn    Zn3+2 0.907160 0.700530 0.901100 1.033040
Zn12  Zn    Zn3+2 0.092840 0.299470 0.098900 0.958071
Zn13  Zn    Zn3+2 0.592840 0.200530 0.098900 1.038707
Zn14  Zn    Zn3+2 0.407160 0.799470 0.901100 1.024922
Zn15  Zn    Zn3+2 0.407160 0.200530 0.901100 0.990711
Zn16  Zn    Zn3+2 0.592840 0.799470 0.098900 0.998107
O1    O     O_3   0.000000 0.749980 0.000000 -0.517577
O2    O     O_3   0.000000 0.250020 0.000000 -0.511895
O3    O     O_3   0.500000 0.249980 0.000000 -0.515246
O4    O     O_3   0.500000 0.750020 0.000000 -0.515483
O5    O     O_R   0.081200 0.784590 0.930760 -0.591556
O6    O     O_R   0.918800 0.215410 0.069240 -0.617162
O7    O     O_R   0.918800 0.784590 0.069240 -0.602119
O8    O     O_R   0.081200 0.215410 0.930760 -0.608818
O9    O     O_R   0.581200 0.284590 0.930760 -0.598381
O10   O     O_R   0.418800 0.715410 0.069240 -0.609131
O11   O     O_R   0.418800 0.284590 0.069240 -0.610759
O12   O     O_R   0.581200 0.715410 0.930760 -0.612300
O13   O     O_R   0.162390 0.715380 0.264050 -0.669593
O14   O     O_R   0.837610 0.284620 0.735950 -0.615210
O15   O     O_R   0.837610 0.715380 0.735950 -0.609100
O16   O     O_R   0.162390 0.284620 0.264050 -0.694158
O17   O     O_R   0.662390 0.215380 0.264050 -0.608800
O18   O     O_R   0.337610 0.784620 0.735950 -0.619998
O19   O     O_R   0.337610 0.215380 0.735950 -0.649813
O20   O     O_R   0.662390 0.784620 0.264050 -0.674634
O21   O     O_R   0.064970 0.617950 0.069210 -0.620800
O22   O     O_R   0.935030 0.382050 0.930790 -0.559424
O23   O     O_R   0.935030 0.617950 0.930790 -0.603454
O24   O     O_R   0.064970 0.382050 0.069210 -0.678300
O25   O     O_R   0.564970 0.117950 0.069210 -0.590680
O26   O     O_R   0.435030 0.882050 0.930790 -0.586280
O27   O     O_R   0.435030 0.117950 0.930790 -0.664964
O28   O     O_R   0.564970 0.882050 0.069210 -0.639876
O29   O     O_R   0.995760 0.882010 0.930780 -0.650285
O30   O     O_R   0.004240 0.117990 0.069220 -0.630798
O31   O     O_R   0.004240 0.882010 0.069220 -0.667594
O32   O     O_R   0.995760 0.117990 0.930780 -0.642379
O33   O     O_R   0.495760 0.382010 0.930780 -0.642639
O34   O     O_R   0.504240 0.617990 0.069220 -0.632587
O35   O     O_R   0.504240 0.382010 0.069220 -0.668417
O36   O     O_R   0.495760 0.617990 0.930780 -0.644822
O37   O     O_R   0.101670 0.784610 0.264060 -0.604879
O38   O     O_R   0.898330 0.215390 0.735940 -0.636588
O39   O     O_R   0.898330 0.784610 0.735940 -0.643666
O40   O     O_R   0.101670 0.215390 0.264060 -0.596215
O41   O     O_R   0.601670 0.284610 0.264060 -0.628410
O42   O     O_R   0.398330 0.715390 0.735940 -0.637271
O43   O     O_R   0.398330 0.284610 0.735940 -0.611434
O44   O     O_R   0.601670 0.715390 0.264060 -0.603358
O45   O     O_R   0.150430 0.715370 0.069210 -0.640240
O46   O     O_R   0.849570 0.284630 0.930790 -0.651119
O47   O     O_R   0.849570 0.715370 0.930790 -0.666509
O48   O     O_R   0.150430 0.284630 0.069210 -0.657740
O49   O     O_R   0.650430 0.215370 0.069210 -0.662263
O50   O     O_R   0.349570 0.784630 0.930790 -0.664000
O51   O     O_R   0.349570 0.215370 0.930790 -0.652501
O52   O     O_R   0.650430 0.784630 0.069210 -0.652604
C1    C     C_R   0.141007 0.751167 0.001415 0.926294
C2    C     C_R   0.857519 0.247221 0.995459 0.865182
C3    C     C_R   0.858127 0.751332 0.997113 0.898822
C4    C     C_R   0.140401 0.250033 0.999998 0.903225
C5    C     C_R   0.640949 0.250684 0.000993 0.897062
C6    C     C_R   0.358144 0.748456 0.996918 0.864285
C7    C     C_R   0.357855 0.252005 0.996110 0.932132
C8    C     C_R   0.641885 0.748322 0.003364 0.940032
C9    C     C_R   0.159820 0.750038 0.319915 0.877003
C10   C     C_R   0.839279 0.249237 0.680137 0.849382
C11   C     C_R   0.840392 0.749892 0.680009 0.883038
C12   C     C_R   0.160018 0.249866 0.319999 0.857104
C13   C     C_R   0.659405 0.249657 0.319907 0.885321
C14   C     C_R   0.339807 0.749725 0.680094 0.874699
C15   C     C_R   0.340143 0.250093 0.680003 0.884484
C16   C     C_R   0.660167 0.749745 0.319992 0.873291
C17   C     C_R   0.000111 0.590085 0.000257 0.856804
C18   C     C_R   0.000090 0.409908 0.000223 0.848716
C19   C     C_R   0.499983 0.090088 0.999964 0.851440
C20   C     C_R   0.500013 0.909915 0.000008 0.848621
C21   C     C_R   0.999933 0.909994 0.999834 0.851799
C22   C     C_R   0.999939 0.089997 0.000028 0.848616
C23   C     C_R   0.499928 0.409995 0.999832 0.855568
C24   C     C_R   0.499960 0.589998 0.000052 0.864204
C25   C     C_1   0.999849 0.973317 0.999722 -0.148200
C26   C     C_1   0.999865 0.026662 0.999986 -0.138627
C27   C     C_1   0.499864 0.473319 0.999747 -0.145119
C28   C     C_1   0.499889 0.526665 0.000017 -0.134219
C29   C     C_R   0.752239 0.592456 0.789971 0.181150
C30   C     C_R   0.240328 0.419912 0.192286 0.308295
C31   C     C_R   0.339796 0.611747 0.324559 0.203512
C32   C     C_R   0.685307 0.341794 0.656150 0.192731
C33   C     C_R   0.196190 0.084744 0.740944 0.209147
C34   C     C_R   0.838969 0.897729 0.315650 0.222758
C35   C     C_R   0.772469 0.118578 0.270265 0.281948
C36   C     C_R   0.199757 0.861652 0.681652 0.282526
C37   C     C_R   0.750749 0.621074 0.860038 -0.277643
C38   C     C_R   0.233772 0.386735 0.116148 -0.324201
C39   C     C_R   0.305044 0.636228 0.217940 -0.221354
C40   C     C_R   0.707558 0.334022 0.759268 -0.271402
C41   C     C_R   0.217715 0.120036 0.828846 -0.249427
C42   C     C_R   0.801415 0.872926 0.207959 -0.283833
C43   C     C_R   0.772529 0.135403 0.191600 -0.240715
C44   C     C_R   0.219552 0.848251 0.781508 -0.244806
H1    H     H_    0.781384 0.601867 0.944483 0.233081
H2    H     H_    0.192563 0.400273 0.024322 0.203885
H3    H     H_    0.288545 0.607655 0.151122 0.246255
H4    H     H_    0.745023 0.366445 0.830203 0.226030
H5    H     H_    0.234670 0.099330 0.902753 0.239205
H6    H     H_    0.776156 0.902165 0.136073 0.202291
H7    H     H_    0.745914 0.106759 0.117944 0.240814
H8    H     H_    0.261503 0.875650 0.860303 0.232595
C45   C     C_R   0.716795 0.677184 0.828394 -0.042534
C46   C     C_R   0.275322 0.333758 0.153684 -0.004184
C47   C     C_R   0.296967 0.697723 0.199763 -0.065097
C48   C     C_R   0.690010 0.281604 0.778734 -0.013213
C49   C     C_R   0.212178 0.181932 0.818338 -0.040982
C50   C     C_R   0.796510 0.811273 0.192345 0.012104
C51   C     C_R   0.793839 0.193039 0.193758 -0.090140
C52   C     C_R   0.195109 0.795053 0.788102 -0.037845
C53   C     C_R   0.679895 0.704531 0.721556 0.134289
C54   C     C_R   0.328165 0.314459 0.272473 0.173031
C55   C     C_R   0.320652 0.736194 0.287272 0.170663
C56   C     C_R   0.642391 0.238162 0.688214 0.218470
C57   C     C_R   0.187365 0.210007 0.720324 0.198064
C58   C     C_R   0.825110 0.773166 0.284457 0.218265
C59   C     C_R   0.824761 0.232626 0.284584 0.160235
C60   C     C_R   0.141130 0.758198 0.686702 0.199751
C61   C     C_R   0.683909 0.677360 0.652564 0.139955
C62   C     C_R   0.340363 0.349901 0.353104 0.103898
C63   C     C_R   0.354375 0.712389 0.394364 0.147591
C64   C     C_R   0.614581 0.247253 0.579312 0.130126
C65   C     C_R   0.167941 0.175034 0.632625 0.121729
C66   C     C_R   0.855739 0.797517 0.389179 0.104087
C67   C     C_R   0.837542 0.213115 0.376107 0.118480
C68   C     C_R   0.113695 0.774901 0.580516 0.095308
C69   C     C_R   0.717221 0.619982 0.684349 0.336269
C70   C     C_R   0.292598 0.400242 0.311225 0.346173
C71   C     C_R   0.359010 0.649843 0.409250 0.266442
C72   C     C_R   0.632195 0.301404 0.561222 0.294286
C73   C     C_R   0.175638 0.112234 0.646180 0.263731
C74   C     C_R   0.860524 0.860018 0.402707 0.290647
C75   C     C_R   0.806964 0.157250 0.365669 0.286656
C76   C     C_R   0.141874 0.827320 0.577442 0.268127
C77   C     C_R   0.181663 0.215220 0.916209 0.434444
C78   C     C_R   0.807512 0.793904 0.062775 0.513035
C79   C     C_R   0.816637 0.211334 0.079503 0.484147
C80   C     C_R   0.179806 0.783213 0.912477 0.456055
C81   C     C_R   0.687286 0.708046 0.929362 0.447364
C82   C     C_R   0.302428 0.299776 0.050983 0.513392
C83   C     C_R   0.319883 0.718630 0.086589 0.433351
C84   C     C_R   0.677824 0.278487 0.907609 0.450978
C85   C     C_R   0.194203 0.252847 0.995127 -0.228393
C86   C     C_R   0.799007 0.753049 0.991865 -0.174084
C87   C     C_R   0.798711 0.242920 0.989970 -0.186664
C88   C     C_R   0.198082 0.753006 0.003337 -0.211013
C89   C     C_R   0.699566 0.746827 0.006600 -0.205539
C90   C     C_R   0.296936 0.256431 0.986145 -0.188394
C91   C     C_R   0.300754 0.747852 0.994503 -0.184687
C92   C     C_R   0.696907 0.249740 0.000110 -0.227393
C93   C     C_R   0.255587 0.295349 0.063381 -0.072109
C94   C     C_R   0.735546 0.712457 0.919712 -0.040814
C95   C     C_R   0.725053 0.270687 0.896957 -0.080771
C96   C     C_R   0.269576 0.722172 0.092572 -0.028616
C97   C     C_R   0.764376 0.786140 0.081521 -0.105280
C98   C     C_R   0.232360 0.217463 0.911115 -0.053621
C99   C     C_R   0.227874 0.777257 0.902935 -0.067220
C100  C     C_R   0.767134 0.216450 0.086804 -0.016164
C101  C     C_1   0.777733 0.749826 0.553336 -0.006226
C102  C     C_1   0.223592 0.249908 0.446690 -0.067883
C103  C     C_1   0.222736 0.749978 0.446645 -0.087271
C104  C     C_1   0.774471 0.248676 0.553375 -0.016823
C105  C     C_1   0.277081 0.250163 0.553343 -0.062020
C106  C     C_1   0.724118 0.749605 0.446659 -0.035956
C107  C     C_1   0.721334 0.248949 0.446630 0.033227
C108  C     C_1   0.276058 0.749730 0.553339 -0.037806
C109  C     C_1   0.000570 0.526679 0.000982 0.007655
C110  C     C_1   0.000423 0.473287 0.000818 -0.016716
C111  C     C_1   0.499970 0.026696 0.999943 -0.071994
C112  C     C_1   0.500015 0.973312 0.999995 -0.064117
O53   O     O_3   0.720806 0.593069 0.616561 -0.519054
C113  C     C_3   0.662499 0.548775 0.544882 0.163994
H9    H     H_    0.606947 0.562700 0.508441 0.090911
H10   H     H_    0.682219 0.507429 0.596970 0.202218
C114  C     C_3   0.646256 0.535039 0.441284 -0.668861
H11   H     H_    0.697070 0.512119 0.473777 0.280033
H12   H     H_    0.594234 0.506158 0.376750 0.178764
H13   H     H_    0.634510 0.576660 0.394850 0.276702
O54   O     O_3   0.301133 0.432255 0.389019 -0.522106
C115  C     C_3   0.246447 0.410869 0.380581 0.189010
H14   H     H_    0.258360 0.363731 0.409408 0.174060
H15   H     H_    0.185818 0.414747 0.288413 0.161031
C116  C     C_3   0.252326 0.446841 0.461569 -0.781637
H16   H     H_    0.234861 0.493574 0.429969 0.251124
H17   H     H_    0.212702 0.427796 0.460342 0.218979
H18   H     H_    0.312892 0.445566 0.554104 0.267849
O55   O     O_3   0.391004 0.626655 0.513261 -0.581260
C117  C     C_3   0.330420 0.607888 0.492888 0.212497
H19   H     H_    0.292286 0.574462 0.420219 0.194865
H20   H     H_    0.294301 0.646380 0.469410 0.145577
C118  C     C_3   0.366004 0.579476 0.606010 -0.785361
H21   H     H_    0.408262 0.610391 0.681979 0.284428
H22   H     H_    0.319661 0.568831 0.595210 0.199087
H23   H     H_    0.396946 0.537907 0.625744 0.267750
O56   O     O_3   0.600956 0.313387 0.452822 -0.547842
C119  C     C_3   0.542640 0.357501 0.393525 0.214048
H24   H     H_    0.558270 0.393063 0.453888 0.105680
H25   H     H_    0.487301 0.336436 0.348870 0.208093
C120  C     C_3   0.529771 0.387905 0.300888 -0.661563
H26   H     H_    0.505173 0.355993 0.230724 0.312466
H27   H     H_    0.488982 0.425810 0.260748 0.183941
H28   H     H_    0.585648 0.404520 0.341600 0.258691
O57   O     O_3   0.157445 0.077432 0.561767 -0.555973
C121  C     C_3   0.226686 0.066122 0.600072 0.199501
H29   H     H_    0.264488 0.034866 0.676545 0.196468
H30   H     H_    0.260301 0.107656 0.627123 0.150527
C122  C     C_3   0.206080 0.038416 0.498553 -0.694736
H31   H     H_    0.172318 0.070515 0.423750 0.260177
H32   H     H_    0.260112 0.026262 0.529433 0.218900
H33   H     H_    0.170450 0.997860 0.466524 0.267083
O58   O     O_3   0.886522 0.883958 0.501778 -0.552126
C123  C     C_3   0.820980 0.896693 0.472652 0.185663
H34   H     H_    0.787488 0.855468 0.447018 0.136617
H35   H     H_    0.781923 0.929578 0.398529 0.184797
C124  C     C_3   0.847997 0.923228 0.580213 -0.807776
H36   H     H_    0.884667 0.962956 0.611138 0.257687
H37   H     H_    0.796835 0.936398 0.556457 0.214034
H38   H     H_    0.882630 0.890107 0.653302 0.276020
O59   O     O_3   0.795398 0.146958 0.430900 -0.542910
C125  C     C_3   0.853996 0.109769 0.529410 0.152263
H39   H     H_    0.906049 0.136681 0.602916 0.176645
H40   H     H_    0.869828 0.072632 0.508119 0.173657
C126  C     C_3   0.826102 0.083595 0.573954 -0.721543
H41   H     H_    0.777763 0.051757 0.508299 0.274113
H42   H     H_    0.874833 0.060008 0.659484 0.194512
H43   H     H_    0.805281 0.119465 0.588774 0.250865
O60   O     O_3   0.118368 0.840948 0.475521 -0.546468
C127  C     C_3   0.065505 0.889089 0.417258 0.176461
H44   H     H_    0.093368 0.929625 0.473700 0.187543
H45   H     H_    0.013404 0.877625 0.392679 0.174097
C128  C     C_3   0.038623 0.903657 0.304315 -0.658113
H46   H     H_    0.089340 0.915041 0.325784 0.244934
H47   H     H_    0.008515 0.864607 0.244365 0.312218
H48   H     H_    0.997945 0.942048 0.258428 0.189133
N1    N     N_R   0.796164 0.538509 0.832660 0.229437
O61   O     O_R   0.829521 0.526178 0.805501 -0.307963
O62   O     O_R   0.811223 0.505356 0.910338 -0.395450
N2    N     N_R   0.194127 0.473326 0.147523 0.235428
O63   O     O_R   0.202947 0.508436 0.216896 -0.390142
O64   O     O_R   0.144590 0.488772 0.036679 -0.394040
N3    N     N_R   0.362216 0.549712 0.350195 0.245425
O65   O     O_R   0.402752 0.526831 0.453517 -0.341762
O66   O     O_R   0.352810 0.518059 0.276911 -0.430639
N4    N     N_R   0.722169 0.387632 0.653088 0.213336
O67   O     O_R   0.712726 0.390450 0.567366 -0.377169
O68   O     O_R   0.778783 0.417936 0.748645 -0.310169
N5    N     N_R   0.187994 0.021618 0.742404 0.252891
O69   O     O_R   0.223963 0.995011 0.840826 -0.410985
O70   O     O_R   0.133935 0.992753 0.642924 -0.383504
N6    N     N_R   0.856914 0.960557 0.336527 0.247905
O71   O     O_R   0.845465 0.992340 0.261000 -0.413310
O72   O     O_R   0.895519 0.984497 0.438031 -0.387502
N7    N     N_R   0.731346 0.065001 0.245375 0.253792
O73   O     O_R   0.700961 0.030575 0.157740 -0.376736
O74   O     O_R   0.715027 0.053823 0.298766 -0.375376
N8    N     N_R   0.243519 0.906323 0.690587 0.245095
O75   O     O_R   0.245813 0.906118 0.617774 -0.378818
O76   O     O_R   0.292522 0.940175 0.784003 -0.374725
N9    N     N_R   0.637289 0.759159 0.681883 0.241055
O77   O     O_R   0.669462 0.805480 0.750766 -0.397288
O78   O     O_R   0.565734 0.762862 0.574777 -0.338946
N10   N     N_R   0.364102 0.256655 0.309251 0.240739
O79   O     O_R   0.367764 0.222665 0.374701 -0.294473
O80   O     O_R   0.389272 0.236139 0.272570 -0.337430
N11   N     N_R   0.309857 0.799365 0.267020 0.235267
O81   O     O_R   0.336834 0.827774 0.237995 -0.387774
O82   O     O_R   0.273295 0.828772 0.278499 -0.368375
N12   N     N_R   0.619438 0.186295 0.704892 0.254823
O83   O     O_R   0.671570 0.150889 0.794789 -0.378706
O84   O     O_R   0.545942 0.174844 0.630684 -0.239389
N13   N     N_R   0.187011 0.273915 0.714348 0.241744
O85   O     O_R   0.150889 0.305918 0.724023 -0.385977
O86   O     O_R   0.226413 0.300429 0.705286 -0.382356
N14   N     N_R   0.825290 0.710043 0.272845 0.253778
O87   O     O_R   0.770602 0.677384 0.240082 -0.350419
O88   O     O_R   0.870926 0.687034 0.273501 -0.281926
N15   N     N_R   0.833831 0.294822 0.276157 0.245983
O89   O     O_R   0.867850 0.311619 0.251597 -0.391087
O90   O     O_R   0.803924 0.335059 0.286805 -0.334393
N16   N     N_R   0.113159 0.704572 0.690690 0.260803
O91   O     O_R   0.161750 0.666193 0.776205 -0.369125
O92   O     O_R   0.038898 0.693253 0.607220 -0.237779
N17   N     N_R   0.135684 0.202773 0.526703 0.218617
O93   O     O_R   0.137183 0.175770 0.461927 -0.407404
O94   O     O_R   0.095465 0.251671 0.485587 -0.351162
N18   N     N_R   0.884553 0.759544 0.483796 0.246731
O95   O     O_R   0.851170 0.708956 0.460846 -0.325584
O96   O     O_R   0.942924 0.776375 0.594065 -0.275627
N19   N     N_R   0.882347 0.250527 0.479035 0.219151
O97   O     O_R   0.936500 0.285041 0.513672 -0.319236
O98   O     O_R   0.875759 0.246388 0.546057 -0.426153
N20   N     N_R   0.061966 0.736448 0.478458 0.268917
O99   O     O_R   0.075533 0.679535 0.490943 -0.305626
O100  O     O_R   0.005340 0.758548 0.371855 -0.324674
N21   N     N_R   0.659695 0.709832 0.556197 0.224244
O101  O     O_R   0.662705 0.767707 0.557905 -0.368764
O102  O     O_R   0.642061 0.682067 0.472225 -0.410163
N22   N     N_R   0.403803 0.336027 0.478149 0.264657
O103  O     O_R   0.396353 0.341050 0.544295 -0.367094
O104  O     O_R   0.470694 0.319444 0.527358 -0.353280
N23   N     N_R   0.390596 0.751584 0.491757 0.239416
O105  O     O_R   0.425030 0.800092 0.508360 -0.263412
O106  O     O_R   0.398287 0.735884 0.572813 -0.412381
N24   N     N_R   0.574483 0.200094 0.492183 0.267440
O107  O     O_R   0.586876 0.144691 0.524979 -0.305343
O108  O     O_R   0.535458 0.211055 0.383918 -0.296084
O109  O     O_3   0.124250 0.171735 0.851553 -0.599591
C129  C     C_3   0.058046 0.190605 0.732543 0.164307
H49   H     H_    0.068279 0.229487 0.705418 0.194208
H50   H     H_    0.012313 0.203639 0.721526 0.215594
C130  C     C_3   0.027521 0.139276 0.648142 -0.810183
H51   H     H_    0.023656 0.097795 0.678716 0.266066
H52   H     H_    0.969735 0.150366 0.557382 0.196721
H53   H     H_    0.064999 0.131442 0.640852 0.240837
O110  O     O_3   0.859654 0.840791 0.116472 -0.594775
C131  C     C_3   0.819721 0.892433 0.043492 0.065184
H54   H     H_    0.843223 0.931350 0.102564 0.196181
H55   H     H_    0.755504 0.891716 0.979757 0.157080
C132  C     C_3   0.833987 0.903825 0.974048 -0.750559
H56   H     H_    0.805146 0.945990 0.923102 0.232812
H57   H     H_    0.897149 0.908324 0.036202 0.259871
H58   H     H_    0.809649 0.867287 0.910341 0.255564
O111  O     O_3   0.870639 0.165272 0.139546 -0.597711
C133  C     C_3   0.939149 0.178864 0.260589 0.137635
H59   H     H_    0.932875 0.215371 0.295917 0.174251
H60   H     H_    0.985218 0.192601 0.272460 0.239101
C134  C     C_3   0.966461 0.123119 0.334828 -0.644729
H61   H     H_    0.988904 0.089971 0.318680 0.274790
H62   H     H_    0.013029 0.134577 0.430410 0.220006
H63   H     H_    0.917900 0.102850 0.311838 0.263608
O112  O     O_3   0.112570 0.816796 0.828146 -0.549679
C135  C     C_3   0.131657 0.876857 0.865660 0.090711
H64   H     H_    0.181302 0.892736 0.886894 0.165114
H65   H     H_    0.146995 0.882561 0.945711 0.163388
C136  C     C_3   0.061913 0.915974 0.766746 -0.577320
H66   H     H_    0.076275 0.963300 0.795005 0.196733
H67   H     H_    0.045627 0.911276 0.685850 0.289776
H68   H     H_    0.012169 0.902555 0.746351 0.267305
O113  O     O_3   0.640925 0.657821 0.886075 -0.596152
C137  C     C_3   0.572489 0.660129 0.761323 0.177111
H69   H     H_    0.571636 0.696339 0.716289 0.156500
H70   H     H_    0.521997 0.668195 0.741596 0.237153
C138  C     C_3   0.560613 0.600119 0.707902 -0.714592
H71   H     H_    0.616856 0.579468 0.757073 0.241819
H72   H     H_    0.529827 0.568972 0.711996 0.265959
H73   H     H_    0.526193 0.605977 0.614138 0.245514
O114  O     O_3   0.354994 0.346241 0.104806 -0.619691
C139  C     C_3   0.315353 0.398731 0.035299 0.072836
H74   H     H_    0.334224 0.435709 0.095350 0.197532
H75   H     H_    0.250516 0.396361 0.964561 0.158128
C140  C     C_3   0.336472 0.414722 0.976413 -0.741985
H76   H     H_    0.318812 0.378413 0.916225 0.265325
H77   H     H_    0.305753 0.456141 0.923461 0.231816
H78   H     H_    0.399981 0.422388 0.044794 0.250779
O115  O     O_3   0.379318 0.676996 0.155763 -0.603813
C141  C     C_3   0.445407 0.698131 0.272197 0.180963
H79   H     H_    0.432086 0.728822 0.305358 0.161353
H80   H     H_    0.484405 0.722475 0.276707 0.204806
C142  C     C_3   0.488310 0.644283 0.353689 -0.727000
H81   H     H_    0.447714 0.611920 0.333112 0.254507
H82   H     H_    0.518183 0.621291 0.339848 0.267560
H83   H     H_    0.530023 0.657893 0.447362 0.217076
O116  O     O_3   0.610909 0.312529 0.823476 -0.537807
C143  C     C_3   0.630892 0.372445 0.862085 0.117177
H84   H     H_    0.672930 0.389756 0.866930 0.138287
H85   H     H_    0.657006 0.377028 0.951182 0.153464
C144  C     C_3   0.558235 0.411057 0.774939 -0.616130
H86   H     H_    0.514417 0.394524 0.766600 0.280438
H87   H     H_    0.573460 0.457691 0.807337 0.178743
H88   H     H_    0.533102 0.410421 0.686571 0.284251

loop_
_geom_bond_atom_site_label_1
_geom_bond_atom_site_label_2
_geom_bond_distance
_ccdc_geom_bond_type
N24   O108  1.300935 A    
O113  C137  1.415116 S    
C36   N8    1.442620 S    
Zn8   O10   1.966444 S    
Zn6   O42   1.921169 S    
C42   H6    1.075828 S    
C132  H56   1.110395 S    
O110  C131  1.423563 S    
C65   N17   1.445295 S    
C69   O53   1.382699 S    
C61   N21   1.444740 S    
O42   C14   1.283812 A    
N7    O73   1.301855 A    
C122  H33   1.108257 S    
O46   C2    1.277895 A    
C137  C138  1.527949 S    
N8    O75   1.301087 A    
O24   C18   1.282492 A    
C71   O55   1.379540 S    
C142  H83   1.105514 S    
N20   O99   1.301252 A    
C4    C85   1.480661 S    
C129  H49   1.113571 S    
Zn16  O28   1.916989 S    
C140  H78   1.107438 S    
Zn4   O2    1.934004 S    
C67   C75   1.425122 A    
O60   C127  1.413312 S    
Zn4   O40   1.922295 S    
C116  H18   1.110551 S    
C40   C48   1.393059 A    
C5    C92   1.483389 S    
O11   C7    1.278042 A    
Zn7   O43   1.922295 S    
C6    C91   1.478044 S    
C136  H67   1.111057 S    
C63   N23   1.443763 S    
O25   C19   1.283258 A    
C138  H73   1.109573 S    
C125  H40   1.113647 S    
C90   C98   1.412786 A    
C83   C96   1.405200 A    
Zn14  O50   1.958584 S    
C44   H8    1.083077 S    
C133  H59   1.107998 S    
N17   O93   1.299164 A    
C77   C85   1.414523 A    
N22   O103  1.299967 A    
C57   N13   1.438779 S    
Zn12  O24   1.916989 S    
Zn13  O17   1.917066 S    
O58   C123  1.412892 S    
C67   N19   1.442498 S    
O16   C12   1.275983 A    
Zn10  O14   1.917066 S    
Zn16  O4    1.948122 S    
C129  C130  1.526003 S    
C9    C103  1.426073 S    
C134  H63   1.107568 S    
C123  H35   1.114740 S    
C76   O60   1.383158 S    
Zn5   O3    1.941073 S    
O47   C3    1.275278 A    
Zn7   O3    1.934003 S    
O116  C143  1.415686 S    
N16   O91   1.301067 A    
O23   C17   1.285217 A    
C54   C62   1.414083 A    
Zn8   O34   1.916966 S    
C132  H58   1.108282 S    
Zn6   O4    1.941073 S    
C36   C44   1.401022 A    
C51   C100  1.483572 S    
C31   C71   1.417052 A    
C52   C99   1.493825 S    
C29   C69   1.413972 A    
C29   C37   1.396715 A    
O43   C15   1.279218 A    
N3    O66   1.301771 A    
C133  C134  1.524025 S    
C30   C38   1.403974 A    
Zn10  O22   1.916413 S    
C36   C76   1.414196 A    
C16   C106  1.425656 S    
O114  C139  1.420468 S    
N12   O84   1.301102 A    
C131  C132  1.521657 S    
C66   C74   1.413955 A    
Zn10  O2    1.949253 S    
N14   O88   1.300415 A    
C83   C91   1.409654 A    
Zn3   O1    1.934003 S    
C133  H60   1.108025 S    
C84   C92   1.411464 A    
C135  H64   1.113668 S    
C77   O109  1.388114 S    
C53   C61   1.411922 A    
C50   C58   1.415425 A    
C114  H11   1.110494 S    
Zn5   O35   1.913384 S    
C115  H15   1.111928 S    
Zn6   O36   1.913384 S    
C101  C106  1.200577 T    
C144  H87   1.110532 S    
C79   C100  1.404665 A    
N23   O106  1.298105 A    
C80   C99   1.399646 A    
C113  H9    1.112776 S    
C55   N11   1.437224 S    
C109  C110  1.199652 T    
N15   O90   1.301520 A    
C128  H46   1.110161 S    
O22   C18   1.284170 A    
Zn9   O45   1.958584 S    
C37   H1    1.083682 S    
Zn11  O47   1.960879 S    
N1    O61   1.299923 A    
Zn12  O48   1.960879 S    
C119  H25   1.111909 S    
N21   O102  1.298845 A    
O50   C6    1.270729 A    
C14   C108  1.426530 S    
C24   C28   1.423026 S    
C48   C56   1.414077 A    
C43   H7    1.083086 S    
C126  H41   1.109017 S    
C59   N15   1.442095 S    
C141  H79   1.110270 S    
Zn5   O11   1.964679 S    
Zn3   O39   1.922295 S    
Zn6   O12   1.964679 S    
N2    O64   1.301760 A    
C11   C101  1.425453 S    
C124  H36   1.109359 S    
C47   C96   1.487235 S    
C85   C93   1.422822 A    
C59   C67   1.408971 A    
C45   C94   1.476322 S    
O32   C22   1.275789 A    
O59   C125  1.410400 S    
C116  H17   1.110544 S    
C123  H34   1.112500 S    
C49   C98   1.482282 S    
C118  H21   1.109011 S    
C17   C109  1.424675 S    
C32   C40   1.397765 A    
N10   O79   1.301481 A    
C81   C89   1.411161 A    
C79   O111  1.390571 S    
C131  H54   1.110611 S    
C19   C111  1.424335 S    
C121  C122  1.520568 S    
C79   C87   1.413580 A    
C120  H26   1.101656 S    
O5    C1    1.272703 A    
C141  C142  1.517975 S    
C35   N7    1.447764 S    
C121  H30   1.115241 S    
O57   C121  1.413177 S    
Zn4   O6    1.966444 S    
C31   N3    1.446175 S    
C114  H13   1.109883 S    
Zn15  O51   1.960879 S    
C38   C46   1.400276 A    
N13   O85   1.300933 A    
C137  H70   1.108589 S    
N5    O70   1.300735 A    
C139  C140  1.522128 S    
C42   C50   1.399011 A    
C88   C96   1.414277 A    
O51   C7    1.275435 A    
O29   C21   1.277136 A    
O8    C4    1.280093 A    
C29   N1    1.435074 S    
C103  C108  1.200661 T    
C41   C49   1.395514 A    
O53   C113  1.413706 S    
C92   C100  1.422294 A    
C127  H44   1.111618 S    
C118  H22   1.110030 S    
C128  H48   1.110358 S    
C66   N18   1.443056 S    
C78   C86   1.406907 A    
C80   O112  1.383968 S    
Zn14  O18   1.917066 S    
N4    O67   1.300600 A    
O52   C8    1.274132 A    
Zn1   O1    1.941073 S    
O40   C12   1.281312 A    
C126  H43   1.109421 S    
Zn15  O27   1.916989 S    
C68   C76   1.411638 A    
Zn16  O20   1.915188 S    
Zn2   O8    1.964679 S    
C62   C70   1.416859 A    
C122  H32   1.110337 S    
C91   C99   1.420809 A    
O9    C5    1.278243 A    
C21   C25   1.422784 S    
O54   C115  1.414147 S    
C124  H38   1.108619 S    
C142  H82   1.108277 S    
C55   C63   1.412288 A    
C23   C27   1.422829 S    
O13   C9    1.281608 A    
N11   O81   1.301219 A    
C129  H50   1.106454 S    
O18   C14   1.278666 A    
O6    C2    1.273214 A    
C140  H77   1.110334 S    
C127  C128  1.518983 S    
C143  H84   1.112756 S    
C1    C88   1.476520 S    
C39   C47   1.396440 A    
C2    C87   1.479103 S    
Zn13  O25   1.916413 S    
C136  H66   1.110604 S    
C41   H5    1.083447 S    
O56   C119  1.416507 S    
C120  H28   1.108134 S    
Zn15  O3    1.948124 S    
C138  H72   1.110312 S    
C125  C126  1.523121 S    
O112  C135  1.414946 S    
C10   C104  1.427401 S    
C61   C69   1.415747 A    
C58   N14   1.433630 S    
C52   C60   1.414529 A    
C117  H20   1.110968 S    
N11   O82   1.301274 A    
C33   C41   1.396978 A    
C118  H23   1.110530 S    
C35   C43   1.407057 A    
C130  H51   1.110544 S    
C139  H74   1.110721 S    
C113  C114  1.520944 S    
O35   C23   1.275612 A    
O33   C23   1.277198 A    
C134  H62   1.106795 S    
C87   C95   1.416842 A    
C35   C75   1.424104 A    
N24   O107  1.301280 A    
Zn10  O46   1.958584 S    
N16   O92   1.300924 A    
C132  H57   1.105204 S    
C22   C26   1.423060 S    
N20   O100  1.301040 A    
N17   O94   1.301507 A    
Zn13  O3    1.949252 S    
N19   O97   1.301907 A    
Zn14  O4    1.949253 S    
Zn2   O38   1.921169 S    
N15   O89   1.300856 A    
O19   C15   1.278031 A    
Zn1   O31   1.913384 S    
Zn13  O49   1.958584 S    
C135  C136  1.518194 S    
Zn2   O32   1.913384 S    
O111  C133  1.413973 S    
C77   C98   1.401691 A    
Zn3   O29   1.916966 S    
C32   C72   1.411807 A    
C12   C102  1.425763 S    
O37   C9    1.280828 A    
O7    C3    1.282587 A    
C81   C94   1.402513 A    
C58   C66   1.417063 A    
O39   C11   1.277906 A    
C143  C144  1.520751 S    
C86   C94   1.421022 A    
C46   C93   1.490016 S    
C63   C71   1.416514 A    
C8    C89   1.475632 S    
C135  H65   1.113701 S    
C50   C97   1.497055 S    
C34   C74   1.412424 A    
C18   C110  1.424080 S    
C34   C42   1.399425 A    
O12   C8    1.278502 A    
C136  H68   1.108035 S    
C82   C90   1.407476 A    
C144  H86   1.110625 S    
C33   N5    1.436971 S    
C125  H39   1.103805 S    
Zn11  O1    1.948124 S    
C113  H10   1.108635 S    
C47   C55   1.411838 A    
C117  H19   1.112819 S    
C45   C53   1.413355 A    
O30   C22   1.277198 A    
C56   C64   1.420376 A    
C31   C39   1.401918 A    
C57   C65   1.414144 A    
Zn7   O9    1.966444 S    
Zn5   O41   1.921169 S    
C40   H4    1.083456 S    
C111  C112  1.199476 T    
C60   C68   1.416457 A    
Zn8   O44   1.922295 S    
N21   O101  1.301638 A    
C48   C95   1.487835 S    
C84   C95   1.397897 A    
C7    C90   1.479944 S    
C68   N20   1.439001 S    
C54   N10   1.440732 S    
O109  C129  1.416455 S    
C141  H80   1.110460 S    
C44   C52   1.399860 A    
C102  C105  1.200273 T    
C81   O113  1.391696 S    
N23   O105  1.301379 A    
N6    O71   1.301969 A    
O38   C10   1.286238 A    
C25   C26   1.198639 T    
C3    C86   1.488052 S    
Zn2   O2    1.941073 S    
C116  H16   1.108956 S    
C27   C28   1.198636 T    
C72   O56   1.381963 S    
C64   C72   1.415762 A    
C30   N2    1.447028 S    
C65   C73   1.419225 A    
Zn4   O30   1.916966 S    
O55   C117  1.410416 S    
C15   C105  1.425304 S    
Zn8   O4    1.934004 S    
C74   O58   1.381424 S    
C38   H2    1.082461 S    
O21   C17   1.281578 A    
N14   O87   1.300909 A    
N10   O80   1.299301 A    
N12   O83   1.300955 A    
C131  H55   1.117612 S    
C89   C97   1.420719 A    
N22   O104  1.301751 A    
O49   C5    1.274240 A    
C123  C124  1.518937 S    
Zn1   O37   1.921169 S    
O10   C6    1.279834 A    
C56   N12   1.435577 S    
C114  H12   1.106821 S    
C53   N9    1.439163 S    
C115  H14   1.108561 S    
Zn16  O52   1.960879 S    
N5    O69   1.301642 A    
N8    O76   1.300709 A    
C104  C107  1.201192 T    
Zn9   O13   1.917066 S    
Zn14  O26   1.916413 S    
C144  H88   1.109750 S    
Zn11  O15   1.915188 S    
C34   N6    1.444835 S    
Zn12  O16   1.915188 S    
O31   C21   1.275657 A    
C137  H69   1.110631 S    
C73   O57   1.381565 S    
Zn15  O19   1.915188 S    
C60   N16   1.438060 S    
C75   O59   1.387469 S    
C127  H45   1.114781 S    
C128  H47   1.108038 S    
Zn7   O33   1.916966 S    
N1    O62   1.301774 A    
C119  H24   1.116357 S    
C83   O115  1.384705 S    
N4    O68   1.296408 A    
C30   C70   1.419498 A    
N18   O96   1.301489 A    
C126  H42   1.110247 S    
C49   C57   1.414700 A    
N2    O63   1.300588 A    
C115  C116  1.518632 S    
Zn9   O21   1.916413 S    
C122  H31   1.110525 S    
C130  H52   1.103093 S    
C37   C45   1.395809 A    
Zn11  O23   1.916989 S    
C124  H37   1.110296 S    
C39   H3    1.083291 S    
C142  H81   1.103635 S    
Zn9   O1    1.949252 S    
N18   O95   1.300173 A    
C32   N4    1.440205 S    
Zn1   O7    1.964679 S    
N9    O78   1.301348 A    
C43   C51   1.398851 A    
C130  H53   1.098662 S    
O41   C13   1.279268 A    
Zn3   O5    1.966444 S    
C78   O110  1.386748 S    
O26   C20   1.283276 A    
C13   C107  1.426276 S    
C82   O114  1.384781 S    
N3    O65   1.300829 A    
C140  H76   1.109792 S    
O45   C1    1.276164 A    
N7    O74   1.299769 A    
O34   C24   1.277175 A    
C143  H85   1.115009 S    
C78   C97   1.405368 A    
C64   N24   1.447858 S    
N6    O72   1.301434 A    
C119  C120  1.517978 S    
C84   O116  1.385290 S    
C62   N22   1.441002 S    
C82   C93   1.403835 A    
O15   C11   1.279303 A    
C120  H27   1.109821 S    
C138  H71   1.106280 S    
O27   C19   1.283477 A    
C70   O54   1.384083 S    
N19   O98   1.294141 A    
O28   C20   1.283532 A    
O115  C141  1.411438 S    
O44   C16   1.282147 A    
C117  C118  1.521235 S    
O20   C16   1.275133 A    
C33   C73   1.413391 A    
N13   O86   1.301355 A    
O48   C4    1.275101 A    
C121  H29   1.109455 S    
C51   C59   1.407362 A    
C139  H75   1.117036 S    
O36   C24   1.275784 A    
O14   C10   1.276400 A    
C20   C112  1.424457 S    
C80   C88   1.413192 A    
Zn12  O2    1.948122 S    
C134  H61   1.110698 S    
N9    O77   1.300379 A    
O17   C13   1.283166 A    
C46   C54   1.413326 A    
