data_mof_unit_33101.cif
_audit_creation_date              2012-12-10T20:45:30-0500
_audit_creation_method            fapswitch 2.2
_symmetry_space_group_name_H-M    P1
_symmetry_Int_Tables_number       1
_space_group_crystal_system       triclinic
_cell_length_a                    10.624992
_cell_length_b                    10.694203
_cell_length_c                    9.920272
_cell_angle_alpha                 89.80634
_cell_angle_beta                  89.853948
_cell_angle_gamma                 88.557461
_cell_volume                      1126.83195619

loop_
_atom_site_label
_atom_site_type_symbol
_atom_type_description
_atom_site_fract_x
_atom_site_fract_y
_atom_site_fract_z
_atom_type_partial_charge
C1    C     C_R   0.494866 0.260405 0.499890 0.880041
C2    C     C_R   0.176639 0.991872 0.412493 -0.059571
C3    C     C_R   0.928249 0.612780 0.477643 0.252246
C4    C     C_R   0.872424 0.497710 0.501497 -0.146252
C5    C     C_R   0.943786 0.390189 0.536165 -0.053939
C6    C     C_R   0.072956 0.396350 0.533638 -0.187011
C7    C     C_R   0.128741 0.508356 0.501351 -0.099300
C8    C     C_R   0.058578 0.618837 0.477388 -0.082934
C9    C     C_R   0.911629 0.224739 0.708872 -0.163390
C10   C     C_R   0.870503 0.106516 0.745895 -0.170647
C11   C     C_R   0.807223 0.033884 0.652623 -0.092619
C12   C     C_R   0.260854 0.507232 0.500194 0.880626
C13   C     C_R   0.783288 0.080140 0.522969 -0.079427
C14   C     C_R   0.822983 0.198833 0.485864 -0.165628
C15   C     C_R   0.888144 0.271405 0.578506 0.112630
C16   C     C_R   0.439000 0.065248 0.612559 0.104519
C17   C     C_R   0.473905 0.129753 0.496821 -0.103902
C18   C     C_R   0.484785 0.065607 0.373884 -0.233408
C19   C     C_R   0.487357 0.936563 0.374198 -0.194533
C20   C     C_R   0.477798 0.872224 0.497117 -0.088394
C21   C     C_R   0.441326 0.937550 0.612757 0.120320
C22   C     C_3   0.483959 0.930050 0.755885 -0.472212
C23   C     C_R   0.496057 0.740037 0.499700 0.938812
C24   C     C_3   0.480924 0.072309 0.755815 -0.456771
C25   C     C_R   0.424079 0.421660 0.071568 0.131343
C26   C     C_R   0.581835 0.570517 0.070483 0.227633
C27   C     C_R   0.586159 0.565650 0.926656 0.171779
C28   C     C_R   0.423303 0.422669 0.929511 0.101649
C29   C     C_3   0.283337 0.421393 0.923620 -0.518465
C30   C     C_3   0.283654 0.420822 0.076895 0.102153
C31   C     C_R   0.739610 0.494309 0.500232 0.948045
C32   C     C_R   0.143230 0.952793 0.541891 -0.130156
C33   C     C_R   0.114670 0.827820 0.565519 -0.126208
C34   C     C_R   0.117429 0.741572 0.458939 0.115943
C35   C     C_R   0.154129 0.780596 0.329860 -0.107620
C36   C     C_R   0.183905 0.905566 0.306951 -0.109961
H1    H     H_    0.198019 0.088853 0.394556 0.174273
H2    H     H_    0.777451 0.941562 0.680856 0.159603
H3    H     H_    0.735261 0.023579 0.450423 0.191787
H4    H     H_    0.806108 0.232590 0.384281 0.146210
H5    H     H_    0.501964 0.113581 0.279515 0.202789
H6    H     H_    0.505015 0.888470 0.279939 0.211038
H7    H     H_    0.411814 0.889075 0.823040 0.204195
H8    H     H_    0.580117 0.888867 0.766039 0.203315
H9    H     H_    0.406428 0.113303 0.822348 0.212936
H10   H     H_    0.575237 0.113511 0.767069 0.223832
H11   H     H_    0.138207 0.019661 0.623520 0.139816
H12   H     H_    0.241819 0.508981 0.880020 0.191435
H13   H     H_    0.249173 0.333930 0.877612 0.224431
H14   H     H_    0.241304 0.507225 0.121888 0.140122
H15   H     H_    0.084133 0.799526 0.665076 0.131917
H16   H     H_    0.154452 0.715704 0.246274 0.131568
H17   H     H_    0.210567 0.936014 0.206955 0.157091
H18   H     H_    0.130514 0.313622 0.556710 0.142064
H19   H     H_    0.963412 0.279237 0.780900 0.143879
H20   H     H_    0.889286 0.070485 0.846115 0.155173
N1    N     N_R   0.499160 0.499140 0.142800 -0.161295
N2    N     N_R   0.499160 0.499180 0.857150 -0.133222
O1    O     O_R   0.500020 0.316790 0.614690 -0.617429
O2    O     O_R   0.500000 0.316760 0.385350 -0.609806
O3    O     O_R   0.316770 0.500030 0.614670 -0.631901
O4    O     O_R   0.316750 0.499990 0.385330 -0.607133
O5    O     O_R   0.500000 0.683240 0.614650 -0.614295
O6    O     O_R   0.499980 0.683210 0.385310 -0.583424
O7    O     O_R   0.683250 0.500010 0.614670 -0.593720
O8    O     O_R   0.683230 0.499970 0.385330 -0.558441
Zn1   Zn    Zn3+2 0.500010 0.500020 0.653130 0.962739
Zn2   Zn    Zn3+2 0.499990 0.499980 0.346870 1.004719
Br1   Br    Br    0.686179 0.687024 0.159720 -0.495802
N3    N     N_2   0.679042 0.631636 0.853984 -0.240594
H21   H     H_    0.679873 0.725586 0.876130 0.226309
C37   C     C_3   0.804301 0.574566 0.858658 -0.677159
H22   H     H_    0.847251 0.585672 0.959511 0.246857
H23   H     H_    0.865330 0.620530 0.783258 0.229510
H24   H     H_    0.801424 0.473161 0.835178 0.242244
Br2   Br    Br    0.223939 0.266291 0.154110 -0.580943
Br3   Br    Br    0.826428 0.763151 0.456279 -0.540083

loop_
_geom_bond_atom_site_label_1
_geom_bond_atom_site_label_2
_ccdc_geom_bond_type
C31   O8    A    
O8    Zn2   S    
C16   C21   A    
C35   C36   A    
C7    C8    A    
C29   H13   S    
C25   C28   A    
C26   C27   A    
C24   H9    S    
O6    Zn2   S    
C28   C29   S    
C34   C35   A    
C1    O1    A    
C5    C6    A    
C12   O4    A    
C2    C32   A    
C18   C19   A    
C36   H17   S    
O1    Zn1   S    
C22   H8    S    
C19   C20   A    
C16   C17   A    
O7    Zn1   S    
N3    H21   S    
C9    H19   S    
C10   H20   S    
C9    C10   A    
C19   H6    S    
C23   O5    A    
C30   H14   S    
C16   C24   S    
C21   C22   S    
C25   N1    A    
C6    H18   S    
C37   H24   S    
C33   C34   A    
C7    C12   S    
O5    Zn1   S    
C13   H3    S    
C29   H12   S    
C37   H23   S    
C3    C8    A    
C18   H5    S    
C37   H22   S    
C11   H2    S    
C29   C30   S    
C30   Br2   S    
O3    Zn1   S    
C22   H7    S    
C20   C23   S    
C17   C18   A    
C8    C34   S    
C27   N3    S    
C23   O6    A    
C32   H11   S    
C22   C24   S    
C1    O2    A    
N1    Zn2   S    
C3    C4    A    
C3    Br3   S    
C2    C36   A    
C25   C30   S    
C31   O7    A    
C4    C5    A    
C27   N2    A    
C6    C7    A    
C28   N2    A    
C33   H15   S    
C1    C17   S    
O4    Zn2   S    
C24   H10   S    
C32   C33   A    
C9    C15   A    
C12   O3    A    
C11   C13   A    
C2    H1    S    
C26   N1    A    
C5    C15   S    
C4    C31   S    
C10   C11   A    
C14   H4    S    
N2    Zn1   S    
C20   C21   A    
O2    Zn2   S    
C35   H16   S    
C26   Br1   S    
C14   C15   A    
N3    C37   S    
C13   C14   A    
