data_mof_unit_63571.cif
_audit_creation_date              2012-10-26T18:01:31-0400
_audit_creation_method            fapswitch 2.2
_symmetry_space_group_name_H-M    P1
_symmetry_Int_Tables_number       1
_space_group_crystal_system       triclinic
_cell_length_a                    30.795853
_cell_length_b                    30.653963
_cell_length_c                    24.680792
_cell_angle_alpha                 89.999974
_cell_angle_beta                  128.09963
_cell_angle_gamma                 90.0
_cell_volume                      18334.9205118

loop_
_atom_site_label
_atom_site_type_symbol
_atom_type_description
_atom_site_fract_x
_atom_site_fract_y
_atom_site_fract_z
_atom_type_partial_charge
C1    C     C_R   0.809012 0.809468 0.499550 0.561885
C2    C     C_R   0.535125 0.749369 0.069915 0.339708
C3    C     C_R   0.908377 0.092905 0.501023 0.020994
C4    C     C_R   0.648600 0.590127 0.540209 0.016270
C5    C     C_R   0.351402 0.590115 0.459817 0.016261
C6    C     C_R   0.148598 0.090114 0.540180 0.016260
C7    C     C_R   0.851403 0.090110 0.459829 0.016257
C8    C     C_3   0.696990 0.562739 0.592376 -0.270790
C9    C     C_3   0.303015 0.562712 0.407686 -0.270804
C10   C     C_3   0.196984 0.062709 0.592306 -0.270806
C11   C     C_3   0.803017 0.062700 0.407715 -0.270811
C12   C     C_3   0.732426 0.597716 0.591269 -0.265948
C13   C     C_R   0.964874 0.249369 0.930085 0.339708
C14   C     C_3   0.267579 0.597689 0.408793 -0.265929
C15   C     C_3   0.232419 0.097686 0.591199 -0.265927
C16   C     C_3   0.767582 0.097676 0.408822 -0.265920
C17   C     C_R   0.440617 0.559392 0.500178 0.553103
C18   C     C_R   0.559383 0.559392 0.499822 0.553104
C19   C     C_R   0.940617 0.059391 0.500178 0.553101
C20   C     C_R   0.059383 0.059391 0.499822 0.553101
C21   C     C_R   0.940543 0.940569 0.500233 0.552308
C22   C     C_R   0.059457 0.940569 0.499767 0.552310
C23   C     C_R   0.440543 0.440569 0.500233 0.552310
C24   C     C_R   0.035125 0.249369 0.069915 0.339708
C25   C     C_R   0.559457 0.440569 0.499767 0.552313
C26   C     C_R   0.816237 0.750097 0.632599 0.544721
C27   C     C_R   0.183763 0.750097 0.367401 0.544724
C28   C     C_R   0.316237 0.250097 0.632599 0.544724
C29   C     C_R   0.683763 0.250097 0.367401 0.544725
C30   C     C_R   0.607367 0.783590 0.254521 -0.149529
C31   C     C_R   0.392633 0.783590 0.745479 -0.149528
C32   C     C_R   0.107366 0.283590 0.254521 -0.149528
C33   C     C_R   0.892633 0.283590 0.745479 -0.149528
C34   C     C_R   0.572029 0.783799 0.182605 -0.128243
C35   C     C_R   0.898274 0.844584 0.550880 -0.025125
C36   C     C_R   0.427971 0.783799 0.817395 -0.128242
C37   C     C_R   0.072029 0.283800 0.182605 -0.128243
C38   C     C_R   0.927971 0.283800 0.817395 -0.128242
C39   C     C_R   0.573113 0.749412 0.145908 0.033524
C40   C     C_R   0.426887 0.749412 0.854092 0.033525
C41   C     C_R   0.073113 0.249412 0.145908 0.033524
C42   C     C_R   0.926887 0.249412 0.854092 0.033524
C43   C     C_R   0.610630 0.715049 0.182420 -0.118828
C44   C     C_R   0.389370 0.715049 0.817580 -0.118828
C45   C     C_R   0.110630 0.215049 0.182420 -0.118827
C46   C     C_R   0.101725 0.844583 0.449122 -0.025124
C47   C     C_R   0.889370 0.215049 0.817580 -0.118828
C48   C     C_R   0.646975 0.715389 0.254391 -0.130974
C49   C     C_R   0.353025 0.715389 0.745609 -0.130973
C50   C     C_R   0.146975 0.215389 0.254391 -0.130972
C51   C     C_R   0.853024 0.215389 0.745609 -0.130973
C52   C     C_3   0.738914 0.852856 0.347761 0.022808
C53   C     C_3   0.736143 0.875851 0.290617 -0.282400
C54   C     C_3   0.708038 0.847114 0.226669 -0.470589
C55   C     C_3   0.261088 0.852859 0.652237 0.022808
C56   C     C_3   0.263860 0.875856 0.709382 -0.282402
C57   C     C_R   0.398275 0.344584 0.550879 -0.025124
C58   C     C_3   0.291967 0.847120 0.773332 -0.470589
C59   C     C_3   0.238912 0.352858 0.347762 0.022809
C60   C     C_3   0.236141 0.375854 0.290618 -0.282401
C61   C     C_3   0.208035 0.347118 0.226669 -0.470588
C62   C     C_3   0.761086 0.352856 0.652239 0.022807
C63   C     C_3   0.763854 0.375849 0.709382 -0.282403
C64   C     C_3   0.791960 0.347112 0.773330 -0.470589
C65   C     C_R   0.601725 0.344584 0.449120 -0.025124
C66   C     C_R   0.841376 0.843448 0.498979 0.012150
C67   C     C_R   0.158624 0.843448 0.501020 0.012148
C68   C     C_R   0.341376 0.343448 0.498979 0.012149
C69   C     C_R   0.190988 0.809468 0.500450 0.561883
C70   C     C_R   0.658624 0.343448 0.501021 0.012149
C71   C     C_R   0.815745 0.878281 0.451176 0.245008
C72   C     C_R   0.184254 0.878282 0.548822 0.245008
C73   C     C_R   0.315745 0.378282 0.451177 0.245008
C74   C     C_R   0.684254 0.378281 0.548824 0.245009
C75   C     C_R   0.848539 0.910927 0.452974 -0.132960
C76   C     C_R   0.151461 0.910928 0.547024 -0.132957
C77   C     C_R   0.348539 0.410928 0.452975 -0.132957
C78   C     C_R   0.651461 0.410927 0.547026 -0.132951
C79   C     C_R   0.906270 0.908793 0.501237 -0.032752
C80   C     C_R   0.309012 0.309468 0.499550 0.561884
C81   C     C_R   0.093729 0.908793 0.498763 -0.032751
C82   C     C_R   0.406270 0.408793 0.501237 -0.032751
C83   C     C_R   0.593730 0.408793 0.498763 -0.032751
C84   C     C_R   0.930147 0.876944 0.552408 0.018594
C85   C     C_R   0.069852 0.876943 0.447594 0.018594
C86   C     C_R   0.430147 0.376943 0.552407 0.018594
C87   C     C_R   0.569853 0.376944 0.447592 0.018594
C88   C     C_3   0.976102 0.846073 0.575433 -0.266855
C89   C     C_3   0.023898 0.846071 0.424572 -0.266855
C90   C     C_3   0.476102 0.346071 0.575429 -0.266856
C91   C     C_R   0.690987 0.309468 0.500450 0.561883
C92   C     C_3   0.523897 0.346073 0.424568 -0.266855
C93   C     C_3   0.940925 0.810417 0.573577 -0.270345
C94   C     C_3   0.059075 0.810416 0.426428 -0.270343
C95   C     C_3   0.440925 0.310416 0.573574 -0.270344
C96   C     C_3   0.559074 0.310417 0.426423 -0.270345
C97   C     C_R   0.683669 0.749854 0.367345 0.533216
C98   C     C_R   0.316331 0.749854 0.632655 0.533219
C99   C     C_R   0.183669 0.249854 0.367345 0.533219
C100  C     C_R   0.816331 0.249854 0.632655 0.533220
C101  C     C_R   0.836550 0.765906 0.745644 -0.130318
C102  C     C_R   0.645601 0.749609 0.291196 0.005880
C103  C     C_R   0.163450 0.765907 0.254356 -0.130315
C104  C     C_R   0.336550 0.265907 0.745644 -0.130315
C105  C     C_R   0.663450 0.265907 0.254356 -0.130314
C106  C     C_R   0.872392 0.765753 0.817609 -0.117871
C107  C     C_R   0.127608 0.765754 0.182391 -0.117869
C108  C     C_R   0.372392 0.265754 0.817609 -0.117869
C109  C     C_R   0.627608 0.265754 0.182391 -0.117869
C110  C     C_R   0.926937 0.750892 0.853904 0.033615
C111  C     C_R   0.073063 0.750892 0.146096 0.033615
C112  C     C_R   0.426937 0.250892 0.853904 0.033615
C113  C     C_R   0.354399 0.749609 0.708804 0.005882
C114  C     C_R   0.573063 0.250892 0.146096 0.033615
C115  C     C_R   0.944760 0.735819 0.816792 -0.119374
C116  C     C_R   0.055239 0.735819 0.183208 -0.119374
C117  C     C_R   0.444760 0.235819 0.816792 -0.119374
C118  C     C_R   0.555239 0.235819 0.183208 -0.119374
C119  C     C_R   0.908602 0.735191 0.744856 -0.132831
C120  C     C_R   0.091397 0.735191 0.255144 -0.132831
C121  C     C_R   0.408602 0.235191 0.744856 -0.132831
C122  C     C_R   0.591397 0.235191 0.255144 -0.132831
C123  C     C_R   0.854237 0.750404 0.708612 0.016344
C124  C     C_R   0.145601 0.249609 0.291196 0.005882
C125  C     C_R   0.145763 0.750404 0.291387 0.016346
C126  C     C_R   0.354237 0.250404 0.708612 0.016346
C127  C     C_R   0.645763 0.250404 0.291387 0.016347
C128  C     C_R   0.034994 0.751036 0.069971 0.342241
C129  C     C_R   0.965006 0.751036 0.930029 0.342241
C130  C     C_R   0.534994 0.251036 0.069971 0.342241
C131  C     C_R   0.465006 0.251036 0.930029 0.342241
C132  C     C_R   0.679517 0.620504 0.538732 0.016696
C133  C     C_R   0.320486 0.620493 0.461295 0.016703
C134  C     C_R   0.179514 0.120492 0.538702 0.016704
C135  C     C_R   0.854399 0.249609 0.708804 0.005882
C136  C     C_R   0.820487 0.120488 0.461307 0.016706
C137  C     C_R   0.656629 0.657585 0.498181 0.019098
C138  C     C_R   0.343372 0.657585 0.501819 0.019087
C139  C     C_R   0.156628 0.157585 0.498181 0.019086
C140  C     C_R   0.843372 0.157585 0.501819 0.019081
C141  C     C_R   0.598718 0.662181 0.455950 -0.150710
C142  C     C_R   0.401280 0.662192 0.544022 -0.150709
C143  C     C_R   0.098720 0.162193 0.455982 -0.150710
C144  C     C_R   0.901279 0.162197 0.544009 -0.150709
C145  C     C_R   0.690621 0.690635 0.499794 0.553501
C146  C     C_R   0.464874 0.749369 0.930085 0.339708
C147  C     C_R   0.309380 0.690635 0.500206 0.553503
C148  C     C_R   0.190620 0.190635 0.499794 0.553504
C149  C     C_R   0.809380 0.190635 0.500206 0.553503
C150  C     C_R   0.566226 0.629547 0.455463 -0.152143
C151  C     C_R   0.433773 0.629558 0.544509 -0.152143
C152  C     C_R   0.066227 0.129560 0.455494 -0.152146
C153  C     C_R   0.933772 0.129564 0.544496 -0.152145
C154  C     C_R   0.591623 0.592905 0.498976 0.020976
C155  C     C_R   0.408377 0.592905 0.501023 0.020989
C156  C     C_R   0.091623 0.092905 0.498977 0.020989
Cu1   Cu    Cu3+1 0.780910 0.719090 0.500000 0.915794
Cu2   Cu    Cu3+1 0.534240 0.500000 0.568430 0.932148
Cu3   Cu    Cu3+1 0.965760 1.000000 0.431570 0.932156
Cu4   Cu    Cu3+1 0.034240 1.000000 0.568430 0.932155
Cu5   Cu    Cu3+1 0.219090 0.719090 0.500000 0.915788
Cu6   Cu    Cu3+1 0.280910 0.219090 0.500000 0.915787
Cu7   Cu    Cu3+1 0.719090 0.219090 0.500000 0.915785
Cu8   Cu    Cu3+1 0.719070 0.780890 0.500010 0.961425
Cu9   Cu    Cu3+1 0.280930 0.780890 0.499990 0.961424
Cu10  Cu    Cu3+1 0.219070 0.280890 0.500010 0.961422
Cu11  Cu    Cu3+1 0.780930 0.280890 0.499990 0.961424
Cu12  Cu    Cu3+1 0.465760 0.500000 0.431570 0.932150
H1    H     H_    0.605142 0.810339 0.281380 0.130682
H2    H     H_    0.205214 0.777680 0.281020 0.131259
H3    H     H_    0.787325 0.406824 0.723315 0.178672
H4    H     H_    0.721448 0.383677 0.690792 0.156782
H5    H     H_    0.769112 0.315938 0.760602 0.153871
H6    H     H_    0.792653 0.364300 0.813455 0.155848
H7    H     H_    0.835126 0.339964 0.794314 0.164322
H8    H     H_    0.294786 0.277680 0.718980 0.131260
H9    H     H_    0.705214 0.277680 0.281020 0.131260
H10   H     H_    0.857575 0.777730 0.844831 0.135693
H11   H     H_    0.142425 0.777730 0.155169 0.135693
H12   H     H_    0.357575 0.277730 0.844831 0.135693
H13   H     H_    0.642425 0.277730 0.155169 0.135693
H14   H     H_    0.986491 0.724003 0.843365 0.134020
H15   H     H_    0.013509 0.724003 0.156635 0.134020
H16   H     H_    0.486491 0.224003 0.843365 0.134021
H17   H     H_    0.394858 0.810339 0.718620 0.130680
H18   H     H_    0.513509 0.224003 0.156635 0.134021
H19   H     H_    0.923392 0.723251 0.717577 0.127117
H20   H     H_    0.076608 0.723251 0.282423 0.127117
H21   H     H_    0.423392 0.223251 0.717577 0.127117
H22   H     H_    0.576608 0.223251 0.282423 0.127117
H23   H     H_    0.578736 0.690459 0.423024 0.132041
H24   H     H_    0.421261 0.690479 0.576927 0.132053
H25   H     H_    0.078739 0.190481 0.423079 0.132055
H26   H     H_    0.921260 0.190488 0.576904 0.132060
H27   H     H_    0.521789 0.633267 0.422308 0.129112
H28   H     H_    0.105142 0.310339 0.281380 0.130680
H29   H     H_    0.478208 0.633287 0.577643 0.129096
H30   H     H_    0.021792 0.133289 0.422363 0.129094
H31   H     H_    0.978207 0.133297 0.577620 0.129088
H32   H     H_    0.703423 0.561229 0.641877 0.146589
H33   H     H_    0.296562 0.561187 0.358173 0.146584
H34   H     H_    0.203439 0.061182 0.641821 0.146584
H35   H     H_    0.796555 0.061168 0.358196 0.146583
H36   H     H_    0.696834 0.530755 0.571019 0.141417
H37   H     H_    0.303192 0.530734 0.429073 0.141420
H38   H     H_    0.196804 0.030731 0.570915 0.141421
H39   H     H_    0.894858 0.310339 0.718620 0.130682
H40   H     H_    0.803205 0.030724 0.429117 0.141422
H41   H     H_    0.759028 0.616580 0.639989 0.139543
H42   H     H_    0.240958 0.616539 0.360061 0.139547
H43   H     H_    0.259043 0.116534 0.639932 0.139547
H44   H     H_    0.740951 0.116520 0.360085 0.139549
H45   H     H_    0.543257 0.810559 0.155672 0.133779
H46   H     H_    0.456743 0.810559 0.844327 0.133778
H47   H     H_    0.043257 0.310559 0.155673 0.133778
H48   H     H_    0.956743 0.310559 0.844327 0.133779
H49   H     H_    0.753063 0.585840 0.569743 0.151684
H50   H     H_    0.958456 0.797312 0.625379 0.142366
H51   H     H_    0.246964 0.585819 0.430350 0.151684
H52   H     H_    0.253032 0.085817 0.569639 0.151684
H53   H     H_    0.746977 0.085810 0.430394 0.151684
H54   H     H_    0.612398 0.688214 0.155290 0.133515
H55   H     H_    0.387602 0.688214 0.844710 0.133515
H56   H     H_    0.112398 0.188214 0.155290 0.133515
H57   H     H_    0.887602 0.188214 0.844710 0.133515
H58   H     H_    0.675764 0.688631 0.281198 0.133397
H59   H     H_    0.324236 0.688631 0.718802 0.133396
H60   H     H_    0.175764 0.188631 0.281198 0.133396
H61   H     H_    0.041543 0.797310 0.374626 0.142366
H62   H     H_    0.824236 0.188631 0.718802 0.133396
H63   H     H_    0.828958 0.937166 0.415620 0.133329
H64   H     H_    0.171042 0.937167 0.584377 0.133328
H65   H     H_    0.328958 0.437167 0.415622 0.133329
H66   H     H_    0.671042 0.437166 0.584380 0.133331
H67   H     H_    0.982808 0.841702 0.536357 0.122340
H68   H     H_    0.017194 0.841701 0.463649 0.122339
H69   H     H_    0.482807 0.341701 0.536352 0.122339
H70   H     H_    0.517192 0.341702 0.463643 0.122339
H71   H     H_    0.013874 0.853556 0.628310 0.147002
H72   H     H_    0.458457 0.297311 0.625376 0.142366
H73   H     H_    0.986125 0.853553 0.371695 0.147001
H74   H     H_    0.513875 0.353554 0.628306 0.147001
H75   H     H_    0.486125 0.353555 0.371690 0.147002
H76   H     H_    0.927151 0.785361 0.533322 0.146733
H77   H     H_    0.072851 0.785360 0.466684 0.146733
H78   H     H_    0.427149 0.285360 0.533318 0.146733
H79   H     H_    0.572849 0.285361 0.466678 0.146733
H80   H     H_    0.696497 0.843336 0.327020 0.162198
H81   H     H_    0.763003 0.821960 0.362753 0.114458
H82   H     H_    0.712672 0.906825 0.276685 0.178673
H83   H     H_    0.541543 0.297312 0.374621 0.142366
H84   H     H_    0.778550 0.883680 0.309206 0.156784
H85   H     H_    0.730889 0.815941 0.239397 0.153871
H86   H     H_    0.707343 0.864303 0.186543 0.155848
H87   H     H_    0.664873 0.839964 0.205686 0.164322
H88   H     H_    0.303505 0.843338 0.672977 0.162198
H89   H     H_    0.236999 0.821963 0.637248 0.114455
H90   H     H_    0.287332 0.906830 0.723311 0.178673
H91   H     H_    0.221455 0.883685 0.690794 0.156784
H92   H     H_    0.269118 0.815947 0.760606 0.153871
H93   H     H_    0.292664 0.864310 0.813457 0.155849
H94   H     H_    0.794786 0.777679 0.718980 0.131259
H95   H     H_    0.335132 0.839970 0.794312 0.164320
H96   H     H_    0.196495 0.343338 0.327022 0.162197
H97   H     H_    0.263002 0.321962 0.362752 0.114456
H98   H     H_    0.212669 0.406828 0.276687 0.178672
H99   H     H_    0.278547 0.383684 0.309206 0.156783
H100  H     H_    0.230884 0.315945 0.239395 0.153871
H101  H     H_    0.207339 0.364308 0.186543 0.155848
H102  H     H_    0.164869 0.339968 0.205687 0.164321
H103  H     H_    0.803504 0.343336 0.672981 0.162198
H104  H     H_    0.736998 0.321959 0.637247 0.114459
N1    N     N_R   0.517345 0.711246 0.034291 -0.226311
N2    N     N_R   0.979484 0.750959 0.034819 -0.229751
N3    N     N_R   0.520516 0.250959 0.965181 -0.229751
N4    N     N_R   0.479484 0.250959 0.034819 -0.229751
N5    N     N_R   0.054813 0.751139 0.033757 -0.230029
N6    N     N_R   0.945187 0.751139 0.966243 -0.230030
N7    N     N_R   0.554813 0.251140 0.033757 -0.230029
N8    N     N_R   0.445187 0.251140 0.966243 -0.230029
N9    N     N_R   0.482655 0.711246 0.965709 -0.226311
N10   N     N_R   0.017345 0.211246 0.034291 -0.226311
N11   N     N_R   0.982655 0.211246 0.965709 -0.226311
N12   N     N_R   0.482901 0.787485 0.965712 -0.234489
N13   N     N_R   0.517099 0.787485 0.034288 -0.234489
N14   N     N_R   0.982901 0.287485 0.965712 -0.234488
N15   N     N_R   0.017098 0.287485 0.034288 -0.234488
N16   N     N_R   0.020515 0.750959 0.965180 -0.229751
O1    O     O_R   0.821190 0.768980 0.500000 -0.528051
O2    O     O_R   0.074010 0.954920 0.557790 -0.521036
O3    O     O_R   0.425990 0.454920 0.442210 -0.521036
O4    O     O_R   0.574010 0.454920 0.557790 -0.521038
O5    O     O_R   0.983760 0.954940 0.557800 -0.497985
O6    O     O_R   0.016240 0.954940 0.442200 -0.497984
O7    O     O_R   0.483760 0.454940 0.557800 -0.497984
O8    O     O_R   0.516240 0.454940 0.442200 -0.497982
O9    O     O_R   0.768960 0.821170 0.500020 -0.467669
O10   O     O_R   0.231040 0.821170 0.499980 -0.467666
O11   O     O_R   0.268960 0.321170 0.500020 -0.467668
O12   O     O_R   0.178810 0.768980 0.500000 -0.528050
O13   O     O_R   0.731040 0.321170 0.499980 -0.467667
O14   O     O_R   0.726180 0.723900 0.400140 -0.514450
O15   O     O_R   0.273820 0.723900 0.599860 -0.514450
O16   O     O_R   0.226180 0.223900 0.400140 -0.514450
O17   O     O_R   0.773820 0.223900 0.599860 -0.514451
O18   O     O_R   0.673950 0.776090 0.400160 -0.510353
O19   O     O_R   0.326050 0.776090 0.599840 -0.510353
O20   O     O_R   0.173950 0.276090 0.400160 -0.510353
O21   O     O_R   0.826050 0.276090 0.599840 -0.510351
O22   O     O_R   0.731010 0.678810 0.499990 -0.505751
O23   O     O_R   0.321190 0.268980 0.500000 -0.528050
O24   O     O_R   0.268990 0.678810 0.500010 -0.505753
O25   O     O_R   0.231010 0.178810 0.499990 -0.505754
O26   O     O_R   0.768990 0.178810 0.500010 -0.505754
O27   O     O_R   0.678790 0.731000 0.500010 -0.512486
O28   O     O_R   0.321210 0.731000 0.499990 -0.512491
O29   O     O_R   0.178790 0.231000 0.500010 -0.512492
O30   O     O_R   0.821210 0.231000 0.499990 -0.512493
O31   O     O_R   0.826030 0.723890 0.599860 -0.513998
O32   O     O_R   0.173970 0.723890 0.400140 -0.513998
O33   O     O_R   0.326030 0.223890 0.599860 -0.513998
O34   O     O_R   0.678810 0.268980 0.500000 -0.528051
O35   O     O_R   0.673970 0.223890 0.400140 -0.513998
O36   O     O_R   0.773800 0.776080 0.599870 -0.510011
O37   O     O_R   0.226200 0.776080 0.400130 -0.510010
O38   O     O_R   0.273800 0.276080 0.599870 -0.510010
O39   O     O_R   0.726200 0.276080 0.400130 -0.510010
O40   O     O_R   0.425940 0.545090 0.442170 -0.512229
O41   O     O_R   0.574060 0.545090 0.557830 -0.512232
O42   O     O_R   0.925940 0.045090 0.442170 -0.512229
O43   O     O_R   0.074060 0.045090 0.557830 -0.512230
O44   O     O_3   0.758926 0.881534 0.403610 -0.556929
O45   O     O_R   0.483700 0.545120 0.557760 -0.508685
O46   O     O_3   0.241074 0.881536 0.596387 -0.556928
O47   O     O_3   0.258926 0.381536 0.403612 -0.556928
O48   O     O_3   0.741074 0.381534 0.596391 -0.556928
O49   O     O_R   0.516300 0.545120 0.442240 -0.508690
O50   O     O_R   0.983700 0.045120 0.557760 -0.508683
O51   O     O_R   0.016300 0.045120 0.442240 -0.508685
O52   O     O_R   0.925990 0.954920 0.442210 -0.521036

loop_
_geom_bond_atom_site_label_1
_geom_bond_atom_site_label_2
_ccdc_geom_bond_type
C49   C113  A    
Cu8   O36   S    
C58   H95   S    
C151  H29   S    
C50   H60   S    
Cu2   O4    S    
C32   H28   S    
C17   O45   A    
C118  H18   S    
C90   C95   S    
N10   N11   A    
Cu5   O32   S    
C89   H68   S    
N12   N13   A    
C95   H78   S    
C78   H66   S    
C116  H15   S    
C89   C94   S    
C19   O42   A    
C152  C156  A    
C147  O24   A    
C70   C74   A    
C103  H2    S    
C3    C19   S    
C151  C155  A    
C100  C135  S    
C136  C140  A    
Cu4   O43   S    
C28   O33   A    
C24   N15   A    
C59   C60   S    
C51   H62   S    
C24   C41   S    
C114  C130  S    
Cu7   O26   S    
C52   H80   S    
C13   C42   S    
C65   C87   A    
C73   O47   S    
N5    N16   A    
C8    H36   S    
C43   H54   S    
C86   C90   S    
C148  O29   A    
C59   H97   S    
C120  C125  A    
C35   C66   A    
C132  C137  A    
C5    C155  A    
C88   H71   S    
C34   H45   S    
C58   H92   S    
C142  C151  A    
Cu7   O17   S    
C30   H1    S    
C6    C10   S    
C48   H58   S    
C33   C135  A    
C16   H44   S    
C21   C79   S    
C97   O18   A    
C21   O5    A    
C44   H55   S    
C10   H34   S    
C131  N8    A    
C146  N9    A    
C69   O10   A    
C58   H93   S    
C71   O44   S    
C26   C123  S    
C60   H99   S    
C64   H6    S    
C17   C155  S    
C61   H102  S    
C18   O49   A    
C137  C145  S    
C12   C132  S    
C107  H11   S    
C98   O19   A    
C29   O35   A    
C45   H56   S    
C84   C88   S    
C105  H9    S    
C93   H76   S    
Cu4   O2    S    
C35   C84   A    
C119  C123  A    
C33   C38   A    
Cu7   O35   S    
C74   O48   S    
C63   H4    S    
C45   C50   A    
C112  C131  S    
Cu5   O15   S    
C94   H77   S    
Cu6   O16   S    
Cu10  O38   S    
C25   C83   S    
C73   C77   A    
C31   C36   A    
C103  C107  A    
C96   H83   S    
C67   C69   S    
C75   C79   A    
Cu5   Cu9   S    
C23   C82   S    
C70   C91   S    
C21   O52   A    
C105  C127  A    
C149  O26   A    
C4    C132  A    
C53   C54   S    
C5    C133  A    
C92   H70   S    
C77   C82   A    
C12   H41   S    
C23   O3    A    
C121  H21   S    
C79   C84   A    
C144  H26   S    
C65   C70   A    
C92   C96   S    
C110  C129  S    
C67   C72   A    
C118  C122  A    
C122  C127  A    
C91   O34   A    
Cu11  O39   S    
C36   H46   S    
C139  C143  A    
C145  O22   A    
C69   O12   A    
C76   H64   S    
Cu1   O31   S    
C96   H79   S    
C18   C154  S    
C8    C12   S    
Cu8   O27   S    
C101  H94   S    
C54   H86   S    
C141  C150  A    
C65   C96   S    
C139  C148  S    
Cu1   O22   S    
C30   C34   A    
C34   C39   A    
N4    N8    A    
C50   C124  A    
C17   O40   A    
C134  C139  A    
Cu2   O45   S    
C116  C120  A    
C5    C9    S    
C46   C94   S    
Cu11  O13   S    
C142  H24   S    
C31   H17   S    
C129  N6    A    
C32   C37   A    
Cu1   Cu8   S    
Cu8   O9    S    
C109  C114  A    
C2    N13   A    
C100  O17   A    
C115  C119  A    
C90   H74   S    
C8    H32   S    
C57   C68   A    
C130  N4    A    
C16   C136  S    
C115  H14   S    
C146  N12   A    
C52   C53   S    
C109  H13   S    
C101  C106  A    
C88   H67   S    
C105  C109  A    
C33   H39   S    
Cu3   O42   S    
C41   C45   A    
C52   H81   S    
C107  C111  A    
Cu3   O52   S    
C60   H98   S    
C14   C133  S    
C19   O50   A    
C40   C146  S    
C29   C127  S    
C10   H38   S    
C7    C136  A    
Cu4   O5    S    
C56   C58   S    
C53   H82   S    
C37   C41   A    
C103  C125  A    
C119  H19   S    
C150  H27   S    
C63   C64   S    
C40   C44   A    
C91   O13   A    
C111  C128  S    
C97   O14   A    
Cu12  O40   S    
Cu5   O12   S    
C140  C149  S    
C106  H10   S    
C81   C85   A    
C99   O16   A    
C99   C124  S    
C83   C87   A    
C55   C56   S    
Cu4   O50   S    
Cu1   O14   S    
C117  H16   S    
Cu2   Cu12  S    
C15   C134  S    
C1    O9    A    
C4    C154  A    
C3    C7    A    
C112  C117  A    
C92   H75   S    
C120  H20   S    
C80   O11   A    
Cu6   Cu10  S    
C78   C83   A    
C111  C116  A    
C49   H59   S    
C97   C102  S    
C72   C76   A    
C62   H103  S    
C46   C85   A    
C26   O36   A    
C133  C138  A    
C87   C92   S    
C16   H53   S    
C23   O7    A    
C61   H101  S    
C28   C126  S    
C122  H22   S    
Cu9   O19   S    
Cu10  O20   S    
C27   O32   A    
C25   O4    A    
C22   C81   S    
C104  H8    S    
C138  C142  A    
C20   O51   A    
C85   C89   S    
C13   N11   A    
C98   C113  S    
C47   C51   A    
C82   C86   A    
C108  C112  A    
C60   C61   S    
C55   H89   S    
C53   H84   S    
N3    N7    A    
C9    C14   S    
C61   H100  S    
C62   C63   S    
C11   C16   S    
C63   H3    S    
Cu3   Cu4   S    
C47   H57   S    
Cu10  O29   S    
C48   C102  A    
Cu5   O24   S    
C99   O20   A    
C11   H35   S    
C98   O15   A    
C128  N2    A    
C9    H33   S    
C143  C152  A    
C24   N10   A    
C14   H51   S    
C56   H91   S    
C22   O6    A    
C12   H49   S    
C104  C108  A    
Cu2   O41   S    
C137  C141  A    
C90   H69   S    
C140  C144  A    
Cu2   O7    S    
C130  N7    A    
C27   O37   A    
N1    N9    A    
C2    N1    A    
C100  O21   A    
C27   C125  S    
C95   H72   S    
C13   N14   A    
C121  C126  A    
Cu12  O3    S    
C74   C78   A    
Cu11  O30   S    
C64   H5    S    
C110  C115  A    
C37   H47   S    
C44   C49   A    
C68   C80   S    
C26   O31   A    
C147  O28   A    
C54   H87   S    
C32   C124  A    
C141  H23   S    
Cu3   O6    S    
C4    C8    S    
C55   H88   S    
C7    C11   S    
Cu11  O21   S    
C38   C42   A    
C18   O41   A    
C10   C15   S    
N14   N15   A    
Cu9   O28   S    
C143  H25   S    
C3    C153  A    
C57   C86   A    
C108  H12   S    
C144  C153  A    
C117  C121  A    
C15   H43   S    
C148  O25   A    
C51   C135  A    
C2    C39   S    
C28   O38   A    
C66   C71   A    
C52   O44   S    
Cu9   O37   S    
C43   C48   A    
C30   C102  A    
C35   C93   S    
Cu12  O8    S    
C14   H42   S    
C1    O1    A    
Cu1   O1    S    
C59   H96   S    
C36   C40   A    
Cu3   O51   S    
C80   O23   A    
Cu9   O10   S    
C39   C43   A    
C68   C73   A    
C93   H50   S    
C29   O39   A    
Cu6   O25   S    
Cu7   Cu11  S    
C131  N3    A    
C138  C147  S    
C77   H65   S    
C1    C66   S    
C152  H30   S    
C64   H7    S    
C75   H63   S    
C114  C118  A    
C101  C123  A    
Cu6   O33   S    
C62   O48   S    
C25   O8    A    
C57   C95   S    
C54   H85   S    
C89   H73   S    
C11   H40   S    
C128  N5    A    
C106  C110  A    
Cu6   O23   S    
C88   C93   S    
C72   O46   S    
C20   C156  S    
Cu7   O34   S    
N2    N6    A    
C129  N16   A    
C56   H90   S    
C38   H48   S    
C76   C81   A    
C153  H31   S    
C46   C67   A    
C6    C134  A    
C9    H37   S    
C71   C75   A    
C149  O30   A    
C145  O27   A    
C31   C113  A    
C42   C47   A    
C22   O2    A    
C6    C156  A    
Cu8   O18   S    
C104  C126  A    
C94   H61   S    
C150  C154  A    
C59   O47   S    
C55   O46   S    
C15   H52   S    
Cu12  O49   S    
Cu10  O11   S    
C20   O43   A    
C62   H104  S    
