data_mof_unit_39515.cif
_audit_creation_date              2013-03-05T16:23:14-0500
_audit_creation_method            fapswitch 2.2
_symmetry_space_group_name_H-M    P1
_symmetry_Int_Tables_number       1
_space_group_crystal_system       triclinic
_cell_length_a                    27.598515
_cell_length_b                    10.483403
_cell_length_c                    9.744797
_cell_angle_alpha                 90.472918
_cell_angle_beta                  89.994797
_cell_angle_gamma                 90.008814
_cell_volume                      2819.33051047

loop_
_atom_site_label
_atom_site_type_symbol
_atom_site_description
_atom_site_fract_x
_atom_site_fract_y
_atom_site_fract_z
_atom_type_partial_charge
O1    O     O_R   0.500000 0.313960 0.616610 -0.628283
O2    O     O_R   0.500000 0.686040 0.383390 -0.630219
O3    O     O_R   0.500020 0.313950 0.383350 -0.620052
O4    O     O_R   0.499980 0.686050 0.616650 -0.612463
C1    C     C_R   0.499962 0.257459 0.499373 0.870816
C2    C     C_R   0.499940 0.742529 0.500637 0.881609
O5    O     O_R   0.428750 0.500030 0.616610 -0.571802
O6    O     O_R   0.571250 0.499970 0.383390 -0.564157
O7    O     O_R   0.428770 0.500020 0.383360 -0.630634
O8    O     O_R   0.571230 0.499980 0.616640 -0.635851
C3    C     C_R   0.406171 0.503356 0.500203 0.914050
C4    C     C_R   0.594093 0.499143 0.500035 0.907765
Zn1   Zn    Zn3+2 0.499990 0.500010 0.655740 0.972483
Zn2   Zn    Zn3+2 0.500010 0.499990 0.344260 0.973062
C5    C     C_R   0.178819 0.410664 0.568696 0.531468
C6    C     C_R   0.822751 0.626516 0.551862 0.529966
O9    O     O_2   0.205336 0.307764 0.603763 -0.548432
O10   O     O_2   0.796884 0.735807 0.553135 -0.546498
N1    N     N_R   0.201150 0.516077 0.516504 -0.349324
N2    N     N_R   0.799795 0.511931 0.533833 -0.348367
C7    C     C_R   0.175762 0.622726 0.481047 0.516100
C8    C     C_R   0.824770 0.399276 0.531047 0.516771
C9    C     C_R   0.279065 0.590362 0.602381 -0.140221
C10   C     C_R   0.726353 0.468276 0.400278 -0.132413
C11   C     C_R   0.329393 0.588489 0.600027 0.356511
C12   C     C_R   0.676003 0.463410 0.389574 0.362582
C13   C     C_R   0.326807 0.442539 0.404081 -0.273087
C14   C     C_R   0.669898 0.543586 0.624432 -0.265710
C15   C     C_R   0.276445 0.444806 0.407648 -0.080635
C16   C     C_R   0.719948 0.546985 0.634045 -0.086346
C17   C     C_R   0.252673 0.517844 0.507610 0.242916
C18   C     C_R   0.748247 0.509625 0.522191 0.236648
C19   C     C_R   0.101828 0.519112 0.553086 -0.060559
C20   C     C_R   0.899436 0.516219 0.564453 -0.061398
C21   C     C_R   0.128551 0.409946 0.587523 -0.057120
C22   C     C_R   0.873099 0.630829 0.567935 -0.056484
C23   C     C_R   0.105004 0.305462 0.646259 -0.187408
C24   C     C_R   0.897229 0.746272 0.592501 -0.186797
C25   C     C_R   0.125549 0.626659 0.499310 -0.015609
C26   C     C_R   0.875151 0.399196 0.546014 -0.012410
C27   C     C_R   0.353533 0.512203 0.501501 -0.131959
C28   C     C_R   0.647228 0.501916 0.502826 -0.141216
H1    H     H_    0.344913 0.384082 0.327535 0.173364
H2    H     H_    0.648928 0.574071 0.712788 0.185558
H3    H     H_    0.255867 0.388929 0.334086 0.156181
H4    H     H_    0.736868 0.578309 0.728784 0.162120
H5    H     H_    0.126206 0.225954 0.683565 0.190712
H6    H     H_    0.876436 0.832987 0.607343 0.190772
C29   C     C_R   0.976320 0.402567 0.584338 0.059480
C30   C     C_R   0.025005 0.634316 0.547751 0.057422
C31   C     C_R   0.974855 0.637059 0.576709 0.021241
C32   C     C_R   0.026879 0.406733 0.607220 0.020359
C33   C     C_R   0.950215 0.518680 0.576650 0.033205
C34   C     C_R   0.051236 0.520287 0.570578 0.033974
C35   C     C_R   0.951777 0.287737 0.555974 -0.215609
C36   C     C_R   0.048824 0.737042 0.484877 -0.213255
C37   C     C_R   0.901775 0.285671 0.539193 -0.142951
C38   C     C_R   0.098543 0.734051 0.462498 -0.142241
O11   O     O_2   0.800809 0.287849 0.515282 -0.541819
O12   O     O_2   0.199170 0.724458 0.428850 -0.544500
C39   C     C_R   0.054505 0.303943 0.662331 0.142373
C40   C     C_R   0.947866 0.750859 0.603165 0.147669
H7    H     H_    0.748676 0.438782 0.314249 0.178664
H8    H     H_    0.260213 0.647481 0.678613 0.175455
H9    H     H_    0.884233 0.195151 0.518131 0.188879
H10   H     H_    0.115580 0.815433 0.414574 0.190993
H11   H     H_    0.971167 0.200437 0.535484 0.137473
H12   H     H_    0.028911 0.816031 0.442839 0.143776
C41   C     C_3   0.539765 0.043070 0.564689 -0.172622
C42   C     C_3   0.460007 0.956863 0.435385 -0.159480
C43   C     C_3   0.539783 0.956904 0.435458 -0.166678
C44   C     C_3   0.459991 0.043060 0.564611 -0.152189
H13   H     H_    0.572210 0.916859 0.383207 0.152526
H14   H     H_    0.427559 0.083072 0.616865 0.154780
H15   H     H_    0.572179 0.083133 0.617000 0.153203
H16   H     H_    0.427591 0.916742 0.383138 0.155451
C45   C     C_3   0.499886 0.877605 0.501835 0.014657
C46   C     C_3   0.499896 0.122356 0.498223 0.008658
C47   C     C_3   0.499864 0.961059 0.631232 -0.127174
C48   C     C_3   0.499908 0.038885 0.368833 -0.141011
H17   H     H_    0.499827 0.925269 0.738154 0.148913
H18   H     H_    0.499930 0.074644 0.261899 0.147053
C49   C     C_3   0.496993 0.385088 0.047549 -0.083223
C50   C     C_3   0.503004 0.614920 0.952436 -0.085106
C51   C     C_3   0.536273 0.435696 0.950669 -0.042585
C52   C     C_3   0.463730 0.564326 0.049327 -0.044999
H19   H     H_    0.566792 0.381602 0.904018 0.147574
H20   H     H_    0.433233 0.618497 0.095980 0.146654
H21   H     H_    0.494457 0.288309 0.092444 0.130463
H22   H     H_    0.505533 0.711693 0.907521 0.134468
N3    N     N_3   0.499960 0.500030 0.863290 -0.084066
N4    N     N_3   0.500040 0.499970 0.136710 -0.084159
C53   C     C_3   0.460679 0.449444 0.950986 -0.056974
C54   C     C_3   0.539316 0.550586 0.048999 -0.051469
H23   H     H_    0.427586 0.406956 0.904622 0.147362
H24   H     H_    0.572365 0.593344 0.095297 0.163634
Cl1   Cl    Cl    0.651568 0.403016 0.234967 -0.627638
Cl2   Cl    Cl    0.360387 0.687030 0.718563 -0.622982
C55   C     C_3   0.033631 0.204184 0.758873 -0.421330
C56   C     C_3   0.008921 0.265624 0.883193 -0.812800
H25   H     H_    0.034375 0.331360 0.936724 0.261731
H26   H     H_    0.976148 0.319357 0.852008 0.266844
H27   H     H_    0.997618 0.190249 0.955946 0.244601
H28   H     H_    0.008573 0.137479 0.707657 0.200495
H29   H     H_    0.062947 0.142064 0.799089 0.207551
C57   C     C_3   0.969845 0.871120 0.666721 -0.425800
C58   C     C_3   0.995879 0.842328 0.801413 -0.819642
H30   H     H_    0.971227 0.791129 0.872325 0.263654
H31   H     H_    0.028664 0.783442 0.782864 0.266693
H32   H     H_    0.007355 0.932866 0.851519 0.243221
H33   H     H_    0.994354 0.922078 0.596684 0.189735
H34   H     H_    0.940987 0.941833 0.691014 0.205421

loop_
_geom_bond_atom_site_label_1
_geom_bond_atom_site_label_2
_geom_bond_distance
_ccdc_geom_bond_type
C13   C15   1.390567 A    
C30   C34   1.416770 A    
N1    C17   1.424713 S    
C51   N3    1.481254 S    
C39   C55   1.525331 S    
C5    N1    1.367018 A    
C49   N4    1.481606 S    
C19   C25   1.408487 A    
O1    C1    1.282526 A    
C21   C23   1.399915 A    
C50   C52   1.534773 S    
C44   C47   1.543070 S    
C32   C39   1.428563 A    
C52   H20   1.110605 S    
C57   C58   1.528688 S    
C49   C53   1.534913 S    
O4    Zn1   1.990266 S    
C41   C43   1.543738 S    
C4    C28   1.466989 S    
C38   H10   1.083279 S    
C44   C46   1.526749 S    
C58   H30   1.111027 S    
C41   H15   1.110372 S    
C50   N3    1.481588 S    
C23   H5    1.083729 S    
C24   H6    1.083791 S    
O6    C4    1.299942 A    
C51   H19   1.110624 S    
C55   H28   1.100234 S    
C53   H23   1.110539 S    
Zn1   N3    2.022530 S    
C42   C45   1.526533 S    
C58   H31   1.109397 S    
C41   C46   1.526565 S    
O2    C2    1.282560 A    
C31   C40   1.428197 A    
C50   H22   1.110394 S    
C49   H21   1.110383 S    
C5    C21   1.399417 A    
C43   C48   1.543016 S    
C32   C34   1.415354 A    
C57   H33   1.102066 S    
C45   C47   1.528788 S    
C55   H29   1.112068 S    
C42   C48   1.543181 S    
C7    O12   1.349879 S    
C44   H14   1.110360 S    
C11   C27   1.411610 A    
C8    O11   1.349916 S    
C43   H13   1.110370 S    
C2    C45   1.416002 S    
C57   H34   1.112278 S    
C29   C35   1.406648 A    
C25   C38   1.399536 A    
C14   H2    1.083442 S    
C56   H27   1.110610 S    
C30   C36   1.406373 A    
C15   H3    1.082854 S    
C31   C33   1.415012 A    
C9    C17   1.396340 A    
O5    C3    1.295023 A    
O7    Zn2   2.002660 S    
C10   C18   1.398557 A    
C52   C53   1.535195 S    
N3    C53   1.481204 S    
C51   C54   1.535191 S    
C13   C27   1.402569 A    
C35   H11   1.077465 S    
C55   C56   1.527984 S    
C7    C25   1.397743 A    
C6    N2    1.368042 A    
C29   C32   1.413691 A    
C8    C26   1.398081 A    
C56   H26   1.109406 S    
C30   C31   1.412757 A    
C50   C54   1.534765 S    
C54   H24   1.110429 S    
O7    C3    1.298413 A    
Zn2   N4    2.022531 S    
O3    Zn2   1.990268 S    
O8    C4    1.299645 A    
C48   H18   1.110336 S    
C9    H8    1.083418 S    
C49   C51   1.534879 S    
N2    C8    1.367611 A    
C10   H7    1.083370 S    
C35   C37   1.389801 A    
C42   H16   1.110386 S    
C58   H32   1.109902 S    
C20   C26   1.408057 A    
C41   C47   1.543101 S    
O4    C2    1.280511 A    
O1    Zn1   1.984271 S    
C22   C24   1.400153 A    
C43   C45   1.526548 S    
C12   C28   1.415691 A    
C47   H17   1.110341 S    
N2    C18   1.427346 S    
C19   C34   1.406669 A    
C5    O9    1.349970 S    
O6    Zn2   2.002790 S    
C26   C37   1.399885 A    
N1    C7    1.366377 A    
C16   H4    1.083159 S    
C10   C12   1.394399 A    
C37   H9    1.083376 S    
O3    C1    1.280658 A    
O8    Zn1   2.002664 S    
C23   C39   1.402563 A    
C40   C57   1.525761 S    
C36   H12   1.077659 S    
C14   C16   1.384909 A    
C15   C17   1.397607 A    
C52   N4    1.481326 S    
C6    C22   1.399029 A    
C16   C18   1.394417 A    
N4    C54   1.481289 S    
C29   C33   1.417096 A    
C14   C28   1.406433 A    
C56   H25   1.111093 S    
C19   C21   1.404594 A    
C20   C22   1.404519 A    
C36   C38   1.389672 A    
C3    C27   1.455744 S    
C46   C48   1.528836 S    
C9    C11   1.389296 A    
O2    Zn2   1.984269 S    
C12   Cl1   1.763466 S    
C13   H1    1.083565 S    
C11   Cl2   1.764480 S    
O5    Zn1   2.002785 S    
C20   C33   1.406704 A    
C6    O10   1.350016 S    
C42   C44   1.543874 S    
C1    C46   1.416289 S    
C24   C40   1.402173 A    
