data_mof_unit_54668.cif
_audit_creation_date              2012-12-11T14:52:21-0500
_audit_creation_method            fapswitch 2.2
_symmetry_space_group_name_H-M    P1
_symmetry_Int_Tables_number       1
_space_group_crystal_system       triclinic
_cell_length_a                    8.221737
_cell_length_b                    15.059531
_cell_length_c                    26.995204
_cell_angle_alpha                 96.68606
_cell_angle_beta                  92.832365
_cell_angle_gamma                 80.595148
_cell_volume                      3273.49532934

loop_
_atom_site_label
_atom_site_type_symbol
_atom_type_description
_atom_site_fract_x
_atom_site_fract_y
_atom_site_fract_z
_atom_type_partial_charge
Ba1   Ba    Ba6+2 0.860900 0.457020 0.523210 1.659133
Ba2   Ba    Ba6+2 0.328940 0.542910 0.476780 1.640671
C1    C     C_3   0.772501 0.123667 0.656925 -0.369727
C2    C     C_R   0.920214 0.592090 0.180175 0.575259
C3    C     C_2   0.752939 0.564846 0.272843 -0.082758
C4    C     C_3   0.255463 0.193956 0.651668 0.302263
C5    C     C_3   0.730777 0.591631 0.327926 -0.048659
C6    C     C_1   0.982649 0.484660 0.342710 0.033019
C7    C     C_2   0.021453 0.478290 0.294689 -0.103098
C8    C     C_2   0.899173 0.518585 0.256462 0.202885
C9    C     C_R   0.013407 0.505823 0.101696 -0.079975
C10   C     C_R   0.027616 0.425851 0.125154 -0.036227
C11   C     C_R   0.076387 0.342603 0.096679 -0.059867
C12   C     C_3   0.724148 0.213802 0.635601 0.417694
C13   C     C_R   0.961122 0.589415 0.129736 -0.024302
C14   C     C_2   0.843631 0.532244 0.360370 -0.287643
C15   C     C_2   0.347424 0.466459 0.639562 -0.316955
C16   C     C_3   0.223843 0.164518 0.701847 -0.306555
C17   C     C_R   0.116295 0.414000 0.968837 0.020526
C18   C     C_R   0.088972 0.580397 0.977007 0.020676
C19   C     C_R   0.120272 0.495511 0.947347 0.052450
C20   C     C_R   0.135622 0.331885 0.936834 -0.098671
C21   C     C_R   0.163436 0.329683 0.886144 -0.068240
C22   C     C_R   0.176127 0.408968 0.865067 -0.030206
C23   C     C_3   0.493170 0.665917 0.628069 0.285972
C24   C     C_R   0.155548 0.492092 0.895633 -0.076383
C25   C     C_R   0.169206 0.571804 0.874421 -0.036914
C26   C     C_R   0.209414 0.566779 0.823531 0.614579
C27   C     C_R   0.208605 0.406680 0.813944 0.621519
C28   C     C_3   0.223710 0.266289 0.416446 0.314261
C29   C     C_2   0.428139 0.429759 0.727884 0.390705
C30   C     C_3   0.458527 0.405751 0.672099 -0.128811
C31   C     C_1   0.207021 0.513576 0.656374 0.049375
C32   C     C_2   0.163470 0.519128 0.703649 -0.141530
C33   C     C_2   0.280513 0.478207 0.742362 0.201170
C34   C     C_3   0.485337 0.685749 0.684504 -0.345146
C35   C     C_R   0.091094 0.417240 0.021149 0.019591
C36   C     C_R   0.049880 0.502297 0.050049 0.050266
C37   C     C_R   0.043720 0.583944 0.027765 0.020039
C38   C     C_R   0.106447 0.338209 0.045908 -0.100207
C39   C     C_R   0.948759 0.669132 0.106706 -0.060633
C40   C     C_3   0.249772 0.164142 0.402817 -0.381564
C41   C     C_R   0.104999 0.659020 0.954695 -0.097783
C42   C     C_R   0.144879 0.654613 0.904735 -0.058213
C43   C     C_R   0.990056 0.666667 0.057108 -0.101664
C44   C     C_R   0.752533 0.766689 0.481800 -0.288351
C45   C     C_3   0.034221 0.738658 0.342355 0.332577
C46   C     C_R   0.840834 0.826795 0.464049 0.013651
C47   C     C_R   0.781947 0.920134 0.470597 -0.130026
C48   C     C_R   0.635927 0.954727 0.497373 0.012627
C49   C     C_R   0.557542 0.891452 0.518257 -0.113246
C50   C     C_R   0.615368 0.799108 0.510373 0.038128
C51   C     C_R   0.418825 0.087264 0.530295 -0.136982
C52   C     C_3   0.973076 0.734975 0.584529 0.313209
C53   C     C_R   0.357367 0.179605 0.537748 -0.017678
C54   C     C_R   0.583813 0.212216 0.493676 0.066047
C55   C     C_R   0.648127 0.119865 0.486465 -0.124608
C56   C     C_3   0.052472 0.764310 0.290287 -0.296775
C57   C     C_R   0.568864 0.054843 0.505465 0.009265
C58   C     C_R   0.443385 0.242018 0.521255 -0.278971
C59   C     C_3   0.954560 0.836937 0.598426 -0.383712
C60   C     C_3   0.695798 0.345444 0.374137 0.297878
C61   C     C_3   0.695699 0.323776 0.317688 -0.356840
C62   C     C_3   0.584232 0.307213 0.761134 0.259604
C63   C     C_3   0.487235 0.786921 0.365716 0.352724
C64   C     C_3   0.429585 0.880481 0.349271 -0.367188
C65   C     C_R   0.992411 0.430791 0.176530 0.597441
H1    H     H_    0.774710 0.207698 0.597725 0.083784
H2    H     H_    0.817294 0.362455 0.387347 0.009319
H3    H     H_    0.598238 0.404395 0.383585 0.077635
H4    H     H_    0.908472 0.105275 0.659608 0.148285
H5    H     H_    0.797679 0.267867 0.306864 0.135895
H6    H     H_    0.712508 0.384258 0.299911 0.073540
H7    H     H_    0.576250 0.303243 0.303971 0.131493
H8    H     H_    0.587221 0.226907 0.632281 -0.146385
H9    H     H_    0.722030 0.069733 0.632185 0.068657
H10   H     H_    0.373430 0.647786 0.613278 0.014981
H11   H     H_    0.592817 0.607696 0.619274 0.072434
H12   H     H_    0.335603 0.144911 0.371458 0.125908
H13   H     H_    0.382375 0.741519 0.694610 0.134924
H14   H     H_    0.464776 0.624466 0.700956 0.075127
H15   H     H_    0.603251 0.705661 0.700175 0.131276
H16   H     H_    0.721746 0.127789 0.694619 0.087649
H17   H     H_    0.333265 0.168153 0.727285 0.085324
H18   H     H_    0.126048 0.677363 0.347656 0.098673
H19   H     H_    0.908011 0.723391 0.345285 -0.047213
H20   H     H_    0.153460 0.804764 0.289741 0.142019
H21   H     H_    0.083899 0.701924 0.264284 0.125398
H22   H     H_    0.935945 0.804748 0.277502 0.125209
H23   H     H_    0.302814 0.129105 0.435102 0.066940
H24   H     H_    0.624219 0.773895 0.364722 -0.059977
H25   H     H_    0.448645 0.787721 0.404678 0.074756
H26   H     H_    0.490869 0.931209 0.373233 0.070910
H27   H     H_    0.294256 0.899635 0.352859 0.150198
H28   H     H_    0.284570 0.263926 0.657656 0.010014
H29   H     H_    0.461793 0.881227 0.309868 0.122306
H30   H     H_    0.142544 0.444638 0.282908 0.118115
H31   H     H_    0.090526 0.279823 0.113551 0.121047
H32   H     H_    0.176763 0.264796 0.863455 0.111135
H33   H     H_    0.125564 0.267896 0.949610 0.067241
H34   H     H_    0.129981 0.141551 0.391559 0.130270
H35   H     H_    0.145652 0.271454 0.027240 0.068305
H36   H     H_    0.660221 0.593942 0.246760 0.111744
H37   H     H_    0.907347 0.734573 0.127161 0.120819
H38   H     H_    0.091704 0.725361 0.975292 0.068194
H39   H     H_    0.361830 0.146129 0.635385 -0.021765
H40   H     H_    0.156383 0.717006 0.889849 0.119617
H41   H     H_    0.043403 0.555163 0.714990 0.121425
H42   H     H_    0.973874 0.731132 0.042401 0.069397
H43   H     H_    0.822944 0.543059 0.400155 0.082165
H44   H     H_    0.372662 0.459016 0.600096 0.092008
H45   H     H_    0.851005 0.715914 0.574428 -0.003877
H46   H     H_    0.342334 0.043117 0.542549 0.071376
H47   H     H_    0.854976 0.963445 0.455778 0.077059
H48   H     H_    0.756775 0.100954 0.464575 0.080681
H49   H     H_    0.454434 0.911204 0.542294 0.065436
H50   H     H_    0.393041 0.313380 0.526016 0.067788
H51   H     H_    0.115184 0.209100 0.718890 0.179247
H52   H     H_    0.798216 0.694739 0.476850 0.066080
H53   H     H_    0.199566 0.093563 0.696821 0.089245
H54   H     H_    0.343979 0.288093 0.426302 0.001083
H55   H     H_    0.141893 0.283489 0.448806 0.067650
H56   H     H_    0.054965 0.716195 0.552279 0.070022
H57   H     H_    0.720156 0.287317 0.760695 0.080047
H58   H     H_    0.529056 0.269955 0.728196 -0.024154
H59   H     H_    0.541893 0.284527 0.795257 0.064403
H60   H     H_    0.866857 0.858082 0.629192 0.124905
H61   H     H_    0.907460 0.873121 0.565965 0.066745
H62   H     H_    0.076169 0.856325 0.610647 0.126765
N1    N     N_R   0.939086 0.513498 0.203710 -0.422422
N2    N     N_R   0.231521 0.484417 0.794089 -0.407373
O1    O     O_2   0.905540 0.548000 0.618290 -0.457419
O2    O     O_2   0.179436 0.822112 0.468555 -0.479383
O3    O     O_3   0.061630 0.811055 0.377627 -0.606234
O4    O     O_3   0.137550 0.547930 0.558110 -0.495559
O5    O     O_3   0.574690 0.391440 0.474610 -0.493020
O6    O     O_2   0.341330 0.720570 0.525000 -0.455950
O7    O     O_3   0.525008 0.743044 0.608042 -0.641581
O8    O     O_2   0.404969 0.546441 0.322339 -0.498166
O9    O     O_3   0.416605 0.721448 0.333875 -0.598444
O10   O     O_2   0.006299 0.361261 0.196685 -0.595245
O11   O     O_2   0.215826 0.335293 0.786951 -0.633257
O12   O     O_3   0.666545 0.269347 0.395433 -0.633803
O13   O     O_2   0.867361 0.664994 0.203139 -0.624816
O14   O     O_2   0.226027 0.635521 0.805623 -0.594808
O15   O     O_3   0.688580 0.383890 0.587540 -0.484326
O16   O     O_2   0.777989 0.459589 0.677066 -0.459389
O17   O     O_3   0.038770 0.692432 0.625960 -0.630812
O18   O     O_3   0.787937 0.282783 0.666732 -0.576248
O19   O     O_2   0.848360 0.279400 0.474970 -0.460133
O20   O     O_3   0.104690 0.337720 0.562900 -0.467763
O21   O     O_2   0.023033 0.177896 0.527540 -0.486669
O22   O     O_3   0.546023 0.402589 0.764065 -0.640926
O23   O     O_3   0.113457 0.191205 0.620959 -0.579730
O24   O     O_2   0.284150 0.451970 0.381680 -0.462661
O25   O     O_3   0.052160 0.451990 0.441880 -0.496831
O26   O     O_3   0.501140 0.616030 0.412450 -0.475455
O27   O     O_3   0.153147 0.307282 0.374983 -0.625467
O28   O     O_3   0.615020 0.608480 0.525380 -0.481065
O29   O     O_3   0.085020 0.662210 0.437090 -0.495771
P1    P     P_3+3 0.070480 0.574800 0.610950 0.998394
P2    P     P_3+3 0.668430 0.292880 0.460530 0.982660
P3    P     P_3+3 0.151536 0.220202 0.562285 0.958906
P4    P     P_3+3 0.119230 0.425130 0.389040 0.990531
P5    P     P_3+3 0.042193 0.780566 0.437330 0.944549
P6    P     P_3+3 0.678442 0.386700 0.652164 1.008615
P7    P     P_3+3 0.525654 0.720356 0.542966 0.949019
P8    P     P_3+3 0.512849 0.614684 0.348127 0.939659

loop_
_geom_bond_atom_site_label_1
_geom_bond_atom_site_label_2
_ccdc_geom_bond_type
O9    P8    S    
C63   H25   S    
C21   H32   S    
C52   H56   S    
C3    H36   S    
Ba1   O19   S    
Ba2   O24   S    
C30   P6    S    
C9    C36   A    
C1    H4    S    
C60   O12   S    
C5    P8    S    
Ba1   O1    S    
C56   H20   S    
C51   C57   A    
C14   H43   S    
C55   H48   S    
O5    P2    S    
C26   O14   D    
C60   C61   S    
C23   H10   S    
C48   C57   S    
C45   H18   S    
C52   O17   S    
C17   C19   A    
C22   C24   A    
C32   C33   S    
C35   C38   A    
C50   P7    S    
C36   C37   A    
C43   H42   S    
C55   C57   A    
C44   C50   A    
C54   C55   A    
C60   H3    S    
C63   H24   S    
Ba1   Ba2   S    
C41   H38   S    
C11   H31   S    
C47   C48   A    
C22   C27   A    
C11   C38   A    
C17   C35   A    
O1    P1    D    
C63   O9    S    
C9    C13   A    
C25   C42   A    
C46   P5    S    
C28   H55   S    
C34   H15   S    
C6    C7    D    
C16   H17   S    
C21   C22   A    
Ba1   O5    S    
C7    C8    S    
C16   H51   S    
O12   P2    S    
C59   H62   S    
C37   C43   A    
Ba2   O25   S    
C47   H47   S    
O15   P6    S    
Ba1   P1    S    
C40   H12   S    
C6    C14   D    
C53   C58   A    
O4    P1    S    
Ba1   O15   S    
C15   C31   D    
C4    C16   S    
C15   H44   S    
O26   P8    S    
C29   O22   S    
C19   C24   A    
C51   H46   S    
C48   C49   A    
C51   C53   A    
C4    H39   S    
O19   P2    D    
C10   C65   A    
C44   C46   A    
C20   H33   S    
C49   C50   A    
C45   H19   S    
O23   P3    S    
Ba1   O28   S    
C17   C20   A    
C13   C39   A    
C34   H13   S    
Ba2   P4    S    
C3    C5    S    
C18   C37   A    
Ba2   O28   S    
C2    N1    Am   
C61   H6    S    
C62   H57   S    
C62   O22   S    
Ba2   O5    S    
C23   H11   S    
C54   P2    S    
O7    P7    S    
C40   H23   S    
Ba1   O25   S    
C31   P1    S    
C41   C42   A    
C8    N1    S    
C35   C36   A    
O16   P6    D    
O2    P5    D    
C29   C30   S    
C28   H54   S    
C34   H14   S    
C18   C19   A    
C31   C32   D    
C24   C25   A    
O3    P5    S    
C52   H45   S    
C58   H50   S    
C59   H60   S    
O29   P5    S    
C61   H5    S    
C1    H9    S    
O25   P4    S    
C4    O23   S    
C1    C12   S    
C64   H26   S    
C46   C47   A    
C52   C59   S    
Ba1   P2    S    
C4    H28   S    
O20   P3    S    
C45   O3    S    
C6    P4    S    
C29   C33   D    
C65   N1    Am   
O17   P1    S    
C65   O10   D    
C40   H34   S    
C16   H53   S    
O6    P7    D    
C18   C41   A    
C64   H29   S    
C42   H40   S    
C28   O27   S    
C5    C14   S    
C7    H30   S    
Ba2   O6    S    
O18   P6    S    
Ba2   O4    S    
C56   H21   S    
C2    O13   D    
C9    C10   A    
C61   H7    S    
O27   P4    S    
O24   P4    D    
C62   H59   S    
C49   H49   S    
C39   H37   S    
C64   H27   S    
C26   N2    Am   
C32   H41   S    
C12   H8    S    
C2    C13   A    
C23   O7    S    
C33   N2    S    
C53   P3    S    
C3    C8    D    
C39   C43   A    
C45   C56   S    
C1    H16   S    
C27   N2    Am   
Ba2   O26   S    
C27   O11   D    
C12   O18   S    
O28   P7    S    
C44   H52   S    
Ba1   O20   S    
C59   H61   S    
C63   C64   S    
O8    P8    D    
C56   H22   S    
O21   P3    D    
C23   C34   S    
C38   H35   S    
C54   C58   A    
C10   C11   A    
C60   H2    S    
Ba2   O29   S    
C62   H58   S    
C25   C26   A    
C15   C30   S    
C12   H1    S    
C20   C21   A    
C28   C40   S    
Ba1   O4    S    
