data_mof_unit_39909.cif
_audit_creation_date              2012-12-11T14:08:15-0500
_audit_creation_method            fapswitch 2.2
_symmetry_space_group_name_H-M    P1
_symmetry_Int_Tables_number       1
_space_group_crystal_system       triclinic
_cell_length_a                    10.929972
_cell_length_b                    10.929105
_cell_length_c                    18.653987
_cell_angle_alpha                 90.186293
_cell_angle_beta                  89.939928
_cell_angle_gamma                 60.308785
_cell_volume                      1935.72894575

loop_
_atom_site_label
_atom_site_type_symbol
_atom_type_description
_atom_site_fract_x
_atom_site_fract_y
_atom_site_fract_z
_atom_type_partial_charge
C1    C     C_R   0.236692 0.645254 0.608801 0.545068
C2    C     C_2   0.783318 0.152980 0.706654 -0.181460
C3    C     C_2   0.184401 0.659658 0.681792 -0.125769
C4    C     C_R   0.655608 0.623643 0.600390 0.541478
C5    C     C_2   0.208495 0.659157 0.843465 0.002033
C6    C     C_2   0.206462 0.559924 0.801464 -0.156222
C7    C     C_2   0.242188 0.546642 0.725195 -0.184978
C8    C     C_2   0.675470 0.687130 0.333796 -0.102120
C9    C     C_2   0.707746 0.717006 0.180098 -0.100440
C10   C     C_2   0.816423 0.643488 0.224227 -0.161818
C11   C     C_2   0.797839 0.614567 0.298662 -0.155054
C12   C     C_3   0.679309 0.550856 0.799844 -0.254777
C13   C     C_2   0.599890 0.265487 0.312912 -0.093359
C14   C     C_2   0.630995 0.212557 0.160861 -0.106260
C15   C     C_2   0.508766 0.255569 0.195246 -0.157025
C16   C     C_R   0.628467 0.227154 0.601865 0.554905
C17   C     C_2   0.489265 0.306392 0.269247 -0.166192
C18   C     C_2   0.120698 0.681376 0.345380 -0.106943
C19   C     C_2   0.114253 0.691027 0.190884 -0.104206
C20   C     C_2   0.041910 0.804072 0.234033 -0.147696
C21   C     C_2   0.073637 0.800551 0.309438 -0.153846
C22   C     C_R   0.703279 0.102280 0.897505 0.548557
C23   C     C_3   0.703418 0.676429 0.811659 0.043943
C24   C     C_R   0.725105 0.689331 0.887876 0.552462
C25   C     C_R   0.121116 0.705733 0.908180 0.563210
C26   C     C_R   0.672523 0.114587 0.101406 0.546389
C27   C     C_R   0.734404 0.719853 0.104402 0.577792
C28   C     C_R   0.214918 0.651603 0.404786 0.549732
C29   C     C_R   0.087381 0.712863 0.115276 0.545374
C30   C     C_R   0.645850 0.627413 0.396361 0.548149
C31   C     C_R   0.578633 0.297361 0.388249 0.576826
C32   C     C_3   0.577019 0.813541 0.781416 -0.242693
C33   C     C_3   0.557976 0.795774 0.701427 -0.258110
C34   C     C_3   0.675667 0.648845 0.675423 0.077109
C35   C     C_3   0.838708 0.649782 0.770700 -0.199708
C36   C     C_3   0.950984 0.508262 0.657782 -0.396080
C37   C     C_3   0.281520 0.740379 0.821781 -0.392200
C38   C     C_3   0.821437 0.639720 0.689168 -0.122632
C39   C     C_3   0.662079 0.534849 0.719784 -0.209118
C40   C     C_2   0.676436 0.154540 0.670407 -0.125501
C41   C     C_2   0.689479 0.166580 0.827501 -0.119870
C42   C     C_2   0.801576 0.121175 0.783725 -0.178269
Cr1   Cr    Cr6+3 0.393010 0.398050 0.501480 1.005886
Cr2   Cr    Cr6+3 0.398820 0.707980 0.501630 1.013402
Cr3   Cr    Cr6+3 0.708140 0.393940 0.496850 1.006340
Cr4   Cr    Cr6+3 0.937950 0.938450 0.008940 1.016018
Cr5   Cr    Cr6+3 0.626180 0.937030 0.994750 1.014174
Cr6   Cr    Cr6+3 0.937790 0.625760 0.001410 1.007855
H1    H     H_    0.596187 0.903896 0.788552 0.141758
H2    H     H_    0.478605 0.839673 0.810862 0.125189
H3    H     H_    0.113121 0.764193 0.702822 0.111220
H4    H     H_    0.922931 0.587660 0.202902 0.145820
H5    H     H_    0.884456 0.520876 0.322177 0.150620
H6    H     H_    0.590832 0.785685 0.313505 0.107744
H7    H     H_    0.427243 0.237929 0.172592 0.155834
H8    H     H_    0.382610 0.363716 0.290459 0.135124
H9    H     H_    0.709066 0.237932 0.180844 0.105983
H10   H     H_    0.707854 0.203259 0.294376 0.103532
H11   H     H_    0.968581 0.906862 0.212127 0.156132
H12   H     H_    0.742384 0.427187 0.702997 0.141778
H13   H     H_    0.451905 0.807162 0.693389 0.146797
H14   H     H_    0.077300 0.890563 0.331883 0.156627
H15   H     H_    0.188792 0.586935 0.210579 0.083711
H16   H     H_    0.108406 0.595272 0.324116 0.096325
H17   H     H_    0.561621 0.880684 0.670325 0.112701
H18   H     H_    0.770389 0.452128 0.820340 0.138337
H19   H     H_    0.557986 0.542745 0.709964 0.117477
H20   H     H_    0.956660 0.517307 0.598771 0.161872
H21   H     H_    0.049092 0.498588 0.679310 0.132955
H22   H     H_    0.950688 0.409791 0.671494 0.145058
H23   H     H_    0.929977 0.550861 0.790695 0.141725
H24   H     H_    0.354520 0.691362 0.776093 0.130312
H25   H     H_    0.202150 0.849871 0.807173 0.129592
H26   H     H_    0.344178 0.743932 0.867720 0.133660
H27   H     H_    0.599285 0.772099 0.198346 0.108401
H28   H     H_    0.861995 0.736386 0.781931 0.108876
H29   H     H_    0.819491 0.732654 0.663563 0.125230
H30   H     H_    0.584579 0.566534 0.829651 0.114562
H31   H     H_    0.907853 0.055989 0.803831 0.150317
H32   H     H_    0.855633 0.179835 0.680504 0.143284
H33   H     H_    0.583691 0.232873 0.806936 0.106923
H34   H     H_    0.610129 0.119290 0.696215 0.101296
H35   H     H_    0.164239 0.495052 0.821273 0.132455
H36   H     H_    0.312675 0.441774 0.704305 0.153672
O1    O     O_R   0.507110 0.256280 0.580300 -0.518648
O2    O     O_R   0.837080 0.593860 0.915300 -0.525444
O3    O     O_R   0.064770 0.636080 0.932550 -0.508970
O4    O     O_R   0.280830 0.527190 0.577940 -0.502024
O5    O     O_R   0.068250 0.829200 0.092940 -0.507000
O6    O     O_R   0.799650 0.057040 0.080330 -0.508329
O7    O     O_R   0.586130 0.079760 0.077080 -0.518941
O8    O     O_R   0.627700 0.809630 0.066580 -0.493498
O9    O     O_R   0.816140 0.597180 0.075920 -0.503100
O10   O     O_R   0.045360 0.639170 0.081440 -0.521158
O11   O     O_3   0.833980 0.833750 0.001700 -0.275372
O12   O     O_R   0.524640 0.695370 0.425100 -0.495754
O13   O     O_R   0.261360 0.738990 0.584270 -0.516979
O14   O     O_R   0.532590 0.694780 0.574370 -0.509166
O15   O     O_R   0.744470 0.503750 0.577000 -0.532303
O16   O     O_R   0.698520 0.277230 0.571620 -0.493945
O17   O     O_R   0.498530 0.256920 0.419280 -0.503834
O18   O     O_R   0.272880 0.527780 0.428680 -0.525128
O19   O     O_R   0.252780 0.739630 0.423250 -0.507402
O20   O     O_R   0.735890 0.504390 0.415980 -0.522861
O21   O     O_R   0.690560 0.277820 0.422350 -0.498399
O22   O     O_3   0.499990 0.499990 0.499980 -0.266658
O23   O     O_R   0.089190 0.825870 0.932320 -0.513816
O24   O     O_R   0.819070 0.053960 0.931440 -0.492866
O25   O     O_R   0.607070 0.076440 0.916460 -0.520955
O26   O     O_R   0.647110 0.806550 0.917690 -0.504704

loop_
_geom_bond_atom_site_label_1
_geom_bond_atom_site_label_2
_ccdc_geom_bond_type
C37   H26   S    
Cr6   O11   S    
C4    O14   A    
C18   C21   D    
Cr5   O8    S    
C19   C20   D    
C10   H4    S    
C29   O5    A    
C4    O15   A    
C33   H17   S    
Cr4   O5    S    
C36   H21   S    
C12   C23   S    
C9    C27   S    
Cr6   O10   S    
Cr1   O4    S    
C31   O17   A    
C5    C37   S    
C29   O10   A    
C22   C41   S    
C25   O3    A    
C41   C42   D    
C30   O12   A    
Cr2   O14   S    
Cr4   O11   S    
C19   H15   S    
Cr4   O24   S    
C23   C24   S    
C9    C10   D    
C11   H5    S    
C1    O4    A    
C7    H36   S    
C35   H23   S    
C42   H31   S    
C31   O21   A    
C39   H19   S    
Cr2   O19   S    
Cr3   O21   S    
C4    C34   S    
C35   H28   S    
Cr6   O9    S    
C34   C39   S    
Cr1   O1    S    
C40   H34   S    
C35   C38   S    
C18   C28   S    
Cr3   O15   S    
C8    H6    S    
C3    H3    S    
C16   O16   A    
C13   H10   S    
C26   O7    A    
Cr5   O25   S    
C12   H18   S    
C12   H30   S    
C1    C3    S    
Cr1   O22   S    
C15   H7    S    
Cr1   O17   S    
Cr2   O12   S    
Cr3   O20   S    
C2    C40   D    
Cr2   O13   S    
C22   O25   A    
C41   H33   S    
Cr4   O23   S    
C33   C34   S    
Cr6   O3    S    
C24   O26   A    
C27   O8    A    
C14   C26   S    
C20   H11   S    
C17   H8    S    
C32   H2    S    
C21   H14   S    
C16   C40   S    
C5    C25   S    
C36   H22   S    
C23   C35   S    
C16   O1    A    
Cr6   O2    S    
C27   O9    A    
C1    O13   A    
C19   C29   S    
Cr3   O22   S    
C25   O23   A    
C15   C17   S    
C14   H9    S    
C37   H25   S    
C6    H35   S    
C34   C38   S    
Cr5   O7    S    
C13   C31   S    
Cr3   O16   S    
C36   H20   S    
C6    C7    S    
Cr4   O6    S    
C38   H29   S    
Cr2   O22   S    
C26   O6    A    
Cr5   O26   S    
C3    C7    D    
C13   C17   D    
C8    C30   S    
C23   C32   S    
C12   C39   S    
C36   C38   S    
Cr1   O18   S    
C32   C33   S    
C28   O19   A    
C18   H16   S    
C5    C6    D    
C2    C42   S    
C8    C11   D    
C22   O24   A    
C39   H12   S    
C32   H1    S    
C2    H32   S    
C10   C11   S    
C28   O18   A    
C20   C21   S    
C33   H13   S    
C37   H24   S    
C30   O20   A    
Cr5   O11   S    
C14   C15   D    
C9    H27   S    
C24   O2    A    
