data_mof_unit_32896.cif
_audit_creation_date              2012-10-26T20:01:52-0400
_audit_creation_method            fapswitch 2.2
_symmetry_space_group_name_H-M    P1
_symmetry_Int_Tables_number       1
_space_group_crystal_system       triclinic
_cell_length_a                    11.696575
_cell_length_b                    10.813859
_cell_length_c                    9.641012
_cell_angle_alpha                 90.591885
_cell_angle_beta                  89.938429
_cell_angle_gamma                 93.345221
_cell_volume                      1217.30155457

loop_
_atom_site_label
_atom_site_type_symbol
_atom_type_description
_atom_site_fract_x
_atom_site_fract_y
_atom_site_fract_z
_atom_type_partial_charge
C1    C     C_R   0.512704 0.263656 0.500356 0.582941
C2    C     C_R   0.493840 0.872399 0.500669 -0.027127
C3    C     C_R   0.676561 0.630610 0.147334 -0.098856
C4    C     C_R   0.284225 0.499503 0.500046 0.558541
C5    C     C_R   0.781551 0.655698 0.084115 -0.195597
C6    C     C_R   0.790395 0.641480 0.942108 -0.130773
C7    C     C_R   0.689472 0.623320 0.864740 0.072049
C8    C     C_R   0.590379 0.562002 0.927440 0.090223
C9    C     C_R   0.587865 0.563101 0.076406 0.104811
C10   C     C_R   0.414948 0.439560 0.070706 0.094932
C11   C     C_R   0.415086 0.441740 0.923768 -0.050033
C12   C     C_R   0.478328 0.062060 0.880037 -0.138857
C13   C     C_R   0.494083 0.737327 0.500419 0.548442
C14   C     C_R   0.715729 0.499754 0.499903 0.583746
C15   C     C_1   0.162429 0.499442 0.500077 -0.013510
C16   C     C_1   0.059870 0.499408 0.499955 -0.032586
C17   C     C_1   0.939991 0.499407 0.499794 -0.017273
C18   C     C_1   0.837460 0.499485 0.499744 0.031231
C19   C     C_R   0.536821 0.114916 0.766477 0.021170
C20   C     C_3   0.705072 0.169122 0.255618 -0.273568
C21   C     C_2   0.679706 0.726536 0.768845 0.285046
C22   C     C_2   0.632323 0.207775 0.797055 0.275459
C23   C     C_R   0.410838 0.951833 0.864614 0.138847
C24   C     C_3   0.384862 0.784350 0.028619 -0.292993
C25   C     C_2   0.316122 0.370870 0.134081 0.255024
C26   C     C_R   0.410404 0.889331 0.736524 -0.079587
C27   C     C_R   0.471998 0.940418 0.622548 -0.043023
C28   C     C_R   0.515479 0.064005 0.631280 0.021055
C29   C     C_R   0.532105 0.130029 0.504550 0.043288
C30   C     C_R   0.549385 0.062283 0.380595 0.119179
C31   C     C_R   0.534570 0.934345 0.382007 -0.101844
Cu1   Cu    Cu3+1 0.499990 0.499990 0.640660 0.969902
Cu2   Cu    Cu3+1 0.500010 0.500010 0.359340 0.966577
H1    H     H_    0.869088 0.677060 0.893447 0.161846
H2    H     H_    0.763788 0.096483 0.284592 0.167110
H3    H     H_    0.715634 0.248005 0.329977 0.171563
H4    H     H_    0.613893 0.791013 0.787051 0.114986
H5    H     H_    0.636725 0.254965 0.897055 0.094871
H6    H     H_    0.336885 0.963968 0.059476 0.268737
H7    H     H_    0.332010 0.753719 0.119080 0.156728
H8    H     H_    0.476010 0.794459 0.061232 0.137409
H9    H     H_    0.374169 0.712064 0.946463 0.155235
H10   H     H_    0.230308 0.388286 0.099503 0.075920
H11   H     H_    0.346363 0.393264 0.866394 0.122836
H12   H     H_    0.488702 0.104009 0.981828 0.107519
H13   H     H_    0.360364 0.802446 0.725953 0.149065
H14   H     H_    0.554952 0.883506 0.288623 0.142037
H15   H     H_    0.667504 0.666282 0.250282 0.187061
H16   H     H_    0.853126 0.696511 0.143179 0.136067
H17   H     H_    0.530544 0.172393 0.206850 0.294772
H18   H     H_    0.728623 0.202556 0.150307 0.138075
N1    N     N_R   0.501070 0.501210 0.147910 -0.242839
N2    N     N_R   0.501110 0.501290 0.852040 -0.268915
N3    N     N_2   0.587923 0.118407 0.254851 -0.532961
N4    N     N_2   0.347983 0.901525 0.979593 -0.512069
O1    O     O_R   0.499990 0.319640 0.618810 -0.494960
O2    O     O_2   0.708839 0.229446 0.712934 -0.504243
O3    O     O_2   0.328647 0.287985 0.216239 -0.493647
O4    O     O_R   0.500000 0.319660 0.381240 -0.450562
O5    O     O_R   0.337190 0.500000 0.618790 -0.513314
O6    O     O_R   0.337200 0.500030 0.381210 -0.469902
O7    O     O_R   0.500000 0.680340 0.618760 -0.520480
O8    O     O_R   0.500010 0.680360 0.381190 -0.538378
O9    O     O_R   0.662800 0.499970 0.618790 -0.448202
O10   O     O_R   0.662810 0.500000 0.381210 -0.538265
O11   O     O_2   0.750362 0.747231 0.677299 -0.519934

loop_
_geom_bond_atom_site_label_1
_geom_bond_atom_site_label_2
_ccdc_geom_bond_type
C8    N2    A    
C8    C9    A    
C23   N4    S    
C6    C7    A    
C3    C9    A    
C11   N2    A    
C21   O11   D    
C29   C30   A    
C24   H9    S    
C14   C18   S    
C13   O8    A    
Cu2   O8    S    
C10   N1    A    
Cu1   Cu2   S    
C4    O5    A    
C22   O2    D    
C1    C29   S    
C17   C18   T    
Cu2   O10   S    
C11   H11   S    
Cu2   O4    S    
H17   N3    S    
Cu2   N1    S    
C10   C25   S    
C19   C28   A    
C30   N3    S    
C12   C23   A    
C25   H10   S    
C26   C27   A    
C2    C27   A    
C9    N1    A    
C24   H8    S    
C4    C15   S    
C5    C6    A    
C14   O9    A    
C12   C19   A    
Cu2   O6    S    
C28   C29   A    
C24   H7    S    
C14   O10   A    
Cu1   O1    S    
C20   H18   S    
C1    O4    A    
C30   C31   A    
C5    H16   S    
C16   C17   S    
C10   C11   A    
Cu1   O5    S    
Cu1   O7    S    
C15   C16   T    
C22   H5    S    
C3    C5    A    
C3    H15   S    
C7    C8    A    
C19   C22   S    
C21   H4    S    
Cu1   O9    S    
C20   N3    S    
C25   O3    D    
C23   C26   A    
C27   C28   A    
C2    C13   S    
C26   H13   S    
C12   H12   S    
C31   H14   S    
Cu1   N2    S    
C7    C21   S    
C20   H2    S    
C4    O6    A    
C1    O1    A    
H6    N4    S    
C13   O7    A    
C6    H1    S    
C2    C31   A    
C24   N4    S    
C20   H3    S    
