data_mof_unit_43052.cif
_audit_creation_date              2013-03-05T15:51:07-0500
_audit_creation_method            fapswitch 2.2
_symmetry_space_group_name_H-M    P1
_symmetry_Int_Tables_number       1
_space_group_crystal_system       triclinic
_cell_length_a                    14.341825
_cell_length_b                    10.834623
_cell_length_c                    9.597331
_cell_angle_alpha                 89.457256
_cell_angle_beta                  90.134334
_cell_angle_gamma                 93.508565
_cell_volume                      1488.44829703

loop_
_atom_site_label
_atom_site_type_symbol
_atom_site_description
_atom_site_fract_x
_atom_site_fract_y
_atom_site_fract_z
_atom_type_partial_charge
O1    O     O_R   0.499990 0.319640 0.618810 -0.561837
O2    O     O_R   0.500000 0.319660 0.381240 -0.572601
C1    C     C_R   0.493720 0.262169 0.500662 0.865336
O3    O     O_R   0.376050 0.499990 0.618810 -0.556500
O4    O     O_R   0.376060 0.500010 0.381240 -0.539212
C2    C     C_R   0.331418 0.503914 0.499967 0.891157
Cu1   Cu    Cu3+1 0.499990 0.499990 0.640660 0.953963
Cu2   Cu    Cu3+1 0.500010 0.500010 0.359340 0.953718
O5    O     O_R   0.500000 0.680340 0.618760 -0.590250
O6    O     O_R   0.500010 0.680360 0.381190 -0.612532
O7    O     O_R   0.623940 0.499990 0.618760 -0.578015
O8    O     O_R   0.623950 0.500010 0.381190 -0.573882
C3    C     C_R   0.497240 0.737240 0.499045 0.737091
C4    C     C_R   0.668849 0.500777 0.500107 0.784250
C5    C     C_1   0.229125 0.506527 0.500081 -0.089251
C6    C     C_1   0.143717 0.507036 0.500154 0.030044
C7    C     C_1   0.043008 0.506412 0.500236 0.016531
C8    C     C_1   0.957520 0.505341 0.500318 0.013766
C9    C     C_1   0.856762 0.503731 0.500387 -0.003650
C10   C     C_1   0.771265 0.502292 0.500355 -0.194035
H1    H     H_    0.594022 0.119232 0.655811 0.152707
C11   C     C_R   0.341490 0.111447 0.348755 0.334373
C12   C     C_R   0.289181 0.042462 0.249833 -0.176570
H2    H     H_    0.232895 0.082735 0.193356 0.181462
C13   C     C_R   0.301362 0.917733 0.233694 -0.211032
H3    H     H_    0.257080 0.863990 0.162271 0.164930
C14   C     C_R   0.364667 0.859624 0.317423 -0.181674
H4    H     H_    0.363579 0.760538 0.309104 0.172591
C15   C     C_R   0.424855 0.928182 0.409481 0.065414
C16   C     C_R   0.417132 0.057932 0.419307 -0.008881
C17   C     C_R   0.483122 0.127315 0.503539 -0.084609
C18   C     C_R   0.544988 0.067106 0.589425 -0.199577
H5    H     H_    0.596085 0.896021 0.655358 0.141020
C19   C     C_R   0.546883 0.940019 0.588129 -0.192809
C20   C     C_R   0.489584 0.870365 0.496867 -0.063147
H6    H     H_    0.395666 0.356137 0.129949 0.178097
C21   C     C_R   0.623751 0.667324 0.142949 -0.132816
H7    H     H_    0.630140 0.674350 0.252851 0.193039
C22   C     C_R   0.684150 0.749349 0.070083 -0.194688
H8    H     H_    0.731406 0.813293 0.125786 0.153119
C23   C     C_R   0.684632 0.748871 0.926483 -0.209964
H9    H     H_    0.732252 0.812454 0.869893 0.149558
C24   C     C_R   0.624623 0.666493 0.854756 -0.139401
H10   H     H_    0.631774 0.672907 0.744816 0.187507
C25   C     C_R   0.560902 0.582206 0.924594 0.212352
C26   C     C_R   0.560665 0.582414 0.074212 0.201617
N1    N     N_R   0.500820 0.501210 0.147910 -0.199524
C27   C     C_R   0.442495 0.421121 0.074456 -0.050255
H11   H     H_    0.395186 0.356755 0.871888 0.160612
C28   C     C_R   0.442363 0.421318 0.926609 -0.056771
N2    N     N_R   0.500850 0.501290 0.852040 -0.196483
N3    N     N_R   0.304541 0.223518 0.395566 0.088167
O9    O     O_R   0.258514 0.289930 0.308593 -0.408852
O10   O     O_R   0.291172 0.236821 0.528528 -0.403604

loop_
_geom_bond_atom_site_label_1
_geom_bond_atom_site_label_2
_geom_bond_distance
_ccdc_geom_bond_type
O4    Cu2   1.790539 S    
C1    C17   1.459695 S    
C12   H2    1.082784 S    
C3    C20   1.453166 S    
C21   H7    1.061565 S    
C14   C15   1.416984 A    
C23   C24   1.387820 A    
C23   H9    1.083069 S    
C15   C20   1.419565 A    
C9    C10   1.225328 T    
C16   C17   1.426597 A    
Cu2   O8    1.789364 S    
C27   C28   1.418912 A    
C7    C8    1.225405 T    
C21   C26   1.416674 A    
Cu2   N1    2.029139 S    
Cu1   N2    2.028869 S    
Cu1   Cu2   2.699919 S    
C21   C22   1.387821 A    
C13   H3    1.082837 S    
O1    Cu1   1.967218 S    
C25   C26   1.435962 A    
Cu1   O7    1.790541 S    
C24   C25   1.416875 A    
C15   C16   1.420924 A    
O3    Cu1   1.789363 S    
O3    C2    1.308221 A    
O7    C4    1.309294 A    
O8    C4    1.308944 A    
H6    C27   1.080348 S    
C11   N3    1.430818 S    
O2    C1    1.299932 A    
C12   C13   1.383386 A    
C24   H10   1.061543 S    
O4    C2    1.310627 A    
C19   C20   1.394711 A    
H1    C18   1.084223 S    
C13   C14   1.386860 A    
C25   N2    1.382594 A    
C5    C6    1.225263 T    
C4    C10   1.467919 S    
C14   H4    1.076427 S    
H5    C19   1.083837 S    
N3    O9    1.301696 A    
C22   C23   1.378273 A    
Cu2   O6    1.967218 S    
H11   C28   1.081795 S    
C22   H8    1.083034 S    
Cu1   O5    1.963306 S    
O5    C3    1.300402 A    
C26   N1    1.381900 A    
C8    C9    1.444085 S    
C11   C16   1.427467 A    
C28   N2    1.366988 A    
C2    C5    1.469070 S    
C11   C12   1.401522 A    
C17   C18   1.396231 A    
O2    Cu2   1.963306 S    
N1    C27   1.367340 A    
N3    O10   1.301516 A    
C6    C7    1.443950 S    
O1    C1    1.299080 A    
O6    C3    1.295054 A    
C18   C19   1.379044 A    
