data_mof_unit_56050.cif
_audit_creation_date              2012-12-10T17:14:44-0500
_audit_creation_method            fapswitch 2.2
_symmetry_space_group_name_H-M    P1
_symmetry_Int_Tables_number       1
_space_group_crystal_system       triclinic
_cell_length_a                    10.624938
_cell_length_b                    12.993347
_cell_length_c                    11.682693
_cell_angle_alpha                 100.200868
_cell_angle_beta                  94.240258
_cell_angle_gamma                 90.422933
_cell_volume                      1582.65306406

loop_
_atom_site_label
_atom_site_type_symbol
_atom_type_description
_atom_site_fract_x
_atom_site_fract_y
_atom_site_fract_z
_atom_type_partial_charge
C1    C     C_R   0.497861 0.298997 0.478338 0.830945
C2    C     C_R   0.502524 0.700951 0.521646 0.831400
C3    C     C_R   0.506039 0.139935 0.565691 -0.251357
C4    C     C_R   0.493605 0.859965 0.434467 -0.247485
C5    C     C_R   0.505582 0.031737 0.556273 0.012023
C6    C     C_R   0.494306 0.968171 0.444018 0.015439
C7    C     C_R   0.389807 0.395787 0.018633 -0.438672
C8    C     C_R   0.609624 0.605535 0.981035 -0.432121
C9    C     C_R   0.398127 0.405471 0.142265 0.664134
C10   C     C_R   0.602827 0.594383 0.856607 0.664306
C11   C     C_R   0.545005 0.547227 0.158311 -0.050446
C12   C     C_R   0.453283 0.454330 0.841915 -0.045421
C13   C     C_R   0.538375 0.539352 0.035152 0.025830
C14   C     C_R   0.459602 0.462866 0.964856 0.024601
C15   C     C_R   0.259281 0.500644 0.499975 0.779937
C16   C     C_R   0.740727 0.500230 0.500302 0.790817
C17   C     C_3   0.043710 0.416720 0.539232 0.129874
C18   C     C_3   0.956356 0.585261 0.462506 0.133211
C19   C     C_3   0.951348 0.413833 0.430332 -0.217493
C20   C     C_3   0.048828 0.587985 0.571219 -0.218595
C21   C     C_3   0.877378 0.500765 0.501338 -0.032412
C22   C     C_3   0.122658 0.501088 0.499969 -0.032641
C23   C     C_3   0.968089 0.502683 0.610802 -0.172957
C24   C     C_3   0.031797 0.499361 0.390699 -0.174909
C25   C     C_R   0.504316 0.814384 0.534335 -0.141078
C26   C     C_R   0.496249 0.185466 0.465645 -0.138124
C27   C     C_R   0.483801 0.013804 0.343129 0.438420
C28   C     C_R   0.516422 0.985864 0.657072 0.444797
C29   C     C_R   0.486187 0.122487 0.354698 -0.274272
C30   C     C_R   0.517279 0.877215 0.645152 -0.289012
Cu1   Cu    Cu3+1 0.509400 0.507730 0.615930 0.970449
Cu2   Cu    Cu3+1 0.490600 0.492270 0.384070 0.966849
H1    H     H_    0.908552 0.342755 0.373517 0.137747
H2    H     H_    0.091827 0.659002 0.628016 0.130439
H3    H     H_    0.939532 0.503450 0.700474 0.148077
H4    H     H_    0.059821 0.499375 0.301086 0.139793
H5    H     H_    0.484331 0.810860 0.348916 0.204107
H6    H     H_    0.514217 0.189030 0.651260 0.203071
H7    H     H_    0.528725 0.842440 0.722908 0.191670
H8    H     H_    0.481053 0.157158 0.276734 0.196632
H9    H     H_    0.391752 0.395744 0.787346 0.135292
H10   H     H_    0.606274 0.605902 0.213027 0.140875
H11   H     H_    0.332483 0.334660 0.963709 0.133952
H12   H     H_    0.669022 0.664789 0.036703 0.133138
N1    N     N_R   0.523540 0.519360 0.790140 -0.210002
N2    N     N_R   0.476460 0.480640 0.209860 -0.211657
O1    O     O_R   0.506670 0.354460 0.582000 -0.606581
O2    O     O_R   0.493330 0.645540 0.418000 -0.608319
O3    O     O_R   0.490800 0.341410 0.386200 -0.531674
O4    O     O_R   0.509200 0.658590 0.613800 -0.537358
O5    O     O_R   0.324790 0.506500 0.597880 -0.596604
O6    O     O_R   0.675210 0.493500 0.402120 -0.596806
O7    O     O_R   0.308910 0.493440 0.402080 -0.561230
O8    O     O_R   0.691090 0.506560 0.597920 -0.547394
C31   C     C_3   0.099486 0.322161 0.584844 -0.421851
C32   C     C_3   0.995795 0.247737 0.608117 -0.326622
C33   C     C_3   0.052460 0.153755 0.653643 -0.856983
H13   H     H_    0.112375 0.109435 0.588683 0.251269
H14   H     H_    0.110549 0.179896 0.736957 0.241636
H15   H     H_    0.975462 0.100949 0.669456 0.250896
H16   H     H_    0.934734 0.289757 0.673669 0.221035
H17   H     H_    0.936249 0.219253 0.526144 0.219098
H18   H     H_    0.160750 0.279918 0.519819 0.187500
H19   H     H_    0.159005 0.350537 0.666836 0.198339
C34   C     C_3   0.901407 0.681316 0.419780 -0.408553
C35   C     C_3   0.005908 0.753019 0.392308 -0.355100
C36   C     C_3   0.950753 0.849326 0.350785 -0.831631
H20   H     H_    0.887467 0.825680 0.270166 0.253511
H21   H     H_    0.896578 0.895188 0.419495 0.261814
H22   H     H_    0.028439 0.899757 0.331470 0.231727
H23   H     H_    0.070451 0.779011 0.471683 0.216070
H24   H     H_    0.061694 0.709682 0.323131 0.216354
H25   H     H_    0.837375 0.654854 0.340204 0.198192
H26   H     H_    0.845234 0.724765 0.488559 0.195149
O9    O     O_3   0.482207 0.952293 0.233464 -0.588807
C37   C     C_3   0.357445 0.944787 0.181673 0.038845
H27   H     H_    0.328353 0.020997 0.158358 0.148262
H28   H     H_    0.289676 0.920227 0.240788 0.136011
C38   C     C_3   0.351319 0.862885 0.070693 -0.790672
H29   H     H_    0.376549 0.785241 0.092002 0.248724
H30   H     H_    0.254267 0.857784 0.027438 0.194905
H31   H     H_    0.418257 0.884266 0.009696 0.251822
O10   O     O_3   0.538136 0.046664 0.766706 -0.582895
C39   C     C_3   0.424577 0.053884 0.822858 0.024383
H32   H     H_    0.384190 0.975194 0.826394 0.140056
H33   H     H_    0.353868 0.098390 0.777083 0.139008
C40   C     C_3   0.451189 0.111732 0.947471 -0.759944
H34   H     H_    0.493683 0.190023 0.947470 0.255138
H35   H     H_    0.361989 0.121282 0.991618 0.193324
H36   H     H_    0.517803 0.066849 0.996494 0.263183
O11   O     O_3   0.669471 0.658216 0.796727 -0.555073
C41   C     C_3   0.766618 0.720442 0.864757 0.011072
H37   H     H_    0.832816 0.671535 0.909436 0.137374
H38   H     H_    0.725998 0.782516 0.928956 0.158725
C42   C     C_3   0.841136 0.774240 0.785059 -0.779755
H39   H     H_    0.778875 0.826262 0.741425 0.254325
H40   H     H_    0.919949 0.821797 0.836738 0.198080
H41   H     H_    0.880453 0.714955 0.717490 0.244383
O12   O     O_3   0.339726 0.333430 0.196846 -0.560646
C43   C     C_3   0.213820 0.310077 0.151426 0.033168
H42   H     H_    0.210502 0.256725 0.065768 0.133130
H43   H     H_    0.161194 0.382554 0.143008 0.131869
C44   C     C_3   0.148303 0.252917 0.233848 -0.796077
H44   H     H_    0.155255 0.300772 0.322451 0.253518
H45   H     H_    0.047268 0.238425 0.203119 0.201322
H46   H     H_    0.194023 0.176916 0.237808 0.228188

loop_
_geom_bond_atom_site_label_1
_geom_bond_atom_site_label_2
_ccdc_geom_bond_type
C31   C32   S    
C16   C21   S    
C27   C29   A    
C18   C21   S    
C42   H39   S    
C37   C38   S    
C40   H34   S    
C4    C25   A    
C42   H41   S    
C18   C34   S    
C17   C23   S    
O10   C39   S    
C18   C24   S    
C15   O7    A    
C19   C21   S    
C39   H33   S    
C5    C6    A    
C33   H14   S    
C34   H25   S    
C32   C33   S    
C11   H10   S    
Cu2   O6    S    
C2    O4    A    
C15   C22   S    
C35   H24   S    
O12   C43   S    
C3    H6    S    
C31   H18   S    
C39   C40   S    
C7    H11   S    
C44   H46   S    
C17   C31   S    
C18   C20   S    
C6    C27   A    
C20   H2    S    
C35   C36   S    
C9    N2    A    
C9    O12   S    
Cu1   O1    S    
C13   C14   A    
C28   O10   S    
Cu2   O2    S    
C27   O9    S    
C43   H43   S    
C7    C14   A    
C37   H28   S    
C36   H20   S    
C8    H12   S    
C37   H27   S    
C4    C6    A    
C19   H1    S    
Cu1   O5    S    
O11   C41   S    
C38   H30   S    
C1    O1    A    
C33   H15   S    
C2    O2    A    
C43   C44   S    
C34   H26   S    
C36   H21   S    
O9    C37   S    
C35   H23   S    
C12   H9    S    
C5    C28   A    
Cu1   Cu2   S    
C20   C23   S    
C15   O5    A    
C31   H19   S    
C10   N1    A    
C41   H38   S    
C44   H45   S    
C24   H4    S    
C39   H32   S    
C12   C14   A    
C10   O11   S    
C23   H3    S    
C21   C23   S    
C1    C26   S    
C22   C24   S    
Cu1   O4    S    
Cu2   O7    S    
C25   C30   A    
C7    C9    A    
Cu2   N2    S    
C3    C26   A    
C16   O6    A    
C20   C22   S    
C12   N1    A    
C3    C5    A    
C38   H31   S    
C42   H40   S    
C17   C22   S    
C36   H22   S    
C40   H35   S    
C19   C24   S    
C11   C13   A    
C33   H13   S    
C29   H8    S    
C28   C30   A    
C41   H37   S    
C17   C19   S    
C30   H7    S    
C2    C25   S    
C32   H17   S    
C41   C42   S    
Cu1   O8    S    
C16   O8    A    
Cu2   O3    S    
C38   H29   S    
C8    C13   A    
C4    H5    S    
C26   C29   A    
C8    C10   A    
C34   C35   S    
Cu1   N1    S    
C40   H36   S    
C44   H44   S    
C32   H16   S    
C11   N2    A    
C43   H42   S    
C1    O3    A    
