data_mof_unit_19612.cif
_audit_creation_date              2012-12-10T19:16:27-0500
_audit_creation_method            fapswitch 2.2
_symmetry_space_group_name_H-M    P1
_symmetry_Int_Tables_number       1
_space_group_crystal_system       triclinic
_cell_length_a                    10.755672
_cell_length_b                    10.043201
_cell_length_c                    27.52116
_cell_angle_alpha                 89.39056
_cell_angle_beta                  90.284642
_cell_angle_gamma                 89.001857
_cell_volume                      2972.21483324

loop_
_atom_site_label
_atom_site_type_symbol
_atom_type_description
_atom_site_fract_x
_atom_site_fract_y
_atom_site_fract_z
_atom_type_partial_charge
C1    C     C_R   0.257717 0.500377 0.499834 0.913745
C2    C     C_R   0.320688 0.524784 0.973747 0.064828
C3    C     C_R   0.525627 0.409966 0.978332 -0.098018
C4    C     C_R   0.506300 0.500052 0.405859 1.031570
C5    C     C_R   0.427796 0.470435 0.950655 0.033128
C6    C     C_R   0.222493 0.576546 0.944582 -0.170909
C7    C     C_R   0.231332 0.578910 0.894228 -0.108487
C8    C     C_R   0.338886 0.531370 0.871394 -0.012764
C9    C     C_R   0.437784 0.478035 0.899598 -0.051661
C10   C     C_R   0.546851 0.432576 0.876691 -0.101697
C11   C     C_R   0.554447 0.439258 0.826028 0.544202
C12   C     C_R   0.343715 0.432682 0.288094 -0.056062
C13   C     C_R   0.350124 0.535268 0.820735 0.511401
C14   C     C_R   0.476658 0.614207 0.723085 -0.098469
C15   C     C_R   0.488957 0.616820 0.672808 -0.224057
C16   C     C_R   0.740110 0.499315 0.505822 0.862809
C17   C     C_R   0.481182 0.375185 0.671804 -0.222493
C18   C     C_R   0.468721 0.372989 0.721985 -0.101875
C19   C     C_R   0.466276 0.492334 0.747643 0.311066
C20   C     C_R   0.316068 0.525852 0.025144 0.050571
C21   C     C_R   0.404903 0.448896 0.051719 0.084174
C22   C     C_R   0.502691 0.381012 0.027736 0.077743
C23   C     C_R   0.428484 0.472168 0.253304 0.185585
C24   C     C_R   0.226533 0.601100 0.051046 -0.190752
C25   C     C_R   0.559706 0.269764 0.103652 -0.108651
C26   C     C_R   0.641986 0.384020 0.955269 0.409471
C27   C     C_R   0.648370 0.388462 0.904701 -0.186880
C28   C     C_R   0.498864 0.499319 0.593697 0.822539
C29   C     C_R   0.569885 0.281518 0.053506 -0.100329
C30   C     C_3   0.071051 0.615821 0.534084 -0.418952
C31   C     C_3   0.074641 0.370643 0.527788 -0.414349
C32   C     C_3   0.928359 0.611873 0.539577 -0.415538
C33   C     C_3   0.932142 0.366376 0.526829 -0.394752
C34   C     C_R   0.397664 0.440934 0.102807 -0.053534
C35   C     C_3   0.056835 0.506053 0.448321 0.668168
C36   C     C_3   0.119032 0.499391 0.501242 -0.043578
C37   C     C_3   0.876566 0.500005 0.507148 0.033813
C38   C     C_3   0.916662 0.528179 0.454631 -0.364392
C39   C     C_3   0.376577 0.081932 0.485598 -0.275856
C40   C     C_3   0.372323 0.922745 0.492086 -0.245832
C41   C     C_3   0.606461 0.076617 0.467414 0.552973
C42   C     C_3   0.574762 0.921993 0.456489 0.414179
C43   C     C_3   0.518726 0.077657 0.548915 -0.330118
C44   C     C_3   0.537001 0.918369 0.546913 -0.337789
C45   C     C_R   0.311600 0.521396 0.127896 -0.034323
C46   C     C_R   0.318230 0.525359 0.178723 0.546062
C47   C     C_R   0.479860 0.359142 0.179479 0.540480
C48   C     C_R   0.543129 0.522231 0.267446 -0.155008
C49   C     C_R   0.576249 0.530622 0.316492 0.391189
C50   C     C_R   0.373769 0.444075 0.336833 -0.101555
C51   C     C_3   0.735102 0.084765 0.496100 -0.889133
C52   C     C_3   0.696796 0.842529 0.450383 -0.678688
C53   C     C_R   0.225804 0.600389 0.101655 -0.111306
C54   C     C_R   0.479068 0.354945 0.128831 -0.037805
C55   C     C_R   0.486958 0.497017 0.352432 -0.189950
C56   C     C_R   0.491035 0.497200 0.646777 -0.027270
H1    H     H_    0.309176 0.407259 0.362714 0.260769
H2    H     H_    0.114538 0.607107 0.570817 0.172679
H3    H     H_    0.108020 0.368884 0.566168 0.177472
H4    H     H_    0.903626 0.592934 0.578229 0.182759
H5    H     H_    0.896603 0.344789 0.563948 0.164683
H6    H     H_    0.256442 0.389240 0.277404 0.182649
H7    H     H_    0.888571 0.710947 0.529441 0.193752
H8    H     H_    0.904821 0.284263 0.503324 0.246623
H9    H     H_    0.889220 0.633120 0.446021 0.216748
H10   H     H_    0.864071 0.468521 0.428386 0.265772
H11   H     H_    0.348536 0.116427 0.449455 0.271215
H12   H     H_    0.609716 0.545677 0.239396 0.207550
H13   H     H_    0.321708 0.877521 0.461739 0.262349
H14   H     H_    0.302897 0.126064 0.508972 0.166681
H15   H     H_    0.312217 0.898235 0.523721 0.147361
H16   H     H_    0.596121 0.123840 0.568970 0.172787
H17   H     H_    0.631148 0.882767 0.557496 0.159792
H18   H     H_    0.437878 0.101774 0.572671 0.162344
H19   H     H_    0.478607 0.874638 0.576053 0.177126
H20   H     H_    0.158481 0.663080 0.120122 0.201153
H21   H     H_    0.496319 0.712221 0.654440 0.153183
H22   H     H_    0.475696 0.706575 0.743036 0.144377
H23   H     H_    0.617951 0.196907 0.122632 0.203643
H24   H     H_    0.153465 0.618814 0.873256 0.201793
H25   H     H_    0.136009 0.612284 0.959747 0.175858
H26   H     H_    0.159794 0.666550 0.033137 0.159121
H27   H     H_    0.860388 0.440235 0.055848 0.390194
H28   H     H_    0.121018 0.857094 0.414185 0.412831
H29   H     H_    0.080294 0.298755 0.337292 0.392654
H30   H     H_    0.589406 0.223111 0.337486 0.403467
H31   H     H_    0.379443 0.784655 0.351079 0.403013
H32   H     H_    0.818208 0.079067 0.472360 0.288842
H33   H     H_    0.740218 0.175004 0.517349 0.249434
H34   H     H_    0.482117 0.281434 0.652712 0.154585
H35   H     H_    0.754227 0.008176 0.523845 0.176121
H36   H     H_    0.675386 0.747804 0.434308 0.306341
H37   H     H_    0.763849 0.886913 0.425315 0.279574
H38   H     H_    0.747009 0.827627 0.484908 0.188381
H39   H     H_    0.893866 0.600627 0.282804 0.423393
H40   H     H_    0.735860 0.363813 0.887328 0.232537
H41   H     H_    0.460943 0.278632 0.741050 0.143035
H42   H     H_    0.630487 0.212151 0.035099 0.196939
H43   H     H_    0.098521 0.714356 0.519989 0.246778
H44   H     H_    0.112549 0.278360 0.511150 0.233769
N1    N     N_R   0.405158 0.448881 0.203041 -0.344772
N2    N     N_R   0.456577 0.489102 0.799300 -0.357406
N3    N     N_3   0.499750 0.138610 0.498940 -0.114563
N4    N     N_3   0.499750 0.861390 0.498940 -0.106909
O1    O     O_R   0.314910 0.616040 0.499990 -0.587574
O2    O     O_2   0.255439 0.583770 0.793056 -0.553503
O3    O     O_2   0.557401 0.277498 0.205103 -0.515618
O4    O     O_2   0.659080 0.397316 0.803528 -0.547148
O5    O     O_2   0.830298 0.236484 0.993145 -0.308211
O6    O     O_2   0.882510 0.450390 0.956380 -0.294433
O7    O     O_3   0.777335 0.453572 0.040675 -0.542787
O8    O     O_2   0.242654 0.613258 0.400021 -0.309136
O9    O     O_2   0.037281 0.651267 0.364773 -0.193267
O10   O     O_3   0.097461 0.790496 0.439143 -0.618368
O11   O     O_2   0.205963 0.291502 0.423353 -0.366691
O12   O     O_R   0.314910 0.383960 0.499990 -0.608922
O13   O     O_2   0.985161 0.250480 0.424869 -0.283749
O14   O     O_3   0.069599 0.386132 0.353239 -0.473897
O15   O     O_2   0.724414 0.287227 0.420979 -0.250712
O16   O     O_2   0.744927 0.079573 0.382377 -0.229670
O17   O     O_3   0.544620 0.211224 0.368568 -0.472782
O18   O     O_2   0.415320 0.026251 0.381119 -0.263970
O19   O     O_2   0.591853 0.891276 0.355743 -0.200315
O20   O     O_3   0.394340 0.787711 0.386635 -0.491095
O21   O     O_2   0.756286 0.640076 0.370171 -0.318633
O22   O     O_2   0.795322 0.418071 0.337471 -0.224772
O23   O     O_R   0.500140 0.616020 0.428740 -0.538427
O24   O     O_3   0.803994 0.621383 0.278910 -0.502319
O25   O     O_R   0.500140 0.383980 0.428740 -0.521950
O26   O     O_R   0.685320 0.616040 0.499970 -0.666081
O27   O     O_R   0.685320 0.383960 0.499970 -0.595671
O28   O     O_R   0.500090 0.616050 0.571230 -0.639357
O29   O     O_R   0.500090 0.383950 0.571230 -0.645644
O30   O     O_2   0.241836 0.607902 0.203489 -0.518106
S1    S     S_3+6 0.787615 0.378819 0.986386 0.010490
S2    S     S_3+6 0.110338 0.642664 0.411435 0.050992
S3    S     S_3+6 0.080762 0.352851 0.413147 0.037492
S4    S     S_3+6 0.653683 0.165155 0.409564 0.129731
S5    S     S_3+6 0.495044 0.908399 0.394547 0.067037
S6    S     S_3+6 0.735995 0.552194 0.327771 0.081098
Zn1   Zn    Zn3+2 0.500150 0.654960 0.499980 0.975077
Zn2   Zn    Zn3+2 0.500150 0.345040 0.499980 1.005544

loop_
_geom_bond_atom_site_label_1
_geom_bond_atom_site_label_2
_ccdc_geom_bond_type
C10   C27   A    
C43   H16   S    
C47   N1    A    
C40   H15   S    
O5    S1    D    
C41   C42   S    
O20   S5    S    
C35   C36   S    
C44   N4    S    
C7    C8    A    
C15   H21   S    
C45   C46   A    
C12   C23   A    
O22   S6    D    
C26   C27   A    
C8    C13   A    
C29   H42   S    
C22   C29   A    
O18   S5    D    
C31   C36   S    
O1    Zn1   S    
H31   O20   S    
C19   N2    S    
C40   N4    S    
O19   S5    D    
C18   C19   A    
O23   Zn1   S    
C31   H3    S    
O26   Zn1   S    
C16   O27   A    
C24   H26   S    
C26   S1    S    
C51   H35   S    
H39   O24   S    
C20   C24   A    
C8    C9    A    
O9    S2    D    
C31   C33   S    
C52   H38   S    
C1    O12   A    
O14   S3    S    
C16   O26   A    
C9    C10   A    
C16   C37   S    
C43   H18   S    
C45   C53   A    
C6    H25   S    
C21   C22   A    
O15   S4    D    
C27   H40   S    
C2    C6    A    
O8    S2    D    
O21   S6    D    
C25   C29   A    
C46   N1    A    
C40   H13   S    
C2    C20   A    
C28   O29   A    
C38   H10   S    
C35   C38   S    
O6    S1    D    
C25   C54   A    
C39   C40   S    
C21   C34   A    
C24   C53   A    
C31   H44   S    
C30   H43   S    
C33   C37   S    
C41   N3    S    
C28   O28   A    
O17   S4    S    
C35   S2    S    
C44   H19   S    
C43   C44   S    
C5    C9    A    
C37   C38   S    
C46   O30   S    
C12   H6    S    
C14   C15   A    
C38   H9    S    
H30   O17   S    
C17   C18   A    
O29   Zn2   S    
C52   H37   S    
C34   C45   A    
C32   C37   S    
C48   H12   S    
C17   C56   A    
C41   S4    S    
C4    O25   A    
O27   Zn2   S    
C47   C54   A    
O12   Zn2   S    
C48   C49   A    
C18   H41   S    
C34   C54   A    
C47   O3    S    
C4    C55   S    
H27   O7    S    
C52   H36   S    
C53   H20   S    
O16   S4    D    
C32   H4    S    
N3    Zn2   S    
O28   Zn1   S    
H28   O10   S    
C23   C48   A    
C4    O23   A    
C42   S5    S    
C25   H23   S    
C50   H1    S    
C39   H11   S    
C14   C19   A    
C3    C26   A    
O13   S3    D    
C17   H34   S    
C32   H7    S    
C13   O2    S    
C3    C5    A    
C42   N4    S    
C51   H32   S    
C12   C50   A    
C39   N3    S    
C6    C7    A    
O25   Zn2   S    
C50   C55   A    
C30   C36   S    
C15   C56   A    
O11   S3    D    
O24   S6    S    
H29   O14   S    
C49   C55   A    
C35   S3    S    
C30   C32   S    
O7    S1    S    
C23   N1    S    
C28   C56   S    
C33   H8    S    
C30   H2    S    
C39   H14   S    
C11   N2    A    
C14   H22   S    
C44   H17   S    
C43   N3    S    
C10   C11   A    
C2    C5    A    
C20   C21   A    
C33   H5    S    
C49   S6    S    
C1    O1    A    
C11   O4    S    
O10   S2    S    
N4    Zn1   S    
C3    C22   A    
C13   N2    A    
C41   C51   S    
C51   H33   S    
C1    C36   S    
C42   C52   S    
C7    H24   S    
