data_mof_unit_54147.cif
_audit_creation_date              2012-12-11T14:08:29-0500
_audit_creation_method            fapswitch 2.2
_symmetry_space_group_name_H-M    P1
_symmetry_Int_Tables_number       1
_space_group_crystal_system       triclinic
_cell_length_a                    28.169737
_cell_length_b                    7.178057
_cell_length_c                    17.34955
_cell_angle_alpha                 89.982801
_cell_angle_beta                  101.452477
_cell_angle_gamma                 90.076532
_cell_volume                      3438.29677969

loop_
_atom_site_label
_atom_site_type_symbol
_atom_type_description
_atom_site_fract_x
_atom_site_fract_y
_atom_site_fract_z
_atom_type_partial_charge
O1    O     O_R   0.000700 0.436510 0.857920 -0.514843
O2    O     O_R   0.999300 0.563490 0.142080 -0.510324
O3    O     O_R   0.999300 0.936510 0.642080 -0.515041
O4    O     O_R   0.000700 0.063490 0.357920 -0.508210
O5    O     O_R   0.930080 0.766380 0.721890 -0.508803
O6    O     O_R   0.069920 0.233620 0.278110 -0.514135
O7    O     O_R   0.069920 0.266380 0.778110 -0.508837
O8    O     O_R   0.930080 0.733620 0.221890 -0.508282
C1    C     C_R   0.910367 0.597513 0.709096 0.765754
C2    C     C_R   0.089502 0.402549 0.290318 0.776269
C3    C     C_R   0.089577 0.097709 0.790911 0.767071
C4    C     C_R   0.910416 0.902267 0.209156 0.768340
O9    O     O_R   0.996180 0.766230 0.862310 -0.554211
O10   O     O_R   0.003820 0.233770 0.137690 -0.557679
O11   O     O_R   0.003820 0.266230 0.637690 -0.553736
O12   O     O_R   0.996180 0.733770 0.362310 -0.559836
O13   O     O_R   0.065870 0.936460 0.783500 -0.509046
O14   O     O_R   0.934130 0.063540 0.216500 -0.508711
O15   O     O_R   0.934130 0.436460 0.716500 -0.509203
O16   O     O_R   0.065870 0.563540 0.283500 -0.515497
C5    C     C_R   0.999313 0.596497 0.894701 0.695175
C6    C     C_R   0.000698 0.403505 0.105303 0.699797
C7    C     C_R   0.000701 0.096515 0.605294 0.694961
C8    C     C_R   0.999293 0.903487 0.394704 0.690458
O17   O     O_3   0.022790 0.603020 0.723980 -0.360491
O18   O     O_3   0.977210 0.396980 0.276020 -0.359333
O19   O     O_3   0.977210 0.103020 0.776020 -0.361014
O20   O     O_3   0.022790 0.896980 0.223980 -0.362914
V1    V     V_3+5 0.995770 0.877900 0.754830 1.659661
V2    V     V_3+5 0.004230 0.122100 0.245170 1.653806
V3    V     V_3+5 0.004230 0.377900 0.745170 1.660996
V4    V     V_3+5 0.995770 0.622100 0.254830 1.652651
C9    C     C_2   0.996761 0.083216 0.518003 0.159550
C10   C     C_2   0.003230 0.916789 0.481995 0.154252
C11   C     C_2   0.003298 0.583198 0.981997 0.154661
C12   C     C_2   0.996731 0.416795 0.018012 0.149182
C13   C     C_R   0.683775 0.001068 0.031480 0.653874
C14   C     C_R   0.316107 0.996728 0.968908 0.653962
C15   C     C_R   0.315316 0.498738 0.464690 0.661565
C16   C     C_R   0.683589 0.495672 0.530360 0.654131
O21   O     O_2   0.713828 0.029779 0.980943 -0.496337
O22   O     O_2   0.286039 0.968516 0.019452 -0.496673
O23   O     O_2   0.284683 0.537278 0.513291 -0.492063
O24   O     O_2   0.713803 0.466795 0.480136 -0.496234
N1    N     N_R   0.702311 0.951527 0.107767 -0.551465
N2    N     N_R   0.297613 0.046702 0.892667 -0.551601
N3    N     N_R   0.297248 0.442816 0.389220 -0.555676
N4    N     N_R   0.701961 0.546137 0.606624 -0.551185
C17   C     C_R   0.672205 0.921839 0.159783 0.696438
C18   C     C_R   0.327730 0.075727 0.840626 0.696840
C19   C     C_R   0.327438 0.408653 0.337949 0.699970
C20   C     C_R   0.671604 0.576092 0.658228 0.696703
C21   C     C_R   0.775610 0.771762 0.166091 -0.173090
C22   C     C_R   0.224448 0.227286 0.834352 -0.173146
C23   C     C_R   0.220133 0.577998 0.320413 -0.169168
C24   C     C_R   0.775351 0.726531 0.665456 -0.173503
C25   C     C_R   0.826284 0.757373 0.191912 0.304176
C26   C     C_R   0.173784 0.242102 0.808441 0.305077
C27   C     C_R   0.169285 0.571091 0.295921 0.306753
C28   C     C_R   0.826064 0.741427 0.691474 0.303812
C29   C     C_R   0.834202 0.079144 0.151412 0.534561
C30   C     C_R   0.165659 0.920468 0.848901 0.534330
C31   C     C_R   0.169647 0.263508 0.355597 0.533467
C32   C     C_R   0.834037 0.419851 0.651138 0.534516
C33   C     C_R   0.783960 0.091600 0.127989 -0.166733
C34   C     C_R   0.215880 0.907590 0.872407 -0.167159
C35   C     C_R   0.220059 0.273269 0.379520 -0.160989
C36   C     C_R   0.783762 0.406908 0.627455 -0.167291
C37   C     C_R   0.754264 0.938183 0.134290 0.232069
C38   C     C_R   0.245676 0.060689 0.866161 0.232159
C39   C     C_R   0.245492 0.430298 0.362277 0.235715
C40   C     C_R   0.753971 0.559965 0.633540 0.232562
C41   C     C_R   0.601787 0.981861 0.056157 -0.148434
C42   C     C_R   0.398088 0.014337 0.944165 -0.149158
C43   C     C_R   0.397593 0.476000 0.441253 -0.147338
C44   C     C_R   0.601369 0.513872 0.554281 -0.148389
C45   C     C_R   0.633552 0.021187 0.005042 -0.094632
C46   C     C_R   0.366303 0.975601 0.995286 -0.093618
C47   C     C_R   0.365592 0.518098 0.491716 -0.098367
C48   C     C_R   0.633358 0.474672 0.503584 -0.094201
C49   C     C_R   0.614838 0.091952 0.930295 -0.143065
C50   C     C_R   0.384958 0.904244 0.069939 -0.140684
C51   C     C_R   0.384165 0.591654 0.566029 -0.144865
C52   C     C_R   0.614861 0.402964 0.428919 -0.142628
C53   C     C_R   0.621309 0.937540 0.135163 -0.189996
C54   C     C_R   0.378600 0.058874 0.865178 -0.189819
C55   C     C_R   0.378285 0.427528 0.362566 -0.190023
C56   C     C_R   0.620689 0.559325 0.633248 -0.189677
C57   C     C_R   0.856391 0.912379 0.184003 -0.220058
C58   C     C_R   0.143584 0.087354 0.816245 -0.219307
C59   C     C_R   0.143433 0.412476 0.314002 -0.218686
C60   C     C_R   0.856248 0.586802 0.683761 -0.218902
H1    H     H_    0.767990 0.221666 0.104034 0.169058
H2    H     H_    0.231758 0.777408 0.896366 0.168889
H3    H     H_    0.239444 0.158782 0.412198 0.171443
H4    H     H_    0.767846 0.276658 0.603461 0.169358
H5    H     H_    0.638741 0.141338 0.892835 0.212036
H6    H     H_    0.361011 0.855041 0.107349 0.210634
H7    H     H_    0.360151 0.642666 0.602931 0.212513
H8    H     H_    0.638930 0.353787 0.391762 0.212315
C61   C     C_R   0.480867 0.036822 0.919014 -0.034969
C62   C     C_R   0.518990 0.958057 0.081263 -0.035919
C63   C     C_R   0.518362 0.536338 0.578677 -0.034733
C64   C     C_R   0.480573 0.453355 0.416667 -0.035644
C65   C     C_R   0.467910 0.951761 0.051240 -0.000243
C66   C     C_R   0.531931 0.043341 0.949015 -0.000561
C67   C     C_R   0.531697 0.449260 0.446909 -0.001118
C68   C     C_R   0.467281 0.541724 0.548330 -0.000015
C69   C     C_R   0.449178 0.003813 0.971803 -0.073043
C70   C     C_R   0.550683 0.991608 0.028491 -0.072917
C71   C     C_R   0.550253 0.502708 0.526275 -0.073103
C72   C     C_R   0.448705 0.487443 0.469107 -0.072662
C73   C     C_R   0.460313 0.047405 0.837144 0.366388
C74   C     C_R   0.539552 0.946748 0.163135 0.368953
C75   C     C_R   0.538735 0.548558 0.660589 0.367553
C76   C     C_R   0.460078 0.439452 0.334810 0.370724
C77   C     C_R   0.409952 0.071584 0.811748 0.577899
C78   C     C_R   0.589947 0.923684 0.188543 0.578422
C79   C     C_R   0.589109 0.573025 0.686293 0.577920
C80   C     C_R   0.409763 0.412697 0.309455 0.575794
O25   O     O_2   0.308431 0.117829 0.765146 -0.449059
O26   O     O_2   0.691536 0.880138 0.235304 -0.449124
O27   O     O_2   0.690683 0.618966 0.733718 -0.449072
O28   O     O_2   0.308223 0.357205 0.263504 -0.446881
C81   C     C_R   0.565235 0.113799 0.904570 0.692310
C82   C     C_R   0.434540 0.881441 0.095589 0.691245
C83   C     C_R   0.433796 0.613467 0.592105 0.692790
C84   C     C_R   0.565296 0.379505 0.402927 0.691408
H9    H     H_    0.247572 0.345809 0.829765 0.149182
H10   H     H_    0.752568 0.652995 0.170720 0.149260
H11   H     H_    0.752316 0.845131 0.669966 0.149691
H12   H     H_    0.240180 0.698972 0.307331 0.145315
O29   O     O_3   0.984293 0.240723 0.472198 -0.641215
H13   H     H_    0.976020 0.343712 0.505044 0.304213
O30   O     O_3   0.015687 0.759275 0.527802 -0.643548
H14   H     H_    0.023926 0.656234 0.494951 0.301995
O31   O     O_3   0.015918 0.740675 0.027800 -0.640319
H15   H     H_    0.024229 0.843684 0.994930 0.304430
O32   O     O_3   0.984130 0.259300 0.972213 -0.643118
H16   H     H_    0.975827 0.156273 0.005080 0.304647
F1    F     F_    0.860897 0.230909 0.140449 -0.654050
F2    F     F_    0.138874 0.768949 0.859834 -0.654175
F3    F     F_    0.146500 0.109932 0.375309 -0.657445
F4    F     F_    0.860759 0.268325 0.640361 -0.654298
O33   O     O_3   0.153540 0.405243 0.774668 -0.588917
H17   H     H_    0.179592 0.497403 0.773071 0.322472
O34   O     O_3   0.846630 0.594364 0.225690 -0.589172
H18   H     H_    0.820642 0.502009 0.227380 0.322566
O35   O     O_3   0.846379 0.904657 0.725240 -0.589290
H19   H     H_    0.820366 0.996705 0.726859 0.322625
O36   O     O_3   0.144546 0.716024 0.253377 -0.600808
H20   H     H_    0.167846 0.815324 0.246379 0.319324
F5    F     F_    0.391606 0.094604 0.733724 -0.614689
F6    F     F_    0.608305 0.900802 0.266578 -0.615408
F7    F     F_    0.607237 0.597390 0.764313 -0.614764
F8    F     F_    0.391507 0.386183 0.231591 -0.617650
O37   O     O_3   0.488887 0.010351 0.782715 -0.561613
H21   H     H_    0.470792 0.036493 0.728857 0.399112
O38   O     O_3   0.510940 0.982121 0.217664 -0.560307
H22   H     H_    0.528814 0.952578 0.271339 0.398128
O39   O     O_3   0.509951 0.512755 0.714871 -0.561500
H23   H     H_    0.527997 0.538919 0.768788 0.398311
O40   O     O_3   0.488582 0.475945 0.280180 -0.560728
H24   H     H_    0.470464 0.448942 0.226394 0.396996
F9    F     F_    0.551124 0.225254 0.841105 -0.638430
F10   F     F_    0.448519 0.769100 0.158794 -0.640071
F11   F     F_    0.447798 0.726286 0.655159 -0.638368
F12   F     F_    0.551590 0.266934 0.339748 -0.637936

loop_
_geom_bond_atom_site_label_1
_geom_bond_atom_site_label_2
_ccdc_geom_bond_type
C52   C84   A    
O1    C5    A    
O37   H21   S    
C23   C27   A    
O19   V1    S    
O13   V1    S    
C76   O40   S    
O3    C7    A    
O40   H24   S    
C80   F8    S    
C48   C52   A    
C21   C37   A    
C42   C69   A    
O39   H23   S    
C26   O33   S    
O30   H14   S    
O7    C3    A    
C66   C81   A    
C43   C72   A    
C36   H4    S    
C25   C57   A    
C65   C82   A    
C32   C36   A    
C63   C71   A    
C30   F2    S    
C67   C84   A    
C14   O22   S    
N4    C20   A    
C22   C26   A    
O4    C8    A    
C20   O27   S    
C41   C70   A    
C61   C69   A    
O1    V3    S    
C61   C73   A    
C62   C65   A    
O2    V4    S    
O3    V1    S    
C50   C82   A    
C64   C76   A    
C1    O15   A    
C31   F3    S    
O34   H18   S    
C2    O16   A    
C7    C9    S    
O2    C6    A    
O36   H20   S    
C16   C48   A    
C63   C68   A    
O14   V2    S    
N1    C17   A    
C44   C56   A    
C36   C40   A    
C34   H2    S    
C68   C72   A    
O11   C7    A    
O15   V3    S    
O12   C8    A    
C51   H7    S    
C35   H3    S    
C19   O28   S    
C50   H6    S    
C31   C59   A    
C18   O25   S    
N4    C40   S    
C1    C60   S    
C29   C57   A    
O33   H17   S    
O5    V1    S    
C28   C60   A    
C31   C35   A    
O7    V3    S    
C30   C34   A    
N1    C37   S    
O8    V4    S    
C17   C53   A    
C4    C57   S    
C20   C56   A    
C19   C55   A    
C64   C72   A    
C21   C25   A    
O18   V4    S    
N3    C19   A    
C32   F4    S    
C24   C40   A    
O10   V2    S    
C13   C45   A    
C8    C10   S    
C76   C80   A    
C11   C12   D    
C52   H8    S    
C75   O39   S    
C81   F9    S    
O5    C1    A    
C63   C75   A    
C62   C74   A    
C29   C33   A    
C46   C50   A    
O38   H22   S    
C22   C38   A    
C45   C49   A    
O8    C4    A    
N3    C39   S    
C9    C10   D    
O9    C5    A    
C83   F11   S    
C27   C59   A    
C42   C54   A    
C56   C79   A    
C26   C58   A    
C41   C53   A    
C74   C78   A    
C73   C77   A    
C29   F1    S    
O6    V2    S    
C2    C59   S    
C75   C79   A    
C25   O34   S    
C77   F5    S    
O29   H13   S    
C62   C70   A    
C32   C60   A    
C13   N1    A    
N2    C38   S    
C15   N3    A    
O16   V4    S    
O9    V1    S    
C61   C66   A    
C16   N4    A    
C22   H9    S    
C65   C69   A    
C3    O13   A    
C79   F7    S    
C49   C81   A    
C67   C71   A    
O17   V3    S    
C44   C48   A    
C51   C83   A    
C82   F10   S    
O6    C2    A    
C15   O23   S    
O32   H16   S    
O11   V3    S    
C5    C11   S    
C27   O36   S    
O12   V4    S    
C6    C12   S    
O31   H15   S    
N2    C18   A    
C14   C46   A    
O10   C6    A    
O20   V2    S    
C55   C80   A    
O35   H19   S    
C11   O31   S    
C47   C51   A    
C3    C58   S    
C34   C38   A    
C49   H5    S    
C10   O30   S    
C44   C71   A    
C33   C37   A    
C17   O26   S    
C30   C58   A    
C33   H1    S    
C78   F6    S    
C54   C77   A    
C35   C39   A    
C28   O35   S    
C68   C83   A    
C13   O21   S    
C53   C78   A    
C12   O32   S    
O4    V2    S    
C74   O38   S    
C14   N2    A    
C24   H11   S    
C18   C54   A    
C9    O29   S    
C16   O24   S    
C24   C28   A    
C66   C70   A    
C23   H12   S    
C42   C46   A    
C4    O14   A    
C84   F12   S    
C41   C45   A    
C21   H10   S    
C73   O37   S    
C43   C47   A    
C64   C67   A    
C23   C39   A    
C43   C55   A    
C15   C47   A    
