data_mof_unit_11024.cif
_audit_creation_date              2012-12-10T20:32:46-0500
_audit_creation_method            fapswitch 2.2
_symmetry_space_group_name_H-M    P1
_symmetry_Int_Tables_number       1
_space_group_crystal_system       triclinic
_cell_length_a                    11.539171
_cell_length_b                    10.67733
_cell_length_c                    9.870827
_cell_angle_alpha                 89.892936
_cell_angle_beta                  89.770643
_cell_angle_gamma                 90.081309
_cell_volume                      1216.14717497

loop_
_atom_site_label
_atom_site_type_symbol
_atom_type_description
_atom_site_fract_x
_atom_site_fract_y
_atom_site_fract_z
_atom_type_partial_charge
C1    C     C_R   0.503692 0.259941 0.500023 0.864634
C2    C     C_R   0.562345 0.585779 0.071452 -0.128748
C3    C     C_R   0.562783 0.585422 0.927498 -0.119111
C4    C     C_R   0.281911 0.499655 0.500119 0.910016
C5    C     C_R   0.444332 0.407499 0.929593 0.195935
C6    C     C_3   0.317912 0.375369 0.926911 0.222686
C7    C     C_3   0.322284 0.369839 0.081670 -0.220492
C8    C     C_R   0.503692 0.740073 0.499792 0.873574
C9    C     C_R   0.718112 0.499824 0.499763 0.891615
C10   C     C_1   0.161508 0.498830 0.499846 -0.195233
C11   C     C_1   0.059344 0.498374 0.499097 -0.021934
C12   C     C_R   0.523128 0.128709 0.499326 -0.127041
C13   C     C_1   0.940724 0.498528 0.498961 -0.011920
C14   C     C_1   0.838556 0.499077 0.499231 -0.195492
C15   C     C_R   0.535100 0.063895 0.620914 -0.019903
C16   C     C_3   0.640109 0.126927 0.862196 0.139355
C17   C     C_3   0.686735 0.163591 0.000437 -0.865064
C18   C     C_3   0.134311 0.440462 0.868826 0.113975
C19   C     C_3   0.058835 0.556271 0.853562 -0.800191
C20   C     C_R   0.534741 0.065014 0.375833 -0.190841
C21   C     C_R   0.535148 0.935659 0.375709 -0.226024
C22   C     C_R   0.522988 0.871415 0.499058 -0.069273
C23   C     C_R   0.533744 0.935890 0.620855 0.024637
C24   C     C_3   0.464446 0.926991 0.749084 -0.501745
C25   C     C_3   0.464805 0.069386 0.750081 0.328753
C26   C     C_R   0.446807 0.405710 0.072026 0.147839
H1    H     H_    0.534542 0.113878 0.279599 0.182175
H2    H     H_    0.359183 0.179780 0.083208 0.218143
H3    H     H_    0.221149 0.217001 0.121184 0.173247
H4    H     H_    0.667540 0.199517 0.787642 0.160688
H5    H     H_    0.678643 0.034890 0.834707 0.138112
H6    H     H_    0.661972 0.091819 0.076796 0.250815
H7    H     H_    0.782723 0.170215 0.996078 0.207492
H8    H     H_    0.651308 0.255788 0.031469 0.255967
H9    H     H_    0.103215 0.387868 0.959699 0.120124
H10   H     H_    0.123885 0.380660 0.777496 0.142330
H11   H     H_    0.089168 0.613700 0.766485 0.262811
H12   H     H_    0.301296 0.284950 0.874071 0.069592
H13   H     H_    0.967449 0.527964 0.836174 0.206170
H14   H     H_    0.063243 0.613685 0.947114 0.245816
H15   H     H_    0.267881 0.440626 0.134520 0.211897
H16   H     H_    0.535859 0.887245 0.279340 0.168843
H17   H     H_    0.376847 0.886186 0.733038 0.179192
H18   H     H_    0.514570 0.883698 0.832897 0.209001
H19   H     H_    0.377080 0.109440 0.733608 0.087009
H20   H     H_    0.610723 0.656677 0.125319 0.143686
H21   H     H_    0.611771 0.655799 0.872851 0.139675
N1    N     N_R   0.499240 0.499140 0.142800 -0.108121
N2    N     N_R   0.499240 0.499180 0.857150 -0.090878
N3    N     N_3   0.307370 0.243365 0.136604 -0.448270
O1    O     O_R   0.500010 0.316790 0.614690 -0.628724
O2    O     O_3   0.251171 0.477823 0.881415 -0.569240
O3    O     O_R   0.500000 0.316760 0.385350 -0.602157
O4    O     O_R   0.334450 0.500030 0.614670 -0.564990
O5    O     O_R   0.334440 0.500000 0.385330 -0.612397
O6    O     O_R   0.500000 0.683240 0.614650 -0.613202
O7    O     O_R   0.499990 0.683210 0.385310 -0.629532
O8    O     O_R   0.665560 0.500000 0.614670 -0.624314
O9    O     O_R   0.665550 0.499970 0.385330 -0.612900
O10   O     O_3   0.517679 0.120211 0.868530 -0.619900
Zn1   Zn    Zn3+2 0.500010 0.500020 0.653130 0.975887
Zn2   Zn    Zn3+2 0.499990 0.499980 0.346870 0.955948

loop_
_geom_bond_atom_site_label_1
_geom_bond_atom_site_label_2
_ccdc_geom_bond_type
C8    C22   S    
C23   C24   S    
C6    H12   S    
C6    C7    S    
O4    Zn1   S    
C8    O7    A    
C11   C13   S    
C18   H9    S    
N1    Zn2   S    
O1    Zn1   S    
C12   C15   A    
C26   N1    A    
C9    C14   S    
C4    O4    A    
C8    O6    A    
O8    Zn1   S    
C15   C23   A    
C2    C3    A    
C3    N2    A    
C10   C11   T    
C18   O2    S    
O7    Zn2   S    
O6    Zn1   S    
C6    O2    S    
C13   C14   T    
C2    H20   S    
C16   H5    S    
C1    O1    A    
C12   C20   A    
C17   H8    S    
C1    C12   S    
C17   H7    S    
C19   H13   S    
C3    H21   S    
C20   H1    S    
C18   C19   S    
H3    N3    S    
C7    H15   S    
C4    O5    A    
C5    C6    S    
C24   H18   S    
C5    N2    A    
C15   C25   S    
C19   H14   S    
C16   H4    S    
C4    C10   S    
C5    C26   A    
O5    Zn2   S    
C25   H19   S    
N2    Zn1   S    
C24   C25   S    
O3    Zn2   S    
C9    O8    A    
C16   O10   S    
C17   H6    S    
C24   H17   S    
H2    N3    S    
C22   C23   A    
C7    C26   S    
O9    Zn2   S    
C1    O3    A    
C19   H11   S    
C2    N1    A    
C20   C21   A    
C21   C22   A    
C18   H10   S    
C25   O10   S    
C21   H16   S    
C7    N3    S    
C16   C17   S    
C9    O9    A    
