data_mof_unit_39346.cif
_audit_creation_date              2013-03-05T15:45:40-0500
_audit_creation_method            fapswitch 2.2
_symmetry_space_group_name_H-M    P1
_symmetry_Int_Tables_number       1
_space_group_crystal_system       triclinic
_cell_length_a                    15.037207
_cell_length_b                    11.013636
_cell_length_c                    9.890577
_cell_angle_alpha                 111.095777
_cell_angle_beta                  97.662231
_cell_angle_gamma                 91.851602
_cell_volume                      1508.87356899

loop_
_atom_site_label
_atom_site_type_symbol
_atom_site_description
_atom_site_fract_x
_atom_site_fract_y
_atom_site_fract_z
_atom_type_partial_charge
O1    O     O_R   0.508410 0.332340 0.577400 -0.554491
O2    O     O_R   0.491590 0.667660 0.422600 -0.563106
O3    O     O_R   0.481780 0.295500 0.332650 -0.568886
O4    O     O_R   0.518220 0.704500 0.667350 -0.562498
C1    C     C_R   0.493307 0.254242 0.440654 0.922922
C2    C     C_R   0.507331 0.745758 0.559280 0.929072
O5    O     O_R   0.383570 0.518390 0.622380 -0.528468
O6    O     O_R   0.616430 0.481610 0.377620 -0.534366
O7    O     O_R   0.356940 0.481550 0.377630 -0.565063
O8    O     O_R   0.643060 0.518450 0.622370 -0.556695
C3    C     C_R   0.329491 0.500052 0.501718 0.923586
C4    C     C_R   0.670443 0.499596 0.498328 0.918813
Cu1   Cu    Cu3+1 0.515770 0.521810 0.644910 1.117537
Cu2   Cu    Cu3+1 0.484230 0.478190 0.355090 1.110125
C5    C     C_R   0.816573 0.614363 0.515744 0.281922
C6    C     C_R   0.184494 0.387440 0.495939 0.284378
C7    C     C_R   0.766489 0.498403 0.495894 -0.237099
C8    C     C_R   0.233542 0.501445 0.506209 -0.241655
C9    C     C_R   0.807203 0.381788 0.476889 0.260656
C10   C     C_R   0.191851 0.616444 0.519221 0.261640
C11   C     C_R   0.901850 0.381532 0.484826 -0.086109
C12   C     C_R   0.098900 0.619919 0.528558 -0.082547
C13   C     C_R   0.953149 0.499399 0.504254 -0.005722
C14   C     C_R   0.047709 0.502028 0.508767 -0.006443
C15   C     C_R   0.910200 0.615257 0.520102 -0.035008
C16   C     C_R   0.090880 0.386473 0.493165 -0.036399
C17   C     C_R   0.947369 0.268281 0.474420 0.327727
C18   C     C_R   0.055073 0.736722 0.556335 0.331051
C19   C     C_R   0.039821 0.271474 0.474481 -0.140261
C20   C     C_R   0.961971 0.732076 0.548099 -0.139912
H1    H     H_    0.071489 0.182152 0.462610 0.240545
H2    H     H_    0.930962 0.823251 0.571004 0.236581
H3    H     H_    0.474148 0.864545 0.371512 0.207865
H4    H     H_    0.526823 0.135483 0.628374 0.210594
C21   C     C_2   0.487825 0.114498 0.407462 -0.186021
C22   C     C_2   0.513395 0.885502 0.592364 -0.175277
C23   C     C_2   0.505330 0.069520 0.515581 -0.044260
C24   C     C_2   0.495856 0.930479 0.484252 -0.060932
H5    H     H_    0.533246 0.951936 0.705412 0.168916
H6    H     H_    0.468171 0.048049 0.294372 0.167752
N1    N     N_2   0.460520 0.445420 0.137370 -0.321166
N2    N     N_2   0.539480 0.554580 0.862630 -0.320478
C25   C     C_2   0.510911 0.506293 0.079255 0.317463
C26   C     C_2   0.489274 0.493495 0.920736 0.317242
H7    H     H_    0.596106 0.611564 0.927221 0.245322
H8    H     H_    0.403750 0.388781 0.072889 0.245991
N3    N     N_R   0.771711 0.730840 0.530940 0.117650
O9    O     O_R   0.729769 0.783257 0.642142 -0.344241
O10   O     O_R   0.771465 0.783241 0.432150 -0.223688
N4    N     N_R   0.229907 0.271954 0.484101 0.121056
O11   O     O_R   0.271089 0.216849 0.372622 -0.343965
O12   O     O_R   0.231534 0.223206 0.586184 -0.223776
N5    N     N_R   0.750704 0.263637 0.441324 0.137173
O13   O     O_R   0.735062 0.180295 0.306744 -0.278629
O14   O     O_R   0.705836 0.247583 0.538260 -0.326624
N6    N     N_R   0.243500 0.725462 0.512475 0.141555
O15   O     O_R   0.226526 0.759378 0.399129 -0.277563
O16   O     O_R   0.311875 0.784088 0.613542 -0.332586
N7    N     N_R   0.902980 0.150682 0.473118 0.176729
O17   O     O_R   0.876738 0.149045 0.592649 -0.242942
O18   O     O_R   0.909082 0.040296 0.367720 -0.243695
N8    N     N_R   0.103669 0.863071 0.606365 0.175757
O19   O     O_R   0.157907 0.904055 0.730824 -0.244782
O20   O     O_R   0.078778 0.946869 0.546830 -0.254954
N9    N     N_R   0.410145 0.413449 0.833875 0.139469
O21   O     O_R   0.332310 0.460641 0.849323 -0.313692
O22   O     O_R   0.412953 0.287346 0.780735 -0.328558
N10   N     N_R   0.590291 0.585857 0.166009 0.139262
O23   O     O_R   0.667984 0.538273 0.150277 -0.312609
O24   O     O_R   0.587863 0.711987 0.219951 -0.331186

loop_
_geom_bond_atom_site_label_1
_geom_bond_atom_site_label_2
_geom_bond_distance
_ccdc_geom_bond_type
C4    C7    1.448067 S    
N4    O12   1.301050 A    
O7    Cu2   1.956329 S    
C3    C8    1.449800 S    
C23   C24   1.447029 S    
O6    C4    1.298088 A    
C17   C19   1.389446 A    
H4    C23   1.087211 S    
N1    C25   1.309480 D    
N3    O9    1.300833 A    
N9    O22   1.300448 A    
C5    N3    1.437882 S    
N2    H7    1.028999 S    
N1    H8    1.028893 S    
C9    N5    1.434649 S    
C18   C20   1.389681 A    
N4    O11   1.300844 A    
C11   C17   1.419994 A    
N7    O17   1.301156 A    
C19   H1    1.081843 S    
C17   N7    1.432852 S    
N5    O13   1.301024 A    
O5    C3    1.297454 A    
O7    C3    1.295631 A    
C14   C16   1.415510 A    
C26   N9    1.430214 S    
N8    O19   1.301043 A    
O3    Cu2   1.941817 S    
N2    C26   1.309221 D    
C25   C26   1.511886 S    
Cu2   N1    2.030245 S    
O1    C1    1.299498 A    
O8    C4    1.294097 A    
N3    O10   1.301116 A    
Cu1   N2    2.030245 S    
C12   C18   1.418928 A    
C2    C22   1.450733 S    
C21   H6    1.087489 S    
C8    C10   1.403301 A    
C10   N6    1.435452 S    
N5    O14   1.300962 A    
C11   C13   1.425950 A    
C6    C16   1.403918 A    
O2    Cu2   1.942931 S    
C12   C14   1.424426 A    
C5    C15   1.402401 A    
O4    C2    1.297522 A    
N7    O18   1.301364 A    
C10   C12   1.413850 A    
C13   C14   1.415685 A    
C7    C9    1.402658 A    
C22   C24   1.331487 D    
C20   H2    1.082480 S    
C1    C21   1.450596 S    
O5    Cu1   1.968219 S    
C13   C15   1.416388 A    
O1    Cu1   1.942931 S    
N6    O15   1.301049 A    
C21   C23   1.331503 D    
C16   C19   1.399519 A    
C6    C8    1.399726 A    
N9    O21   1.301231 A    
O4    Cu1   1.941816 S    
C5    C7    1.398119 A    
N10   O24   1.300265 A    
C15   C20   1.399778 A    
H3    C24   1.087188 S    
N8    O20   1.301296 A    
O6    Cu2   1.968219 S    
C9    C11   1.415060 A    
Cu1   Cu2   2.702575 S    
N6    O16   1.300646 A    
N10   O23   1.301182 A    
C22   H5    1.087475 S    
O2    C2    1.299165 A    
C6    N4    1.438085 S    
C25   N10   1.430724 S    
O3    C1    1.297217 A    
O8    Cu1   1.956329 S    
C18   N8    1.434385 S    
