data_mof_unit_15590.cif
_audit_creation_date              2012-12-10T17:19:37-0500
_audit_creation_method            fapswitch 2.2
_symmetry_space_group_name_H-M    P1
_symmetry_Int_Tables_number       1
_space_group_crystal_system       triclinic
_cell_length_a                    10.32899
_cell_length_b                    10.914364
_cell_length_c                    11.511183
_cell_angle_alpha                 90.525429
_cell_angle_beta                  81.454232
_cell_angle_gamma                 95.498891
_cell_volume                      1277.37539209

loop_
_atom_site_label
_atom_site_type_symbol
_atom_type_description
_atom_site_fract_x
_atom_site_fract_y
_atom_site_fract_z
_atom_type_partial_charge
C1    C     C_R   0.556543 0.731814 0.491273 0.781761
C2    C     C_2   0.408858 0.135253 0.509989 0.225002
C3    C     C_2   0.496323 0.937210 0.476810 0.354760
C4    C     C_2   0.503697 0.062796 0.523209 0.354774
C5    C     C_2   0.926734 0.485532 0.522331 0.065733
C6    C     C_2   0.073275 0.514429 0.477674 0.065694
C7    C     C_3   0.582127 0.103385 0.695123 -0.297025
C8    C     C_3   0.417920 0.896693 0.304876 -0.297158
C9    C     C_3   0.221448 0.134791 0.419298 -0.233854
C10   C     C_3   0.778484 0.865162 0.580834 -0.233903
C11   C     C_R   0.121322 0.530323 0.350226 0.206603
C12   C     C_R   0.443456 0.268185 0.508733 0.781707
C13   C     C_R   0.148821 0.429183 0.277168 -0.043139
C14   C     C_R   0.179080 0.445226 0.155469 -0.141212
C15   C     C_R   0.185034 0.562463 0.106024 -0.086086
C16   C     C_R   0.161324 0.663892 0.178253 -0.162505
C17   C     C_R   0.129340 0.648041 0.299891 -0.099922
C18   C     C_R   0.878708 0.469579 0.649778 0.206514
C19   C     C_R   0.870756 0.351849 0.700071 -0.100057
C20   C     C_R   0.838782 0.335948 0.821705 -0.162550
C21   C     C_R   0.815014 0.437339 0.893970 -0.086147
C22   C     C_R   0.820916 0.554589 0.844567 -0.141125
C23   C     C_R   0.499845 0.499763 0.717476 0.867903
C24   C     C_R   0.851163 0.570681 0.722873 -0.042931
C25   C     C_3   0.155443 0.686482 0.690072 -0.142038
C26   C     C_3   0.844603 0.313634 0.309826 -0.142074
C27   C     C_R   0.500155 0.500236 0.282524 0.867944
C28   C     C_1   0.499215 0.499547 0.838246 -0.186392
C29   C     C_1   0.500788 0.500451 0.161754 -0.186346
C30   C     C_1   0.499329 0.499756 0.940642 -0.028278
C31   C     C_1   0.500679 0.500240 0.059357 -0.028250
C32   C     C_2   0.591146 0.864742 0.490049 0.225025
H1    H     H_    0.673198 0.126923 0.733945 0.184995
H2    H     H_    0.840960 0.794381 0.540353 0.177093
H3    H     H_    0.706878 0.826746 0.656858 0.106425
H4    H     H_    0.844580 0.937921 0.615805 0.182213
H5    H     H_    0.140950 0.337835 0.313650 0.074554
H6    H     H_    0.197559 0.366702 0.099454 0.121345
H7    H     H_    0.208422 0.574733 0.011777 0.138762
H8    H     H_    0.166029 0.754620 0.139810 0.115596
H9    H     H_    0.107892 0.726971 0.354676 0.124214
H10   H     H_    0.892244 0.272948 0.645258 0.124241
H11   H     H_    0.834125 0.245210 0.860117 0.115607
H12   H     H_    0.541593 0.009324 0.726832 0.130885
H13   H     H_    0.791629 0.425031 0.988213 0.138715
H14   H     H_    0.802397 0.633085 0.900609 0.121358
H15   H     H_    0.858982 0.662040 0.686421 0.074591
H16   H     H_    0.263168 0.700260 0.688855 0.193905
H17   H     H_    0.108533 0.705425 0.780683 0.124489
H18   H     H_    0.123979 0.753897 0.630354 0.140319
H19   H     H_    0.891402 0.294820 0.219149 0.124554
H20   H     H_    0.736861 0.299765 0.311182 0.193923
H21   H     H_    0.876240 0.246195 0.369415 0.140138
H22   H     H_    0.511958 0.171820 0.727001 0.147632
H23   H     H_    0.458320 0.990801 0.273211 0.130943
H24   H     H_    0.326882 0.873042 0.266034 0.185002
H25   H     H_    0.488209 0.828368 0.272974 0.147579
H26   H     H_    0.293010 0.173171 0.343228 0.106455
H27   H     H_    0.159008 0.205595 0.459790 0.177071
H28   H     H_    0.155305 0.062026 0.384391 0.182242
N1    N     N_2   0.842700 0.448890 0.453570 0.057273
N2    N     N_2   0.157300 0.551110 0.546430 0.057269
O1    O     O_R   0.431060 0.692470 0.509350 -0.588386
O2    O     O_3   0.385858 0.891948 0.428326 -0.572528
O3    O     O_3   0.281110 0.082013 0.506668 -0.582828
O4    O     O_3   0.718887 0.917966 0.493434 -0.582787
O5    O     O_3   0.114477 0.564737 0.661330 -0.539825
O6    O     O_3   0.885502 0.435371 0.338652 -0.539744
O7    O     O_R   0.568940 0.307530 0.490650 -0.588380
O8    O     O_R   0.651120 0.659650 0.479540 -0.603896
O9    O     O_R   0.348880 0.340350 0.520460 -0.603932
O10   O     O_R   0.389960 0.516400 0.680450 -0.587389
O11   O     O_R   0.610040 0.483600 0.319550 -0.587378
O12   O     O_R   0.610030 0.483580 0.650650 -0.616448
O13   O     O_R   0.389970 0.516420 0.349350 -0.616429
O14   O     O_3   0.614176 0.108068 0.571671 -0.572496
Zn1   Zn    Zn3+2 0.353060 0.521910 0.519900 0.990302
Zn2   Zn    Zn3+2 0.646940 0.478090 0.480100 0.990327

loop_
_geom_bond_atom_site_label_1
_geom_bond_atom_site_label_2
_ccdc_geom_bond_type
C15   C16   A    
C2    C4    D    
C12   O7    A    
C7    O14   S    
C25   H18   S    
C26   H20   S    
C8    H25   S    
C27   C29   S    
C11   C13   A    
O12   Zn2   S    
N2    Zn1   S    
C13   H5    S    
C19   C20   A    
C25   H16   S    
C19   H10   S    
N1    Zn2   S    
O11   Zn2   S    
C2    O3    S    
C2    C12   S    
C21   C22   A    
C6    N2    D    
C22   C24   A    
C28   C30   T    
C5    N1    D    
C29   C31   T    
C13   C14   A    
C8    H24   S    
C7    H1    S    
N1    O6    S    
C15   H7    S    
O7    Zn2   S    
O10   Zn1   S    
N2    O5    S    
C16   H8    S    
C21   H13   S    
C18   C24   A    
C5    C6    S    
C1    O1    A    
C8    H23   S    
C32   O4    S    
C22   H14   S    
C12   O9    A    
C8    O2    S    
C30   C31   S    
C9    O3    S    
C10   O4    S    
C3    O2    S    
C3    C32   D    
C10   H3    S    
C17   H9    S    
C4    O14   S    
C26   H19   S    
O8    Zn2   S    
C23   C28   S    
C23   O12   A    
C14   H6    S    
C26   H21   S    
O9    Zn1   S    
C20   H11   S    
C20   C21   A    
C10   H2    S    
C18   C19   A    
O1    Zn1   S    
C6    C11   S    
O13   Zn1   S    
C14   C15   A    
C9    H26   S    
C9    H28   S    
C10   H4    S    
C5    C18   S    
C7    H22   S    
C7    H12   S    
C27   O11   A    
C24   H15   S    
C9    H27   S    
C23   O10   A    
C1    C32   S    
C11   C17   A    
C3    C4    S    
C1    O8    A    
C16   C17   A    
C26   O6    S    
C27   O13   A    
C25   H17   S    
C25   O5    S    
