data_mof_unit_7446.cif
_audit_creation_date              2012-12-10T17:21:13-0500
_audit_creation_method            fapswitch 2.2
_symmetry_space_group_name_H-M    P1
_symmetry_Int_Tables_number       1
_space_group_crystal_system       triclinic
_cell_length_a                    10.103603
_cell_length_b                    10.667104
_cell_length_c                    10.861458
_cell_angle_alpha                 90.016468
_cell_angle_beta                  95.280625
_cell_angle_gamma                 81.715212
_cell_volume                      1153.37380098

loop_
_atom_site_label
_atom_site_type_symbol
_atom_type_description
_atom_site_fract_x
_atom_site_fract_y
_atom_site_fract_z
_atom_type_partial_charge
Br1   Br    Br    0.375381 0.891556 0.729185 -0.495385
Br2   Br    Br    0.685048 0.840867 0.720473 -0.579318
Br3   Br    Br    0.198865 0.158407 0.518019 -0.508890
C1    C     C_R   0.443783 0.506095 0.267494 0.926806
C2    C     C_2   0.926827 0.510976 0.509317 -0.130998
C3    C     C_R   0.497408 0.258055 0.494940 0.862325
C4    C     C_R   0.556119 0.488675 0.732487 0.998709
C5    C     C_R   0.499655 0.742059 0.495231 0.932731
C6    C     C_3   0.608671 0.058956 0.415686 -0.482373
C7    C     C_3   0.616440 0.914324 0.418744 -0.178838
C8    C     C_3   0.523177 0.070141 0.627482 -0.393779
C9    C     C_3   0.357048 0.088537 0.433645 0.138540
C10   C     C_3   0.494938 0.121792 0.493231 -0.002697
C11   C     C_R   0.627190 0.856214 0.290069 0.138313
C12   C     C_3   0.500136 0.878260 0.492839 -0.034822
C13   C     C_R   0.733209 0.758315 0.272285 -0.085639
C14   C     C_R   0.745853 0.703023 0.156571 -0.154692
C15   C     C_R   0.654654 0.746135 0.056149 -0.057475
C16   C     C_R   0.551187 0.844973 0.071106 -0.086601
C17   C     C_R   0.537824 0.900427 0.186636 -0.190445
C18   C     C_3   0.519426 0.925983 0.630052 0.436861
C19   C     C_3   0.362830 0.944158 0.430468 -0.431131
C20   C     C_2   0.411633 0.501342 0.135836 -0.354206
C21   C     C_2   0.511864 0.467229 0.065721 -0.152056
C22   C     C_2   0.587801 0.472734 0.864049 -0.376385
C23   C     C_2   0.486441 0.472091 0.934145 -0.131406
C24   C     C_2   0.071876 0.493547 0.486852 -0.083837
H1    H     H_    0.708271 0.082359 0.453840 0.223558
H2    H     H_    0.880089 0.385026 0.384261 0.179792
H3    H     H_    0.591607 0.098596 0.319936 0.179226
H4    H     H_    0.120921 0.611572 0.618851 0.189894
H5    H     H_    0.712488 0.878401 0.474224 0.191699
H6    H     H_    0.623108 0.091560 0.666467 0.192087
H7    H     H_    0.339018 0.126837 0.337345 0.108058
H8    H     H_    0.343864 0.911350 0.334648 0.149014
H9    H     H_    0.806184 0.723894 0.348335 0.135280
H10   H     H_    0.826733 0.626899 0.144756 0.129828
H11   H     H_    0.664893 0.703736 0.966515 0.181140
H12   H     H_    0.278553 0.916031 0.477693 0.260397
H13   H     H_    0.481740 0.879708 0.992886 0.198940
H14   H     H_    0.459470 0.979763 0.193298 0.133130
H15   H     H_    0.449093 0.120699 0.686667 0.225385
H16   H     H_    0.382305 0.482041 0.895024 0.200267
H17   H     H_    0.615395 0.442048 0.104906 0.188187
H18   H     H_    0.691668 0.463188 0.903622 0.152709
H19   H     H_    0.308375 0.526613 0.096241 0.156904
H20   H     H_    0.890520 0.578459 0.577696 0.188854
H21   H     H_    0.107080 0.429696 0.415195 0.184855
N1    N     N_2   0.157300 0.551950 0.551120 -0.187456
N2    N     N_2   0.842730 0.448000 0.448950 -0.195496
O1    O     O_R   0.568940 0.489540 0.307530 -0.618394
O2    O     O_R   0.348880 0.522880 0.340350 -0.626032
O3    O     O_R   0.610030 0.298130 0.483570 -0.621958
O4    O     O_R   0.389960 0.331470 0.516390 -0.575537
O5    O     O_R   0.651120 0.477120 0.659650 -0.595776
O6    O     O_R   0.431060 0.510460 0.692470 -0.596575
O7    O     O_R   0.610040 0.668530 0.483610 -0.618232
O8    O     O_R   0.389970 0.701870 0.516430 -0.591650
Zn1   Zn    Zn3+2 0.646940 0.477740 0.478080 0.960873
Zn2   Zn    Zn3+2 0.353060 0.522260 0.521920 0.993718

loop_
_geom_bond_atom_site_label_1
_geom_bond_atom_site_label_2
_ccdc_geom_bond_type
C24   H21   S    
C12   C18   S    
C20   C21   D    
Br1   C18   S    
C7    H5    S    
C5    O7    A    
C8    C10   S    
C6    C7    S    
C16   C17   A    
C4    C22   S    
C4    O5    A    
H2    N2    S    
Br2   C18   S    
C17   H14   S    
O3    Zn1   S    
C20   H19   S    
C14   H10   S    
C13   H9    S    
C3    C10   S    
C19   H8    S    
C2    H20   S    
N1    Zn2   S    
C6    H3    S    
H4    N1    S    
C24   N1    D    
C19   H12   S    
C4    O6    A    
C1    O2    A    
C23   H16   S    
C14   C15   A    
C5    C12   S    
O5    Zn1   S    
C7    C12   S    
C12   C19   S    
C15   H11   S    
C21   H17   S    
C9    C19   S    
C11   C13   A    
C2    N2    D    
O7    Zn1   S    
O1    Zn1   S    
C16   H13   S    
N2    Zn1   S    
C1    O1    A    
O8    Zn2   S    
C22   H18   S    
C8    H6    S    
C9    C10   S    
C8    H15   S    
O2    Zn2   S    
C15   C16   A    
C7    C11   S    
C11   C17   A    
C1    C20   S    
C6    C10   S    
O4    Zn2   S    
Br3   C9    S    
C3    O3    A    
C5    O8    A    
C22   C23   D    
C2    C24   S    
C9    H7    S    
C8    C18   S    
C3    O4    A    
O6    Zn2   S    
C6    H1    S    
C21   C23   S    
C13   C14   A    
