data_mof_unit_60545.cif
_audit_creation_date              2012-12-10T16:47:14-0500
_audit_creation_method            fapswitch 2.2
_symmetry_space_group_name_H-M    P1
_symmetry_Int_Tables_number       1
_space_group_crystal_system       triclinic
_cell_length_a                    21.940139
_cell_length_b                    21.928267
_cell_length_c                    22.008232
_cell_angle_alpha                 118.503978
_cell_angle_beta                  119.53477
_cell_angle_gamma                 89.901795
_cell_volume                      7708.90634408

loop_
_atom_site_label
_atom_site_type_symbol
_atom_type_description
_atom_site_fract_x
_atom_site_fract_y
_atom_site_fract_z
_atom_type_partial_charge
C1    C     C_R   0.005117 0.387569 0.509510 0.797825
C2    C     C_R   0.995776 0.612658 0.490806 0.795885
C3    C     C_3   0.219969 0.815526 0.045981 -0.223877
C4    C     C_3   0.779480 0.183673 0.953953 -0.222678
C5    C     C_3   0.177278 0.772186 0.948898 -0.217477
C6    C     C_3   0.822128 0.226851 0.051038 -0.218092
C7    C     C_1   0.337375 0.840741 0.175620 -0.052908
C8    C     C_1   0.662405 0.159222 0.824427 -0.052599
C9    C     C_1   0.162054 0.662874 0.824344 -0.066003
C10   C     C_1   0.838068 0.336805 0.175714 -0.065595
C11   C     C_1   0.124120 0.625344 0.749158 -0.159468
C12   C     C_1   0.875946 0.374443 0.250883 -0.159517
C13   C     C_2   0.982210 0.238579 0.546559 -0.210320
C14   C     C_2   0.935047 0.761058 0.452388 -0.216416
C15   C     C_2   0.986435 0.179140 0.489876 -0.128553
C16   C     C_2   0.994459 0.821203 0.510547 -0.131386
C17   C     C_2   0.973876 0.302704 0.540375 -0.226876
C18   C     C_2   0.933016 0.696743 0.458352 -0.237405
C19   C     C_2   0.020290 0.334336 0.533192 -0.147760
C20   C     C_2   0.987898 0.666570 0.468095 -0.142839
C21   C     C_R   0.615989 0.997879 0.496864 0.793197
C22   C     C_R   0.383563 0.000555 0.502091 0.792679
C23   C     C_R   0.079696 0.580217 0.659790 0.826347
C24   C     C_R   0.920317 0.419727 0.340224 0.826995
C25   C     C_R   0.419603 0.920874 0.340180 0.815501
C26   C     C_R   0.580319 0.079127 0.659832 0.817678
C27   C     C_R   0.882977 0.005468 0.500549 0.844669
C28   C     C_R   0.116787 0.004811 0.499091 0.854802
C29   C     C_R   0.996697 0.116882 0.498173 0.788279
C30   C     C_R   0.997829 0.883194 0.501905 0.815406
C31   C     C_2   0.754350 0.007068 0.441065 -0.186471
C32   C     C_2   0.245793 0.061426 0.559060 -0.183378
C33   C     C_2   0.819994 0.018413 0.505259 -0.285352
C34   C     C_2   0.179325 0.013677 0.493911 -0.293522
C35   C     C_2   0.692004 0.015476 0.450432 -0.221534
C36   C     C_2   0.308032 0.061182 0.549745 -0.222447
C37   C     C_2   0.678069 0.988866 0.487997 -0.145234
C38   C     C_2   0.319700 0.998753 0.507323 -0.139276
C39   C     C_3   0.288135 0.745014 0.948641 -0.452975
C40   C     C_3   0.711755 0.255477 0.051509 -0.453690
C41   C     C_3   0.210844 0.662739 0.955304 -0.164749
C42   C     C_3   0.790114 0.336784 0.044853 -0.165041
C43   C     C_3   0.265930 0.712079 0.052985 -0.222417
C44   C     C_3   0.734794 0.287715 0.947214 -0.224721
C45   C     C_1   0.374668 0.877830 0.250800 -0.150639
C46   C     C_1   0.625141 0.122163 0.749236 -0.150396
C47   C     C_3   0.208671 0.708274 0.916746 0.162406
C48   C     C_3   0.791452 0.291405 0.083335 0.162975
C49   C     C_3   0.338236 0.798350 0.046819 0.014006
C50   C     C_3   0.661513 0.202230 0.953331 0.013836
C51   C     C_3   0.292077 0.793908 0.082984 0.117218
C52   C     C_3   0.707823 0.205986 0.917083 0.117757
Cu1   Cu    Cu3+1 0.061030 0.500010 0.499990 0.986543
Cu2   Cu    Cu3+1 0.938970 0.499990 0.500010 0.957004
Cu3   Cu    Cu3+1 0.499800 0.938990 0.500010 0.983573
Cu4   Cu    Cu3+1 0.500200 0.061010 0.499990 0.975051
Cu5   Cu    Cu3+1 0.041320 0.041320 0.582630 0.958160
Cu6   Cu    Cu3+1 0.958680 0.958680 0.417370 0.957460
H1    H     H_    0.283080 0.774603 0.917656 0.164586
H2    H     H_    0.716270 0.225960 0.082432 0.165407
H3    H     H_    0.185000 0.801116 0.063335 0.154947
H4    H     H_    0.814742 0.197754 0.936731 0.154802
H5    H     H_    0.983861 0.239899 0.597325 0.167394
H6    H     H_    0.887527 0.758869 0.400042 0.159836
H7    H     H_    0.925652 0.319432 0.534398 0.173141
H8    H     H_    0.889344 0.678389 0.461519 0.165395
H9    H     H_    0.746178 0.991977 0.382266 0.166984
H10   H     H_    0.254915 0.100588 0.619067 0.166257
H11   H     H_    0.828935 0.041015 0.566026 0.167467
H12   H     H_    0.169545 0.980132 0.432462 0.167954
H13   H     H_    0.655827 0.042166 0.423978 0.167375
H14   H     H_    0.346966 0.113432 0.581603 0.165339
H15   H     H_    0.313412 0.704790 0.924668 0.157925
H16   H     H_    0.686898 0.296164 0.075606 0.157262
H17   H     H_    0.154187 0.649613 0.940307 0.154601
H18   H     H_    0.846795 0.349035 0.059642 0.155048
H19   H     H_    0.314568 0.692720 0.072799 0.157837
H20   H     H_    0.686553 0.307644 0.927653 0.158040
H21   H     H_    0.184265 0.808979 0.929689 0.144932
H22   H     H_    0.814415 0.190138 0.070034 0.144692
O1    O     O_R   0.051550 0.410990 0.500010 -0.578158
O2    O     O_R   0.948450 0.589010 0.499990 -0.588803
O3    O     O_R   0.876060 0.965100 0.430240 -0.587563
O4    O     O_R   0.123940 0.034900 0.569760 -0.583478
O5    O     O_R   0.034880 0.123910 0.569760 -0.587254
O6    O     O_R   0.965120 0.876090 0.430240 -0.579858
O7    O     O_R   0.965100 0.054130 0.430200 -0.587044
O8    O     O_R   0.034900 0.945870 0.569800 -0.579205
O9    O     O_R   0.948470 0.410970 0.500030 -0.587614
O10   O     O_R   0.051530 0.589030 0.499970 -0.578982
O11   O     O_R   0.111820 0.560290 0.620550 -0.584159
O12   O     O_R   0.888180 0.439710 0.379450 -0.588445
O13   O     O_R   0.008740 0.560280 0.620570 -0.573567
O14   O     O_R   0.991260 0.439720 0.379430 -0.569101
O15   O     O_R   0.588860 0.948460 0.499990 -0.577808
O16   O     O_R   0.411140 0.051540 0.500010 -0.580993
O17   O     O_R   0.588880 0.051510 0.499970 -0.581189
O18   O     O_R   0.411120 0.948490 0.500030 -0.576998
O19   O     O_R   0.439520 0.888190 0.379450 -0.574583
O20   O     O_R   0.560480 0.111810 0.620550 -0.573871
O21   O     O_R   0.439550 0.991240 0.379430 -0.577287
O22   O     O_R   0.560450 0.008760 0.620570 -0.577508
O23   O     O_R   0.945840 0.034880 0.569800 -0.589151
O24   O     O_R   0.054160 0.965120 0.430200 -0.584067
C53   C     C_R   0.412607 0.782940 0.088542 0.099989
C54   C     C_R   0.475410 0.840163 0.165531 -0.130783
C55   C     C_R   0.542011 0.827434 0.205377 -0.138410
C56   C     C_R   0.547862 0.757368 0.170406 -0.105688
C57   C     C_R   0.486874 0.699764 0.095901 -0.122927
C58   C     C_R   0.420003 0.712048 0.055664 -0.165848
H23   H     H_    0.473201 0.895256 0.196086 0.133365
H24   H     H_    0.589065 0.872094 0.263868 0.126168
H25   H     H_    0.599440 0.747564 0.201558 0.116360
H26   H     H_    0.491085 0.645069 0.069575 0.128385
H27   H     H_    0.374162 0.664901 0.000394 0.135680
C59   C     C_R   0.587563 0.218370 0.911901 0.100430
C60   C     C_R   0.524268 0.161467 0.835242 -0.131651
C61   C     C_R   0.457886 0.174799 0.796071 -0.142056
C62   C     C_R   0.452798 0.245172 0.831289 -0.104094
C63   C     C_R   0.514337 0.302492 0.905348 -0.123402
C64   C     C_R   0.580963 0.289593 0.944962 -0.166390
H28   H     H_    0.525865 0.106137 0.804510 0.134008
H29   H     H_    0.410378 0.130360 0.737946 0.127149
H30   H     H_    0.401376 0.255425 0.800671 0.122768
H31   H     H_    0.510718 0.357417 0.931844 0.129014
H32   H     H_    0.627221 0.336497 0.999970 0.135242
C65   C     C_1   0.356369 0.872602 0.064064 0.218032
N1    N     N_1   0.370800 0.930188 0.077230 -0.272165
C66   C     C_1   0.642664 0.128038 0.935983 0.219425
N2    N     N_1   0.627673 0.070501 0.922721 -0.270569
C67   C     C_R   0.970844 0.169314 0.410888 0.145854
C68   C     C_R   0.020558 0.149708 0.387589 -0.118545
C69   C     C_R   0.006778 0.140940 0.314266 -0.124854
C70   C     C_R   0.942974 0.150862 0.263133 -0.100105
C71   C     C_R   0.892472 0.168893 0.284818 -0.149529
C72   C     C_R   0.905914 0.177533 0.357961 -0.129289
H33   H     H_    0.070430 0.142211 0.426838 0.125855
H34   H     H_    0.045665 0.126572 0.297165 0.140486
H35   H     H_    0.932488 0.144250 0.206512 0.137055
H36   H     H_    0.842805 0.176031 0.244837 0.134127
H37   H     H_    0.865819 0.190710 0.373383 0.134223
C73   C     C_R   0.054759 0.831737 0.591071 0.149585
C74   C     C_R   0.128544 0.852338 0.618025 -0.121126
C75   C     C_R   0.185198 0.861655 0.692712 -0.136331
C76   C     C_R   0.168816 0.851333 0.741617 -0.103590
C77   C     C_R   0.095781 0.832327 0.716292 -0.147364
C78   C     C_R   0.038948 0.823093 0.641724 -0.125659
H38   H     H_    0.141984 0.860263 0.580585 0.120903
H39   H     H_    0.241816 0.876787 0.712603 0.131955
H40   H     H_    0.212725 0.858403 0.799335 0.132856
H41   H     H_    0.083211 0.824884 0.754548 0.137401
H42   H     H_    0.982692 0.809137 0.623424 0.130352
C79   C     C_1   0.090703 0.320422 0.554653 0.306332
N3    N     N_1   0.146787 0.309560 0.571921 -0.307251
C80   C     C_1   0.039260 0.682742 0.450293 0.316679
N4    N     N_1   0.080053 0.695421 0.436005 -0.322801
C81   C     C_R   0.716747 0.939095 0.509862 0.153370
C82   C     C_R   0.754080 0.956560 0.592155 -0.142608
C83   C     C_R   0.791668 0.911042 0.613346 -0.124438
C84   C     C_R   0.791774 0.847552 0.552536 -0.111145
C85   C     C_R   0.753649 0.829044 0.470207 -0.154618
C86   C     C_R   0.715790 0.874247 0.448655 -0.108281
H43   H     H_    0.754909 0.005909 0.639979 0.123822
H44   H     H_    0.820955 0.925138 0.677012 0.140624
H45   H     H_    0.821215 0.812588 0.569149 0.125902
H46   H     H_    0.753499 0.779698 0.423097 0.123965
H47   H     H_    0.686338 0.859154 0.384585 0.121960
C87   C     C_R   0.277450 0.925854 0.476751 0.148067
C88   C     C_R   0.241406 0.869280 0.392250 -0.142911
C89   C     C_R   0.203411 0.800282 0.363440 -0.127805
C90   C     C_R   0.201780 0.787038 0.418830 -0.091053
C91   C     C_R   0.238257 0.842724 0.503197 -0.148379
C92   C     C_R   0.276277 0.911861 0.532305 -0.118756
H48   H     H_    0.242578 0.878801 0.348800 0.124851
H49   H     H_    0.175476 0.756985 0.298213 0.150284
H50   H     H_    0.172679 0.733460 0.396415 0.159384
H51   H     H_    0.237518 0.832157 0.546135 0.136319
H52   H     H_    0.305037 0.954335 0.597990 0.130229
C93   C     C_R   0.222706 0.587459 0.919065 0.106322
C94   C     C_R   0.244228 0.560138 0.862417 -0.146119
C95   C     C_R   0.252372 0.490484 0.831327 -0.140377
C96   C     C_R   0.238998 0.446522 0.855477 -0.103544
C97   C     C_R   0.217093 0.471984 0.910586 -0.126875
C98   C     C_R   0.208738 0.541490 0.941778 -0.149826
H53   H     H_    0.254692 0.590837 0.840629 0.130911
H54   H     H_    0.268871 0.470442 0.788030 0.141606
H55   H     H_    0.245236 0.392585 0.831134 0.130045
H56   H     H_    0.206142 0.437675 0.928897 0.134324
H57   H     H_    0.190440 0.559041 0.983285 0.142825
C99   C     C_R   0.779410 0.412608 0.081406 0.106325
C100  C     C_R   0.757662 0.440513 0.137836 -0.140796
C101  C     C_R   0.750678 0.510643 0.169295 -0.146892
C102  C     C_R   0.765477 0.554509 0.145752 -0.106231
C103  C     C_R   0.787606 0.528449 0.090838 -0.119445
C104  C     C_R   0.794771 0.458451 0.059250 -0.149358
H58   H     H_    0.746178 0.409912 0.159189 0.128549
H59   H     H_    0.733980 0.531132 0.212416 0.127667
H60   H     H_    0.760168 0.608827 0.170411 0.121782
H61   H     H_    0.799656 0.562667 0.072991 0.133842
H62   H     H_    0.813284 0.440421 0.017916 0.142487
C105  C     C_1   0.232382 0.704090 0.094082 0.206736
N5    N     N_1   0.206253 0.697945 0.126249 -0.288696
C106  C     C_1   0.768501 0.295170 0.906030 0.206508
N6    N     N_1   0.794780 0.300925 0.873825 -0.275371
C107  C     C_1   0.097329 0.746765 0.910406 0.228032
N7    N     N_1   0.034850 0.726871 0.880298 -0.267851
C108  C     C_1   0.902188 0.251365 0.089605 0.226997
N8    N     N_1   0.964760 0.270539 0.119786 -0.264086
C109  C     C_1   0.232471 0.894650 0.082322 0.259363
N9    N     N_1   0.241993 0.956567 0.110821 -0.251392
C110  C     C_1   0.766248 0.104455 0.917347 0.256211
N10   N     N_1   0.756153 0.042461 0.888629 -0.255876

loop_
_geom_bond_atom_site_label_1
_geom_bond_atom_site_label_2
_ccdc_geom_bond_type
C91   H51   S    
C3    C109  S    
C86   H47   S    
C90   C91   A    
C99   C100  A    
C22   O18   A    
C20   C80   S    
C4    H4    S    
C28   O4    A    
C55   H24   S    
C14   C18   S    
C16   C73   S    
C53   C58   A    
C25   O21   A    
Cu6   O7    S    
C76   C77   A    
C71   C72   A    
C62   H30   S    
C27   C33   S    
C38   C87   S    
C5    C47   S    
Cu3   O22   S    
C81   C82   A    
C4    C110  S    
C6    C48   S    
C4    C52   S    
C43   H19   S    
C40   H2    S    
C7    C45   T    
C35   C37   D    
Cu4   O21   S    
C77   C78   A    
C83   C84   A    
Cu1   O10   S    
C91   C92   A    
C54   C55   A    
C25   C45   S    
C1    O1    A    
C74   C75   A    
C22   C38   S    
C24   O12   A    
C56   C57   A    
C18   C20   D    
Cu1   O1    S    
C88   C89   A    
C37   C81   S    
C2    O10   A    
C42   C99   S    
C61   C62   A    
Cu2   O13   S    
C96   C97   A    
C25   O19   A    
C36   H14   S    
C110  N10   T    
Cu5   O5    S    
C68   C69   A    
C49   C51   S    
C43   C105  S    
C44   C106  S    
C50   C52   S    
C88   H48   S    
C31   C33   D    
C107  N7    T    
C14   C16   D    
C23   O11   A    
C5    H21   S    
C27   O3    A    
C8    C52   S    
C29   O5    A    
C76   H40   S    
C42   H18   S    
C33   H11   S    
C32   H10   S    
C44   C52   S    
C103  C104  A    
Cu6   O24   S    
C35   H13   S    
C69   H34   S    
C87   C92   A    
C41   C43   S    
C74   H38   S    
C42   C44   S    
Cu4   O17   S    
Cu5   O23   S    
Cu6   O6    S    
C15   C29   S    
C89   H49   S    
C3    H3    S    
C71   H36   S    
C49   C65   S    
C1    C19   S    
C59   C64   A    
C2    C20   S    
C108  N8    T    
Cu2   O9    S    
C4    C6    S    
C67   C72   A    
C57   C58   A    
C70   H35   S    
C3    C51   S    
C63   H31   S    
C49   C53   S    
C21   O15   A    
C68   H33   S    
C95   C96   A    
C100  C101  A    
C32   C34   D    
C56   H25   S    
C31   H9    S    
C60   H28   S    
C97   C98   A    
Cu1   O11   S    
C75   H39   S    
C50   C66   S    
C24   O14   A    
C41   H17   S    
C21   O17   A    
C28   O24   A    
C6    H22   S    
C103  H61   S    
C13   H5    S    
C83   H44   S    
C55   C56   A    
C39   H1    S    
Cu3   Cu4   S    
C109  N9    T    
C41   C47   S    
Cu5   O4    S    
C15   C67   S    
C42   C48   S    
C84   H45   S    
C62   C63   A    
C61   H29   S    
C9    C11   T    
C6    C108  S    
C10   C12   T    
C99   C104  A    
C14   H6    S    
C82   H43   S    
Cu3   O15   S    
C87   C88   A    
C39   C49   S    
C9    C47   S    
C13   C15   D    
C10   C48   S    
C82   C83   A    
C19   C79   S    
C31   C35   S    
C2    O2    A    
C30   O6    A    
Cu4   O20   S    
C30   O8    A    
C65   N1    T    
C32   C36   S    
Cu2   O2    S    
C63   C64   A    
C39   C47   S    
C93   C98   A    
C90   H50   S    
C40   C48   S    
C34   H12   S    
C1    O9    A    
C28   C34   S    
Cu1   O14   S    
C73   C74   A    
C22   O16   A    
C73   C78   A    
C41   C93   S    
C100  H58   S    
C75   C76   A    
C3    C5    S    
C57   H26   S    
C95   H54   S    
Cu1   Cu2   S    
C70   C71   A    
C13   C17   S    
C93   C94   A    
C18   H8    S    
C53   C54   A    
C12   C24   S    
C97   H56   S    
C17   H7    S    
Cu5   O8    S    
C54   H23   S    
C101  C102  A    
C27   O23   A    
C44   H20   S    
C78   H42   S    
C66   N2    T    
C7    C51   S    
C64   H32   S    
C85   C86   A    
C60   C61   A    
C101  H59   S    
C36   C38   D    
C43   C51   S    
Cu5   Cu6   S    
C69   C70   A    
C92   H52   S    
C40   C50   S    
C81   C86   A    
Cu3   O18   S    
C11   C23   S    
C17   C19   D    
C72   H37   S    
C40   H16   S    
C59   C60   A    
C50   C59   S    
C96   H55   S    
C39   H15   S    
Cu4   O16   S    
C67   C68   A    
C104  H62   S    
C84   C85   A    
C8    C46   T    
C29   O7    A    
C94   H53   S    
C26   C46   S    
C85   H46   S    
C5    C107  S    
C77   H41   S    
C23   O13   A    
C21   C37   S    
C105  N5    T    
C102  C103  A    
C89   C90   A    
Cu3   O19   S    
C80   N4    T    
C98   H57   S    
C106  N6    T    
C79   N3    T    
Cu6   O3    S    
C16   C30   S    
C58   H27   S    
Cu2   O12   S    
C26   O22   A    
C94   C95   A    
C102  H60   S    
C26   O20   A    
