data_mof_unit_53528.cif
_audit_creation_date              2012-12-10T20:10:32-0500
_audit_creation_method            fapswitch 2.2
_symmetry_space_group_name_H-M    P1
_symmetry_Int_Tables_number       1
_space_group_crystal_system       triclinic
_cell_length_a                    18.210549
_cell_length_b                    18.613662
_cell_length_c                    11.489042
_cell_angle_alpha                 89.995951
_cell_angle_beta                  92.871845
_cell_angle_gamma                 91.647685
_cell_volume                      3887.88035653

loop_
_atom_site_label
_atom_site_type_symbol
_atom_type_description
_atom_site_fract_x
_atom_site_fract_y
_atom_site_fract_z
_atom_type_partial_charge
C1    C     C_R   0.363116 0.499382 0.503083 0.880803
C2    C     C_R   0.460337 0.192326 0.418811 0.327038
C3    C     C_R   0.443595 0.802659 0.440183 0.300752
C4    C     C_R   0.533858 0.197350 0.597729 0.334412
C5    C     C_R   0.490244 0.841693 0.520051 -0.200232
C6    C     C_R   0.495160 0.156275 0.511932 -0.202162
C7    C     C_R   0.443982 0.961339 0.588562 -0.188109
C8    C     C_R   0.541019 0.036473 0.448005 -0.195187
C9    C     C_R   0.541189 0.961008 0.452860 -0.206009
C10   C     C_R   0.446273 0.037098 0.587903 -0.180746
C11   C     C_R   0.494120 0.075516 0.516313 0.231106
C12   C     C_R   0.636600 0.501314 0.499061 0.907700
C13   C     C_R   0.491921 0.922433 0.521766 0.226625
C14   C     C_R   0.496682 0.499918 0.281851 0.906290
C15   C     C_R   0.499727 0.500012 0.718103 0.894810
C16   C     C_1   0.493308 0.499963 0.161209 -0.223960
C17   C     C_1   0.496492 0.500003 0.838221 -0.209796
C18   C     C_1   0.492289 0.499991 0.058805 -0.025387
C19   C     C_1   0.493798 0.499983 0.940258 -0.018469
C20   C     C_R   0.770254 0.491545 0.567793 -0.004131
C21   C     C_R   0.248125 0.558997 0.551862 0.027153
C22   C     C_R   0.241073 0.464100 0.409179 0.005320
C23   C     C_R   0.080087 0.586467 0.336140 0.026297
C24   C     C_R   0.737139 0.540305 0.374526 0.007949
C25   C     C_R   0.844828 0.510876 0.551285 0.403674
C26   C     C_R   0.187881 0.593770 0.493728 0.380500
C27   C     C_R   0.185077 0.499304 0.345328 0.380916
C28   C     C_R   0.808551 0.570279 0.368604 0.391900
C29   C     C_R   0.863470 0.550652 0.451955 -0.135719
C30   C     C_R   0.153525 0.562311 0.389930 -0.151492
C31   C     C_R   0.715997 0.507502 0.479389 -0.204147
C32   C     C_R   0.281554 0.501741 0.496897 -0.180327
C33   C     C_R   0.975299 0.633450 0.432108 0.083487
C34   C     C_R   0.941015 0.563344 0.422214 0.097342
C35   C     C_R   0.032483 0.532927 0.287388 0.140993
C36   C     C_R   0.043970 0.646131 0.379554 0.227747
C37   C     C_R   0.972368 0.511366 0.351105 0.126116
C38   C     C_3   0.750337 0.451863 0.677479 -0.345961
C39   C     C_3   0.766536 0.372142 0.668094 -0.824555
C40   C     C_3   0.275114 0.579798 0.675447 -0.371345
C41   C     C_3   0.273846 0.515512 0.758061 -0.884040
C42   C     C_3   0.255231 0.386124 0.383709 -0.342502
C43   C     C_3   0.248551 0.339140 0.491986 -0.853572
C44   C     C_3   0.686514 0.537203 0.264977 -0.372354
C45   C     C_R   0.547274 0.728111 0.576616 0.109950
C46   C     C_3   0.674093 0.459939 0.221493 -0.871904
C47   C     C_3   0.925206 0.536479 0.707734 0.082694
C48   C     C_3   0.007979 0.530440 0.729189 -0.817942
C49   C     C_3   0.213793 0.713383 0.536976 0.089738
C50   C     C_3   0.195709 0.772367 0.621812 -0.853002
C51   C     C_3   0.212566 0.485715 0.155286 0.056694
C52   C     C_3   0.194234 0.440093 0.047288 -0.852888
C53   C     C_3   0.798502 0.679390 0.278633 0.086771
C54   C     C_3   0.834195 0.727846 0.189810 -0.851784
C55   C     C_3   0.939291 0.693693 0.496617 -0.417976
C56   C     C_R   0.465083 0.268864 0.411657 0.116790
C57   C     C_3   0.986172 0.720475 0.602848 -0.844988
C58   C     C_3   0.025594 0.526116 0.155643 -0.327487
C59   C     C_3   0.965099 0.572640 0.101502 -0.891187
C60   C     C_3   0.066355 0.721598 0.340766 -0.354520
C61   C     C_3   0.120295 0.724033 0.242347 -0.918590
C62   C     C_3   0.949408 0.432176 0.350028 -0.379932
C63   C     C_3   0.877469 0.414423 0.280993 -0.856059
C64   C     C_3   0.612308 0.693473 0.639417 -0.278397
C65   C     C_3   0.681212 0.701756 0.569166 -0.869692
C66   C     C_3   0.434025 0.301145 0.300107 -0.304925
C67   C     C_R   0.452527 0.727394 0.425526 0.133674
C68   C     C_3   0.489850 0.300443 0.205081 -0.796161
C69   C     C_3   0.421793 0.696054 0.309972 -0.264942
C70   C     C_3   0.348999 0.653643 0.315312 -0.784013
C71   C     C_3   0.579488 0.312442 0.689484 -0.292165
C72   C     C_3   0.538982 0.312412 0.803166 -0.793438
C73   C     C_3   0.561821 0.851364 0.770500 0.108758
C74   C     C_3   0.617540 0.891675 0.851049 -0.819507
C75   C     C_3   0.353677 0.135137 0.353634 0.099741
C76   C     C_3   0.314824 0.099077 0.248003 -0.826469
C77   C     C_3   0.406733 0.880049 0.291455 0.113347
C78   C     C_R   0.535078 0.274038 0.592178 0.120789
C79   C     C_3   0.345802 0.880988 0.195792 -0.869516
C80   C     C_3   0.638460 0.141516 0.664010 0.104472
C81   C     C_3   0.685392 0.132277 0.775976 -0.836093
C82   C     C_R   0.542033 0.803932 0.588606 0.330773
H1    H     H_    0.405153 0.933056 0.641745 0.128781
H2    H     H_    0.217421 0.491209 0.758840 0.269587
H3    H     H_    0.667220 0.181327 0.608169 0.109227
H4    H     H_    0.634626 0.088960 0.618384 0.167551
H5    H     H_    0.659413 0.091285 0.832252 0.260224
H6    H     H_    0.740907 0.114421 0.755177 0.207829
H7    H     H_    0.691147 0.184094 0.823946 0.249531
H8    H     H_    0.312612 0.474204 0.731864 0.254939
H9    H     H_    0.291023 0.533823 0.847548 0.243677
H10   H     H_    0.331892 0.603179 0.675703 0.212178
H11   H     H_    0.239828 0.620598 0.712834 0.239325
H12   H     H_    0.257727 0.282288 0.469167 0.224008
H13   H     H_    0.289864 0.355698 0.561816 0.273218
H14   H     H_    0.192619 0.342948 0.525490 0.259803
H15   H     H_    0.215660 0.363478 0.315766 0.240658
H16   H     H_    0.309568 0.382334 0.349025 0.177422
H17   H     H_    0.578434 0.064644 0.392245 0.138652
H18   H     H_    0.647657 0.425693 0.287228 0.275958
H19   H     H_    0.638429 0.459369 0.140409 0.248133
H20   H     H_    0.727115 0.436543 0.200420 0.260038
H21   H     H_    0.633851 0.562449 0.281153 0.209279
H22   H     H_    0.709896 0.567154 0.191497 0.233650
H23   H     H_    0.898740 0.526019 0.791274 0.145411
H24   H     H_    0.913362 0.592660 0.681427 0.136294
H25   H     H_    0.028613 0.570822 0.794996 0.205169
H26   H     H_    0.021061 0.475931 0.762043 0.254746
H27   H     H_    0.036210 0.540131 0.646883 0.266200
H28   H     H_    0.578428 0.932387 0.400117 0.134384
H29   H     H_    0.214488 0.736280 0.448063 0.178273
H30   H     H_    0.270848 0.697847 0.561021 0.131442
H31   H     H_    0.188451 0.749384 0.709829 0.254242
H32   H     H_    0.241379 0.813281 0.627533 0.221939
H33   H     H_    0.144965 0.799543 0.591750 0.237478
H34   H     H_    0.269737 0.473335 0.186558 0.132416
H35   H     H_    0.211171 0.543551 0.130875 0.143878
H36   H     H_    0.237336 0.448626 0.983492 0.218393
H37   H     H_    0.192064 0.382302 0.071344 0.257421
H38   H     H_    0.140305 0.454838 0.006152 0.247701
H39   H     H_    0.409445 0.065845 0.641171 0.134245
H40   H     H_    0.808128 0.704204 0.366221 0.126451
H41   H     H_    0.738245 0.677613 0.258215 0.131635
H42   H     H_    0.823342 0.705488 0.100778 0.257491
H43   H     H_    0.811310 0.782413 0.193346 0.207872
H44   H     H_    0.894487 0.731923 0.208995 0.247000
H45   H     H_    0.023813 0.764748 0.577670 0.251956
H46   H     H_    0.950180 0.742187 0.668880 0.233942
H47   H     H_    0.018658 0.676765 0.643518 0.290555
H48   H     H_    0.928104 0.739499 0.437287 0.199833
H49   H     H_    0.885258 0.676028 0.528392 0.186608
H50   H     H_    0.733744 0.347518 0.593508 0.244360
H51   H     H_    0.910177 0.552911 0.126105 0.305451
H52   H     H_    0.973533 0.629394 0.129976 0.272863
H53   H     H_    0.966426 0.570551 0.005055 0.234094
H54   H     H_    0.077317 0.544978 0.117279 0.230163
H55   H     H_    0.015026 0.469093 0.129901 0.223524
H56   H     H_    0.094699 0.698053 0.162684 0.259498
H57   H     H_    0.171737 0.696297 0.267537 0.257159
H58   H     H_    0.134612 0.780835 0.221621 0.254656
H59   H     H_    0.016724 0.749340 0.306461 0.181973
H60   H     H_    0.089313 0.753550 0.415398 0.232281
H61   H     H_    0.825807 0.364358 0.655513 0.291454
H62   H     H_    0.830002 0.425756 0.333805 0.268528
H63   H     H_    0.873606 0.444476 0.197817 0.267772
H64   H     H_    0.874417 0.356070 0.260486 0.239140
H65   H     H_    0.993228 0.400469 0.311973 0.207630
H66   H     H_    0.945544 0.412717 0.440924 0.237034
H67   H     H_    0.699550 0.759107 0.566003 0.273690
H68   H     H_    0.726333 0.670383 0.610876 0.222310
H69   H     H_    0.670325 0.682104 0.478521 0.255907
H70   H     H_    0.624265 0.718179 0.726351 0.187197
H71   H     H_    0.601725 0.636842 0.659415 0.233726
H72   H     H_    0.751942 0.344369 0.749614 0.226764
H73   H     H_    0.543119 0.325832 0.236400 0.261600
H74   H     H_    0.499658 0.244325 0.178400 0.268851
H75   H     H_    0.468225 0.330318 0.127653 0.236245
H76   H     H_    0.383413 0.271668 0.267235 0.191717
H77   H     H_    0.414828 0.354727 0.314875 0.218810
H78   H     H_    0.308456 0.673563 0.248300 0.208766
H79   H     H_    0.356836 0.596028 0.296329 0.232668
H80   H     H_    0.325288 0.659456 0.401120 0.245323
H81   H     H_    0.412343 0.739609 0.246001 0.180263
H82   H     H_    0.463854 0.666864 0.265509 0.193935
H83   H     H_    0.781575 0.475335 0.754299 0.199935
H84   H     H_    0.481283 0.329153 0.787938 0.262941
H85   H     H_    0.538154 0.258017 0.842662 0.278921
H86   H     H_    0.567801 0.349972 0.866421 0.228306
H87   H     H_    0.632434 0.285685 0.706452 0.182714
H88   H     H_    0.597279 0.366676 0.665362 0.238717
H89   H     H_    0.547951 0.798771 0.811370 0.112332
H90   H     H_    0.511243 0.883332 0.762611 0.143580
H91   H     H_    0.631277 0.945084 0.813423 0.262722
H92   H     H_    0.594236 0.899533 0.937476 0.199082
H93   H     H_    0.668494 0.860514 0.862620 0.249909
H94   H     H_    0.691592 0.457631 0.695652 0.164367
H95   H     H_    0.322992 0.183910 0.375043 0.114588
H96   H     H_    0.351558 0.097169 0.427963 0.148717
H97   H     H_    0.343641 0.049573 0.225443 0.259093
H98   H     H_    0.257195 0.084402 0.267476 0.204430
H99   H     H_    0.314463 0.136309 0.172444 0.252967
H100  H     H_    0.458234 0.862425 0.252606 0.106949
H101  H     H_    0.414853 0.936071 0.323301 0.180690
H102  H     H_    0.294673 0.901361 0.231161 0.263221
H103  H     H_    0.362624 0.916808 0.123945 0.209765
H104  H     H_    0.334407 0.826123 0.160327 0.248972
N1    N     N_R   0.500000 0.689440 0.500000 -0.148357
N2    N     N_R   0.500000 0.310560 0.500000 -0.150248
O1    O     O_R   0.398180 0.560840 0.499970 -0.599199
O2    O     O_3   0.160807 0.655743 0.541385 -0.615288
O3    O     O_3   0.160155 0.470115 0.239471 -0.629220
O4    O     O_3   0.828304 0.610139 0.272632 -0.612781
O5    O     O_3   0.592336 0.841965 0.661003 -0.592391
O6    O     O_3   0.427144 0.152486 0.327733 -0.595307
O7    O     O_3   0.384027 0.835191 0.383290 -0.596193
O8    O     O_3   0.567593 0.162974 0.692351 -0.595259
O9    O     O_R   0.601820 0.439160 0.500030 -0.616851
O10   O     O_R   0.601820 0.560840 0.500030 -0.613623
O11   O     O_R   0.398180 0.439160 0.499970 -0.606547
O12   O     O_R   0.500010 0.560810 0.334440 -0.620672
O13   O     O_R   0.499990 0.439190 0.665560 -0.610083
O14   O     O_R   0.499990 0.560810 0.665560 -0.630725
O15   O     O_R   0.500010 0.439190 0.334440 -0.609349
O16   O     O_3   0.899928 0.483962 0.625090 -0.609098
Zn1   Zn    Zn3+2 0.500000 0.581210 0.500000 0.902156
Zn2   Zn    Zn3+2 0.500000 0.418790 0.500000 0.904771

loop_
_geom_bond_atom_site_label_1
_geom_bond_atom_site_label_2
_ccdc_geom_bond_type
C33   C55   S    
C38   H83   S    
C66   C68   S    
C21   C26   A    
O12   Zn1   S    
C79   H104  S    
C73   O5    S    
C7    C10   A    
C34   C37   A    
C73   C74   S    
C7    H1    S    
C45   C82   A    
C69   H82   S    
C40   H11   S    
C68   H73   S    
C43   H12   S    
C57   H46   S    
C37   C62   S    
C26   O2    S    
C2    C6    A    
C53   C54   S    
C55   H48   S    
C54   H44   S    
N2    Zn2   S    
C62   C63   S    
C22   C32   A    
C64   H70   S    
C35   C58   S    
C57   H47   S    
C28   C29   A    
C35   C37   A    
C8    H17   S    
C74   H92   S    
C53   H40   S    
C42   H16   S    
C38   C39   S    
C76   H97   S    
C61   H56   S    
C48   H25   S    
C20   C25   A    
C28   O4    S    
C33   C36   A    
C79   H102  S    
C4    O8    S    
C50   H33   S    
C65   H68   S    
C49   C50   S    
C75   H96   S    
C9    C13   A    
C82   O5    S    
C54   H42   S    
C60   H60   S    
C56   N2    A    
O1    Zn1   S    
C8    C9    A    
C47   H23   S    
O14   Zn1   S    
C22   C42   S    
C43   H13   S    
C63   H62   S    
C71   H87   S    
C46   H19   S    
C73   H89   S    
C63   H64   S    
C5    C13   S    
C49   H29   S    
C81   H7    S    
C10   H39   S    
C48   H27   S    
C62   H66   S    
C27   C30   A    
C25   C29   A    
C72   H86   S    
O9    Zn2   S    
C1    O11   A    
C27   O3    S    
C70   H80   S    
C66   H77   S    
C15   O13   A    
C44   H21   S    
C44   C46   S    
C33   C34   A    
C77   C79   S    
C44   H22   S    
C80   O8    S    
C54   H43   S    
C3    C67   A    
C39   H72   S    
C2    O6    S    
C51   C52   S    
C23   C30   S    
C69   H81   S    
O15   Zn2   S    
C74   H91   S    
C4    C6    A    
C53   H41   S    
C42   H15   S    
C6    C11   S    
C18   C19   S    
C49   O2    S    
C58   H54   S    
C58   C59   S    
C41   H2    S    
C14   O12   A    
C64   H71   S    
C59   H51   S    
O11   Zn2   S    
C3    O7    S    
C60   C61   S    
C67   C69   S    
C65   H69   S    
C75   C76   S    
C75   O6    S    
C4    C78   A    
C80   H3    S    
C60   H59   S    
C20   C38   S    
C38   H94   S    
C47   C48   S    
C12   O9    A    
C47   H24   S    
C14   O15   A    
N1    Zn1   S    
C77   H100  S    
C71   H88   S    
C40   H10   S    
C73   H90   S    
C81   H5    S    
C49   H30   S    
C52   H38   S    
C58   H55   S    
C40   C41   S    
C41   H9    S    
C39   H61   S    
C26   C30   A    
C23   C35   A    
C62   H65   S    
C55   C57   S    
C12   C31   S    
C24   C44   S    
C72   H85   S    
C14   C16   S    
C77   H101  S    
C78   N2    A    
C42   C43   S    
C25   O16   S    
C17   C19   T    
C68   H75   S    
C70   H79   S    
C3    C5    A    
C66   H76   S    
C15   O14   A    
C51   O3    S    
C9    H28   S    
C15   C17   S    
C46   H18   S    
C12   O10   A    
C79   H103  S    
C72   H84   S    
C45   N1    A    
C24   C28   A    
C80   C81   S    
C76   H98   S    
C45   C64   S    
C57   H45   S    
C61   H58   S    
C67   N1    A    
C59   H52   S    
C55   H49   S    
C51   H34   S    
O10   Zn1   S    
C22   C27   A    
C50   H31   S    
C64   C65   S    
C77   O7    S    
C24   C31   A    
C74   H93   S    
C2    C56   A    
C21   C32   A    
C5    C82   A    
C48   H26   S    
C21   C40   S    
C8    C11   A    
C56   C66   S    
C29   C34   S    
C59   H53   S    
C51   H35   S    
C47   O16   S    
C41   H8    S    
O13   Zn2   S    
C70   H78   S    
C1    C32   S    
C65   H67   S    
C69   C70   S    
C75   H95   S    
C53   O4    S    
C61   H57   S    
C81   H6    S    
C10   C11   A    
C52   H37   S    
C80   H4    S    
C7    C13   A    
C71   C72   S    
C16   C18   T    
C23   C36   A    
C39   H50   S    
C43   H14   S    
C36   C60   S    
C50   H32   S    
C68   H74   S    
C63   H63   S    
C71   C78   S    
C76   H99   S    
C1    O1    A    
C46   H20   S    
C20   C31   A    
C52   H36   S    
