data_mof_unit_58761.cif
_audit_creation_date              2013-03-05T15:46:13-0500
_audit_creation_method            fapswitch 2.2
_symmetry_space_group_name_H-M    P1
_symmetry_Int_Tables_number       1
_space_group_crystal_system       triclinic
_cell_length_a                    18.321821
_cell_length_b                    18.39506
_cell_length_c                    34.424512
_cell_angle_alpha                 89.673001
_cell_angle_beta                  90.060136
_cell_angle_gamma                 90.116146
_cell_volume                      11601.9085457

loop_
_atom_site_label
_atom_site_type_symbol
_atom_site_description
_atom_site_fract_x
_atom_site_fract_y
_atom_site_fract_z
_atom_type_partial_charge
Zn1   Zn    Zn3+2 0.000000 0.586740 0.032740 1.091729
Zn2   Zn    Zn3+2 0.413260 0.000000 0.032740 1.095886
Zn3   Zn    Zn3+2 1.000000 0.413260 0.032740 1.092310
Zn4   Zn    Zn3+2 0.586740 0.000000 0.032740 1.094477
Zn5   Zn    Zn3+2 0.500000 0.086740 0.532740 1.097532
Zn6   Zn    Zn3+2 0.913260 0.500000 0.532740 1.124177
Zn7   Zn    Zn3+2 0.500000 0.913260 0.532740 1.092248
Zn8   Zn    Zn3+2 0.086740 0.500000 0.532740 1.091685
Zn9   Zn    Zn3+2 0.913250 0.500000 0.967240 1.120953
Zn10  Zn    Zn3+2 0.500000 0.913250 0.967240 1.124917
Zn11  Zn    Zn3+2 0.086750 0.500000 0.967240 1.120085
Zn12  Zn    Zn3+2 0.500000 0.086750 0.967240 1.126269
Zn13  Zn    Zn3+2 0.413250 0.000000 0.467240 1.133520
Zn14  Zn    Zn3+2 1.000000 0.413250 0.467240 1.120802
Zn15  Zn    Zn3+2 0.586750 0.000000 0.467240 1.125050
Zn16  Zn    Zn3+2 1.000000 0.586750 0.467240 1.143614
O1    O     O_3   0.000000 0.500000 0.999990 -0.564004
O2    O     O_3   0.500000 0.000000 0.999990 -0.565813
O3    O     O_3   0.500000 0.000000 0.499990 -0.558848
O4    O     O_3   1.000000 0.500000 0.499990 -0.566077
O5    O     O_R   0.060750 0.500000 0.912560 -0.586903
O6    O     O_R   0.500000 0.060750 0.912560 -0.588697
O7    O     O_R   0.939250 0.500000 0.912560 -0.587216
O8    O     O_R   0.500000 0.939250 0.912560 -0.587680
O9    O     O_R   0.560750 0.000000 0.412560 -0.563687
O10   O     O_R   1.000000 0.560750 0.412560 -0.569082
O11   O     O_R   0.439250 0.000000 0.412560 -0.587747
O12   O     O_R   1.000000 0.439250 0.412560 -0.606836
O13   O     O_R   1.000000 0.560690 0.087420 -0.625212
O14   O     O_R   0.439310 0.000000 0.087420 -0.623113
O15   O     O_R   1.000000 0.439310 0.087420 -0.626714
O16   O     O_R   0.560690 0.000000 0.087420 -0.626114
O17   O     O_R   0.500000 0.060690 0.587420 -0.628357
O18   O     O_R   0.939310 0.500000 0.587420 -0.616594
O19   O     O_R   0.500000 0.939310 0.587420 -0.615814
O20   O     O_R   0.060690 0.500000 0.587420 -0.627849
O21   O     O_R   0.853830 0.585440 0.977070 -0.598547
O22   O     O_R   0.414560 0.853830 0.977070 -0.597491
O23   O     O_R   0.146170 0.414560 0.977070 -0.598894
O24   O     O_R   0.585440 0.146170 0.977070 -0.597461
O25   O     O_R   0.146170 0.585440 0.977070 -0.618355
O26   O     O_R   0.585440 0.853830 0.977070 -0.617490
O27   O     O_R   0.853830 0.414560 0.977070 -0.618288
O28   O     O_R   0.414560 0.146170 0.977070 -0.618226
O29   O     O_R   0.353830 0.085440 0.477070 -0.603854
O30   O     O_R   0.914560 0.353830 0.477070 -0.596019
O31   O     O_R   0.646170 0.914560 0.477070 -0.640437
O32   O     O_R   0.085440 0.646170 0.477070 -0.600875
O33   O     O_R   0.646170 0.085440 0.477070 -0.614830
O34   O     O_R   0.085440 0.353830 0.477070 -0.621416
O35   O     O_R   0.353830 0.914560 0.477070 -0.628827
O36   O     O_R   0.914560 0.646170 0.477070 -0.609202
O37   O     O_R   0.085460 0.353830 0.022910 -0.608939
O38   O     O_R   0.646170 0.085460 0.022910 -0.608070
O39   O     O_R   0.914540 0.646170 0.022910 -0.608502
O40   O     O_R   0.353830 0.914540 0.022910 -0.607619
O41   O     O_R   0.914540 0.353830 0.022910 -0.584862
O42   O     O_R   0.353830 0.085460 0.022910 -0.584804
O43   O     O_R   0.085460 0.646170 0.022910 -0.583862
O44   O     O_R   0.646170 0.914540 0.022910 -0.585406
O45   O     O_R   0.585460 0.853830 0.522910 -0.599016
O46   O     O_R   0.146170 0.585460 0.522910 -0.603843
O47   O     O_R   0.414540 0.146170 0.522910 -0.601519
O48   O     O_R   0.853830 0.414540 0.522910 -0.568454
O49   O     O_R   0.414540 0.853830 0.522910 -0.582388
O50   O     O_R   0.853830 0.585460 0.522910 -0.582258
O51   O     O_R   0.585460 0.146170 0.522910 -0.584022
O52   O     O_R   0.146170 0.414540 0.522910 -0.591944
C1    C     C_R   0.999950 0.500447 0.894390 0.986725
C2    C     C_R   0.500105 0.000169 0.894493 0.989633
C3    C     C_R   0.499669 0.999093 0.394241 1.029947
C4    C     C_R   0.999274 0.500340 0.394357 1.001400
C5    C     C_R   0.000451 0.499807 0.105505 0.814186
C6    C     C_R   0.500087 0.999346 0.105481 0.825016
C7    C     C_R   0.500096 0.999795 0.605630 0.787982
C8    C     C_R   0.000180 0.499778 0.605702 0.799137
C9    C     C_R   0.861795 0.642204 0.998676 0.876071
C10   C     C_R   0.357373 0.862303 0.998527 0.881001
C11   C     C_R   0.138224 0.357743 0.998772 0.879373
C12   C     C_R   0.642606 0.137875 0.998531 0.884123
C13   C     C_R   0.143179 0.636983 0.002070 0.900701
C14   C     C_R   0.637176 0.857041 0.002090 0.901871
C15   C     C_R   0.856796 0.362920 0.002110 0.904318
C16   C     C_R   0.362955 0.143091 0.002076 0.903856
C17   C     C_R   0.362796 0.142930 0.497503 0.898561
C18   C     C_R   0.860665 0.359606 0.500884 0.919432
C19   C     C_R   0.636806 0.856881 0.497519 0.867089
C20   C     C_R   0.142053 0.638575 0.499017 0.888743
C21   C     C_R   0.639227 0.140824 0.499125 0.960752
C22   C     C_R   0.138515 0.358038 0.501608 0.909650
C23   C     C_R   0.356738 0.863179 0.502297 0.899793
C24   C     C_R   0.861430 0.642216 0.501416 0.933812
C25   C     C_R   0.288882 0.624009 0.959258 0.400253
C26   C     C_R   0.377635 0.288540 0.959239 0.399548
C27   C     C_R   0.711202 0.376784 0.959067 0.400419
C28   C     C_R   0.622039 0.712008 0.959663 0.400639
C29   C     C_R   0.759822 0.671943 0.931134 0.397822
C30   C     C_R   0.672091 0.239003 0.930644 0.401418
C31   C     C_R   0.239367 0.328903 0.931087 0.397094
C32   C     C_R   0.327853 0.762303 0.930673 0.401628
C33   C     C_R   0.661802 0.238790 0.429336 0.364367
C34   C     C_R   0.881026 0.792907 0.465498 0.393993
C35   C     C_R   0.209409 0.878451 0.461567 0.406842
C36   C     C_R   0.114631 0.206560 0.469986 0.385364
C37   C     C_R   0.243734 0.158877 0.435025 0.407717
C38   C     C_R   0.171014 0.741466 0.431994 0.397022
C39   C     C_R   0.749044 0.840879 0.432678 0.375070
C40   C     C_R   0.757504 0.356311 0.435781 0.355520
C41   C     C_R   0.328162 0.631203 0.924528 -0.226711
C42   C     C_R   0.370928 0.328065 0.924512 -0.212298
C43   C     C_R   0.671968 0.370191 0.924286 -0.226586
C44   C     C_R   0.628173 0.672956 0.924995 -0.212088
C45   C     C_R   0.696435 0.656855 0.909817 -0.186152
C46   C     C_R   0.656314 0.302010 0.909186 -0.197305
C47   C     C_R   0.302421 0.344352 0.909538 -0.188221
C48   C     C_R   0.343751 0.699644 0.909344 -0.198413
C49   C     C_R   0.673772 0.285442 0.397887 -0.217289
C50   C     C_R   0.880966 0.840083 0.433385 -0.238252
C51   C     C_R   0.169149 0.872970 0.427041 -0.231042
C52   C     C_R   0.112105 0.160438 0.437742 -0.217070
C53   C     C_R   0.175963 0.140841 0.418937 -0.174147
C54   C     C_R   0.153967 0.805101 0.411261 -0.212925
C55   C     C_R   0.815831 0.860634 0.415962 -0.242009
C56   C     C_R   0.720189 0.344137 0.401250 -0.207033
H1    H     H_    0.346822 0.583673 0.909052 0.197368
H2    H     H_    0.418869 0.346382 0.908888 0.197543
H3    H     H_    0.653387 0.417990 0.908706 0.197402
H4    H     H_    0.579977 0.654803 0.909597 0.197397
H5    H     H_    0.699703 0.631173 0.881656 0.197156
H6    H     H_    0.630484 0.298505 0.880960 0.198780
H7    H     H_    0.298707 0.370369 0.881319 0.197140
H8    H     H_    0.369608 0.703617 0.881148 0.198930
H9    H     H_    0.643147 0.278560 0.371208 0.198409
H10   H     H_    0.931673 0.860894 0.421582 0.202896
H11   H     H_    0.149604 0.921211 0.412210 0.196654
H12   H     H_    0.060521 0.140662 0.426614 0.201222
H13   H     H_    0.172610 0.110884 0.392008 0.195050
H14   H     H_    0.127606 0.802299 0.383150 0.199751
H15   H     H_    0.817643 0.892548 0.389460 0.208592
H16   H     H_    0.724111 0.382835 0.377497 0.215058
C57   C     C_R   0.295755 0.754686 0.968173 -0.071514
C58   C     C_R   0.246573 0.296510 0.968597 -0.074331
C59   C     C_R   0.704197 0.245997 0.968167 -0.072353
C60   C     C_R   0.753190 0.703961 0.968559 -0.075763
C61   C     C_R   0.686664 0.737420 0.978283 -0.098107
C62   C     C_R   0.737055 0.312679 0.977968 -0.100820
C63   C     C_R   0.313303 0.263034 0.978185 -0.099325
C64   C     C_R   0.262953 0.687788 0.978024 -0.101762
C65   C     C_R   0.754061 0.304106 0.466687 -0.081326
C66   C     C_R   0.748854 0.800703 0.468167 -0.089634
C67   C     C_R   0.203426 0.747665 0.469467 -0.068867
C68   C     C_R   0.246724 0.197302 0.470589 -0.083060
C69   C     C_R   0.183627 0.234104 0.482658 -0.098378
C70   C     C_R   0.236337 0.814062 0.479289 -0.104601
C71   C     C_R   0.813253 0.764549 0.479524 -0.092982
C72   C     C_R   0.702607 0.246069 0.464464 -0.084088
C73   C     C_R   0.204925 0.688561 0.005438 -0.185014
C74   C     C_R   0.311802 0.204799 0.005543 -0.189873
C75   C     C_R   0.795073 0.311379 0.005474 -0.186792
C76   C     C_R   0.688614 0.795438 0.005476 -0.189420
C77   C     C_R   0.808967 0.702711 0.997115 -0.188960
C78   C     C_R   0.703719 0.190172 0.996678 -0.185063
C79   C     C_R   0.191200 0.297426 0.997360 -0.189405
C80   C     C_R   0.296109 0.810141 0.996579 -0.182815
C81   C     C_R   0.693949 0.198841 0.497471 -0.224166
C82   C     C_R   0.805966 0.700726 0.502994 -0.196334
C83   C     C_R   0.294320 0.812808 0.506507 -0.182414
C84   C     C_R   0.193481 0.299449 0.504009 -0.192702
C85   C     C_R   0.311188 0.204392 0.493097 -0.190592
C86   C     C_R   0.201673 0.692522 0.498416 -0.185395
C87   C     C_R   0.686991 0.794687 0.492626 -0.179094
C88   C     C_R   0.799995 0.308513 0.499711 -0.191166
C89   C     C_R   0.198877 0.747451 0.031415 0.203450
C90   C     C_R   0.253101 0.199466 0.031945 0.208959
C91   C     C_R   0.801019 0.252182 0.031566 0.203836
C92   C     C_R   0.747884 0.800677 0.031515 0.207174
C93   C     C_R   0.806738 0.753300 0.028095 0.181676
C94   C     C_R   0.755054 0.192226 0.027524 0.170080
C95   C     C_R   0.194193 0.246906 0.028626 0.180843
C96   C     C_R   0.244606 0.807670 0.027259 0.167341
C97   C     C_R   0.735921 0.208978 0.531199 0.246751
C98   C     C_R   0.738524 0.686461 0.522058 0.184424
C99   C     C_R   0.297685 0.755905 0.533977 0.225321
C100  C     C_R   0.262646 0.314772 0.520980 0.170320
C101  C     C_R   0.321058 0.267121 0.515702 0.186180
C102  C     C_R   0.249711 0.697235 0.530801 0.194947
C103  C     C_R   0.679261 0.733161 0.516733 0.181624
C104  C     C_R   0.788669 0.263569 0.532269 0.265420
C105  C     C_R   0.442782 0.033616 0.832213 0.240314
C106  C     C_R   0.990672 0.435240 0.832245 0.229647
C107  C     C_R   0.557890 0.966982 0.832549 0.240026
C108  C     C_R   0.008710 0.567197 0.832084 0.227977
C109  C     C_R   0.939121 0.528466 0.331595 0.227649
C110  C     C_R   0.501707 0.931393 0.332127 0.217883
C111  C     C_R   0.060562 0.473836 0.332183 0.231965
C112  C     C_R   0.490425 0.063669 0.330461 0.218512
C113  C     C_R   0.500356 0.000445 0.852383 -0.227719
C114  C     C_R   0.999784 0.501013 0.852188 -0.234620
C115  C     C_R   0.999865 0.501500 0.352018 -0.251947
C116  C     C_R   0.498098 0.998332 0.351778 -0.249761
C117  C     C_R   0.559050 0.969023 0.791717 -0.008695
C118  C     C_R   0.009164 0.567470 0.791164 -0.008003
C119  C     C_R   0.441406 0.030822 0.791414 -0.008390
C120  C     C_R   0.990563 0.435535 0.791383 -0.010169
C121  C     C_R   0.061761 0.475637 0.291285 -0.006886
C122  C     C_R   0.503204 0.062682 0.290336 -0.003889
C123  C     C_R   0.938608 0.526259 0.290703 -0.012643
C124  C     C_R   0.497552 0.930914 0.291146 -0.003078
C125  C     C_R   0.500164 0.999720 0.770871 -0.000419
C126  C     C_R   0.999868 0.501648 0.770763 -0.001868
C127  C     C_R   0.000221 0.500498 0.270352 0.000237
C128  C     C_R   0.502213 0.996659 0.270073 0.003364
C129  C     C_R   0.619874 0.944031 0.771664 -0.155514
C130  C     C_R   0.022862 0.631680 0.770326 -0.161936
C131  C     C_R   0.380465 0.055453 0.771134 -0.156160
C132  C     C_R   0.978115 0.371317 0.770791 -0.163329
C133  C     C_R   0.123839 0.453500 0.271121 -0.156437
C134  C     C_R   0.518438 0.127103 0.270598 -0.148082
C135  C     C_R   0.878363 0.551803 0.269890 -0.164503
C136  C     C_R   0.485066 0.866426 0.271156 -0.155619
C137  C     C_R   0.126608 0.454800 0.230716 -0.039564
C138  C     C_R   0.527223 0.128711 0.230593 -0.033105
C139  C     C_R   0.875597 0.548638 0.229589 -0.037917
C140  C     C_R   0.478701 0.865231 0.230860 -0.038314
C141  C     C_R   0.623146 0.945951 0.731320 -0.041285
C142  C     C_R   0.023555 0.632729 0.729826 -0.037187
C143  C     C_R   0.377048 0.053042 0.730819 -0.040932
C144  C     C_R   0.979412 0.370397 0.730384 -0.026514
C145  C     C_R   0.065415 0.480348 0.208889 0.033211
C146  C     C_R   0.514467 0.064210 0.208542 0.039299
C147  C     C_R   0.936027 0.520479 0.208441 0.034294
C148  C     C_R   0.491102 0.930188 0.208631 0.040437
C149  C     C_R   0.561003 0.969458 0.709371 0.028455
C150  C     C_R   0.007088 0.568324 0.708889 0.025728
C151  C     C_R   0.439075 0.029184 0.709124 0.027245
C152  C     C_R   0.995280 0.435157 0.709423 0.027300
C153  C     C_R   0.000558 0.500363 0.229137 0.053192
C154  C     C_R   0.503101 0.996882 0.228903 0.052932
C155  C     C_R   0.500054 0.999382 0.729652 0.062644
C156  C     C_R   0.000319 0.501800 0.729674 0.049178
C157  C     C_R   0.066543 0.487909 0.167851 -0.081278
C158  C     C_R   0.511328 0.064228 0.167438 -0.080413
C159  C     C_R   0.934759 0.511649 0.167596 -0.080756
C160  C     C_R   0.491617 0.931759 0.167397 -0.081074
C161  C     C_R   0.556970 0.963784 0.668299 -0.087632
C162  C     C_R   0.997179 0.567577 0.667983 -0.084333
C163  C     C_R   0.443073 0.034816 0.668056 -0.090962
C164  C     C_R   0.007665 0.435441 0.668962 -0.086500
C165  C     C_R   0.000580 0.499436 0.147813 -0.068393
C166  C     C_R   0.500620 0.998436 0.147748 -0.075269
C167  C     C_R   0.500002 0.999344 0.648165 -0.077355
C168  C     C_R   0.001023 0.500953 0.648163 -0.072873
H17   H     H_    0.667707 0.925956 0.787519 0.204305
H18   H     H_    0.037191 0.681214 0.785396 0.203431
H19   H     H_    0.332722 0.073773 0.786818 0.204003
H20   H     H_    0.963945 0.321495 0.785915 0.203906
H21   H     H_    0.171446 0.434322 0.286778 0.208440
H22   H     H_    0.527545 0.176760 0.286790 0.190146
H23   H     H_    0.832577 0.576087 0.284804 0.210035
H24   H     H_    0.474746 0.816449 0.287042 0.204117
N1    N     N_R   0.147946 0.745738 0.063118 0.257615
O53   O     O_R   0.098923 0.796378 0.066546 -0.227605
O54   O     O_R   0.152684 0.695157 0.089569 -0.384130
N2    N     N_R   0.253736 0.147686 0.063342 0.257791
O55   O     O_R   0.200866 0.100860 0.067162 -0.228665
O56   O     O_R   0.304550 0.150718 0.089697 -0.400307
N3    N     N_R   0.852074 0.253319 0.063270 0.257391
O57   O     O_R   0.900820 0.202369 0.066875 -0.228547
O58   O     O_R   0.847595 0.303567 0.089603 -0.383756
N4    N     N_R   0.747879 0.852243 0.062695 0.257591
O59   O     O_R   0.800584 0.899345 0.065933 -0.228345
O60   O     O_R   0.698030 0.848536 0.089509 -0.404025
N5    N     N_R   0.864826 0.758804 0.055952 0.251471
O61   O     O_R   0.927109 0.786839 0.045526 -0.237839
O62   O     O_R   0.851722 0.747692 0.092648 -0.390242
N6    N     N_R   0.763243 0.132480 0.054214 0.252956
O63   O     O_R   0.789152 0.070956 0.041917 -0.241524
O64   O     O_R   0.755750 0.142674 0.091364 -0.370859
N7    N     N_R   0.136936 0.241698 0.056949 0.249655
O65   O     O_R   0.074329 0.213635 0.047212 -0.237968
O66   O     O_R   0.151246 0.252779 0.093469 -0.390061
N8    N     N_R   0.235844 0.867390 0.053549 0.253918
O67   O     O_R   0.210323 0.928972 0.040701 -0.242599
O68   O     O_R   0.242861 0.857301 0.090804 -0.367669
N9    N     N_R   0.725725 0.162671 0.564588 0.226666
O69   O     O_R   0.711063 0.190626 0.598318 -0.355308
O70   O     O_R   0.733943 0.092685 0.561608 -0.452898
N10   N     N_R   0.729210 0.624442 0.546993 0.260038
O71   O     O_R   0.686865 0.571155 0.536528 -0.240080
O72   O     O_R   0.757746 0.624378 0.581625 -0.370687
N11   N     N_R   0.345975 0.759638 0.566845 0.251470
O73   O     O_R   0.390099 0.706182 0.574686 -0.242376
O74   O     O_R   0.342821 0.814812 0.590285 -0.393488
N12   N     N_R   0.275165 0.379715 0.542844 0.263386
O75   O     O_R   0.317908 0.430217 0.529120 -0.237182
O76   O     O_R   0.251307 0.384226 0.578334 -0.346027
N13   N     N_R   0.392188 0.286381 0.530226 0.258349
O77   O     O_R   0.447681 0.288613 0.506670 -0.273743
O78   O     O_R   0.400831 0.307322 0.565964 -0.327262
N14   N     N_R   0.249967 0.643426 0.561103 0.248687
O79   O     O_R   0.283453 0.582002 0.555786 -0.223224
O80   O     O_R   0.226998 0.660101 0.595658 -0.407247
N15   N     N_R   0.609340 0.714295 0.533025 0.263267
O81   O     O_R   0.552195 0.710743 0.510615 -0.275345
O82   O     O_R   0.603310 0.695086 0.569298 -0.314728
N16   N     N_R   0.831902 0.272504 0.566623 0.196921
O83   O     O_R   0.822436 0.329729 0.588037 -0.391513
O84   O     O_R   0.868448 0.217673 0.580512 -0.400621
N17   N     N_R   0.284716 0.553511 0.977564 0.228042
O85   O     O_R   0.292312 0.494713 0.957142 -0.396763
O86   O     O_R   0.281426 0.547881 0.015208 -0.440971
N18   N     N_R   0.448260 0.283847 0.977458 0.227868
O87   O     O_R   0.507464 0.291598 0.957004 -0.394235
O88   O     O_R   0.453614 0.280133 0.015092 -0.444905
N19   N     N_R   0.715409 0.446980 0.977274 0.228091
O89   O     O_R   0.707827 0.506109 0.956758 -0.397132
O90   O     O_R   0.718695 0.451997 0.014913 -0.441303
N20   N     N_R   0.551784 0.716217 0.978203 0.227875
O91   O     O_R   0.492176 0.708408 0.958070 -0.394326
O92   O     O_R   0.547246 0.719444 0.015849 -0.447447
N21   N     N_R   0.829632 0.662493 0.912697 0.222810
O93   O     O_R   0.837059 0.616198 0.884531 -0.356854
O94   O     O_R   0.883489 0.706235 0.920615 -0.336383
N22   N     N_R   0.663191 0.169293 0.912328 0.215889
O95   O     O_R   0.617409 0.161456 0.883712 -0.362650
O96   O     O_R   0.707467 0.116154 0.920599 -0.347973
N23   N     N_R   0.169297 0.338395 0.912811 0.222998
O97   O     O_R   0.161463 0.384811 0.884443 -0.357343
O98   O     O_R   0.115612 0.294524 0.921060 -0.336797
N24   N     N_R   0.336637 0.832315 0.912247 0.216146
O99   O     O_R   0.382143 0.840585 0.883542 -0.363132
O100  O     O_R   0.292446 0.885337 0.920488 -0.347849
N25   N     N_R   0.606450 0.185636 0.424592 0.192078
O101  O     O_R   0.544023 0.194385 0.441934 -0.344922
O102  O     O_R   0.613248 0.137798 0.397177 -0.377381
N26   N     N_R   0.948395 0.782573 0.486261 0.218147
O103  O     O_R   0.010784 0.792588 0.468989 -0.395332
O104  O     O_R   0.947651 0.772365 0.523608 -0.474216
N27   N     N_R   0.213526 0.947369 0.481059 0.225319
O105  O     O_R   0.203115 0.007360 0.461825 -0.412612
O106  O     O_R   0.218460 0.950164 0.518752 -0.429427
N28   N     N_R   0.048628 0.218416 0.491611 0.223551
O107  O     O_R   0.985095 0.206833 0.475831 -0.371743
O108  O     O_R   0.051875 0.232474 0.528480 -0.457429
N29   N     N_R   0.307671 0.151099 0.411641 0.230829
O109  O     O_R   0.312388 0.098448 0.386681 -0.335127
O110  O     O_R   0.353850 0.204803 0.409808 -0.279197
N30   N     N_R   0.163188 0.672279 0.413046 0.216510
O111  O     O_R   0.117737 0.664670 0.384263 -0.359717
O112  O     O_R   0.208000 0.619468 0.421080 -0.342669
N31   N     N_R   0.682986 0.853152 0.410923 0.233400
O113  O     O_R   0.680616 0.902972 0.383949 -0.357344
O114  O     O_R   0.627711 0.809214 0.414923 -0.310298
N32   N     N_R   0.791665 0.425741 0.440201 0.180105
O115  O     O_R   0.842769 0.445687 0.416290 -0.391142
O116  O     O_R   0.762840 0.473583 0.463230 -0.333242
N33   N     N_R   0.385115 0.068676 0.853316 0.201840
O117  O     O_R   0.373673 0.137997 0.848774 -0.373758
O118  O     O_R   0.346313 0.032200 0.878384 -0.333823
N34   N     N_R   0.982754 0.368268 0.853648 0.206765
O119  O     O_R   0.928492 0.359256 0.877552 -0.370515
O120  O     O_R   0.029362 0.315804 0.848903 -0.301681
N35   N     N_R   0.615633 0.932229 0.854019 0.201771
O121  O     O_R   0.654155 0.968944 0.878929 -0.334549
O122  O     O_R   0.627159 0.862875 0.850128 -0.373538
N36   N     N_R   0.016223 0.633914 0.853343 0.207459
O123  O     O_R   0.069501 0.642357 0.877931 -0.371952
O124  O     O_R   0.969951 0.686585 0.847960 -0.301953
N37   N     N_R   0.877195 0.555848 0.352510 0.216062
O125  O     O_R   0.882208 0.616697 0.371403 -0.335475
O126  O     O_R   0.814056 0.523780 0.349619 -0.354065
N38   N     N_R   0.507093 0.864238 0.353644 0.218844
O127  O     O_R   0.462292 0.850077 0.382013 -0.376416
O128  O     O_R   0.555136 0.815689 0.343837 -0.297582
N39   N     N_R   0.120917 0.444211 0.353749 0.197372
O129  O     O_R   0.136467 0.375432 0.351108 -0.364451
O130  O     O_R   0.156460 0.484404 0.378359 -0.322199
N40   N     N_R   0.462193 0.128929 0.347924 0.238009
O131  O     O_R   0.471433 0.141807 0.384494 -0.265499
O132  O     O_R   0.417012 0.170055 0.328592 -0.325731
C169  C     C_R   0.192580 0.421747 0.213485 0.109180
C170  C     C_R   0.189229 0.351807 0.197420 -0.104790
C171  C     C_R   0.252345 0.319408 0.182676 -0.081545
C172  C     C_R   0.319106 0.356184 0.184402 -0.132533
C173  C     C_R   0.323024 0.425236 0.200993 -0.115058
C174  C     C_R   0.260144 0.457724 0.215852 -0.129559
H25   H     H_    0.137802 0.322781 0.196139 0.162156
H26   H     H_    0.249541 0.265800 0.169952 0.183252
H27   H     H_    0.367884 0.331065 0.173112 0.118113
H28   H     H_    0.374809 0.453510 0.202447 0.122155
H29   H     H_    0.263827 0.511102 0.228842 0.138885
C175  C     C_R   0.553755 0.199007 0.214821 0.110140
C176  C     C_R   0.627454 0.207432 0.204524 -0.117990
C177  C     C_R   0.653744 0.275274 0.192312 -0.111676
C178  C     C_R   0.607011 0.335243 0.191034 -0.124119
C179  C     C_R   0.534031 0.327576 0.202079 -0.119186
C180  C     C_R   0.507564 0.259914 0.214334 -0.134364
H30   H     H_    0.664270 0.161495 0.205880 0.153637
H31   H     H_    0.710406 0.281439 0.184036 0.153355
H32   H     H_    0.627399 0.387837 0.181854 0.115864
H33   H     H_    0.498119 0.374194 0.201405 0.123655
H34   H     H_    0.451137 0.254758 0.223308 0.149696
C181  C     C_R   0.810715 0.582723 0.211577 0.106611
C182  C     C_R   0.815518 0.652674 0.195217 -0.116659
C183  C     C_R   0.753313 0.685901 0.179655 -0.078552
C184  C     C_R   0.686095 0.649857 0.180789 -0.135672
C185  C     C_R   0.680788 0.580754 0.197636 -0.119069
C186  C     C_R   0.742700 0.547524 0.213383 -0.121861
H35   H     H_    0.867344 0.681056 0.194347 0.164543
H36   H     H_    0.757177 0.739549 0.166734 0.189196
H37   H     H_    0.638052 0.675575 0.168830 0.120073
H38   H     H_    0.628727 0.552934 0.198574 0.120310
H39   H     H_    0.737948 0.494127 0.226578 0.135978
C187  C     C_R   0.452553 0.795221 0.214995 0.112122
C188  C     C_R   0.378345 0.785978 0.205948 -0.113862
C189  C     C_R   0.352430 0.718362 0.193564 -0.108367
C190  C     C_R   0.400080 0.659350 0.190904 -0.120418
C191  C     C_R   0.473574 0.667731 0.200837 -0.114449
C192  C     C_R   0.499691 0.735200 0.213268 -0.131089
H40   H     H_    0.340851 0.831172 0.208346 0.151710
H41   H     H_    0.295378 0.711638 0.186194 0.149692
H42   H     H_    0.379997 0.606950 0.181504 0.114913
H43   H     H_    0.510148 0.621792 0.199143 0.121247
H44   H     H_    0.556528 0.740901 0.221393 0.145066
C193  C     C_R   0.695887 0.929076 0.714762 0.110590
C194  C     C_R   0.727211 0.860219 0.720973 -0.135468
C195  C     C_R   0.796994 0.844970 0.706929 -0.122738
C196  C     C_R   0.836143 0.898258 0.686709 -0.121733
C197  C     C_R   0.806128 0.967294 0.681174 -0.104530
C198  C     C_R   0.736718 0.983226 0.695691 -0.111329
H45   H     H_    0.697254 0.818317 0.736440 0.148602
H46   H     H_    0.820584 0.791745 0.711623 0.132916
H47   H     H_    0.889766 0.886119 0.675383 0.122073
H48   H     H_    0.836640 0.008255 0.665484 0.134057
H49   H     H_    0.714294 0.037152 0.691533 0.145479
C199  C     C_R   0.054855 0.698378 0.711183 0.111336
C200  C     C_R   0.123348 0.694439 0.693004 -0.124178
C201  C     C_R   0.153669 0.756155 0.675483 -0.086067
C202  C     C_R   0.116213 0.822152 0.676336 -0.117945
C203  C     C_R   0.048942 0.826971 0.695271 -0.121082
C204  C     C_R   0.018392 0.765362 0.712902 -0.124937
H50   H     H_    0.152697 0.643424 0.692037 0.161991
H51   H     H_    0.206014 0.752768 0.661079 0.197668
H52   H     H_    0.139438 0.869414 0.662280 0.131601
H53   H     H_    0.020485 0.878408 0.696191 0.131037
H54   H     H_    0.966070 0.769484 0.727324 0.139443
C205  C     C_R   0.304410 0.070191 0.714022 0.117957
C206  C     C_R   0.272979 0.138876 0.720166 -0.141558
C207  C     C_R   0.203207 0.154302 0.706025 -0.122995
C208  C     C_R   0.164418 0.101602 0.685487 -0.111047
C209  C     C_R   0.194559 0.032785 0.679938 -0.115623
C210  C     C_R   0.263778 0.016472 0.694764 -0.113708
H55   H     H_    0.302714 0.180425 0.735803 0.148027
H56   H     H_    0.179277 0.207129 0.711009 0.135135
H57   H     H_    0.110928 0.113954 0.673964 0.125153
H58   H     H_    0.164216 0.992318 0.664026 0.126241
H59   H     H_    0.286258 0.962654 0.690648 0.141492
C211  C     C_R   0.950997 0.304090 0.711530 0.107840
C212  C     C_R   0.883663 0.306418 0.692012 -0.159665
C213  C     C_R   0.855168 0.243620 0.675091 -0.029322
C214  C     C_R   0.893389 0.178180 0.677754 -0.078602
C215  C     C_R   0.959614 0.175065 0.697883 -0.152879
C216  C     C_R   0.988383 0.237774 0.714901 -0.125378
H60   H     H_    0.853553 0.356888 0.689787 0.165618
H61   H     H_    0.803546 0.245728 0.659840 0.213045
H62   H     H_    0.871527 0.129964 0.664257 0.148542
H63   H     H_    0.988445 0.123998 0.700369 0.137545
H64   H     H_    0.039759 0.234885 0.730411 0.144753
C217  C     C_R   0.136052 0.492203 0.145562 0.071868
C218  C     C_R   0.180768 0.553951 0.148934 -0.076200
C219  C     C_R   0.246138 0.558575 0.128130 -0.118621
C220  C     C_R   0.267223 0.501740 0.103861 -0.066430
C221  C     C_R   0.222258 0.440831 0.099668 -0.109792
C222  C     C_R   0.156690 0.436176 0.120265 -0.146085
H65   H     H_    0.165178 0.598131 0.167842 0.151813
H66   H     H_    0.280504 0.606168 0.130856 0.139488
H67   H     H_    0.318355 0.504995 0.088247 0.171956
H68   H     H_    0.238416 0.397026 0.080670 0.153590
H69   H     H_    0.122763 0.388348 0.117258 0.199921
C223  C     C_R   0.514046 0.132201 0.143809 0.055737
C224  C     C_R   0.451345 0.175213 0.139433 -0.095898
C225  C     C_R   0.453838 0.238556 0.116782 -0.105030
C226  C     C_R   0.518739 0.259160 0.098436 -0.078183
C227  C     C_R   0.580639 0.215361 0.101643 -0.132980
C228  C     C_R   0.578208 0.151691 0.123964 -0.108963
H70   H     H_    0.401061 0.160069 0.153899 0.169932
H71   H     H_    0.405577 0.271837 0.113533 0.153447
H72   H     H_    0.521036 0.308955 0.081606 0.180510
H73   H     H_    0.630555 0.231036 0.087029 0.161421
H74   H     H_    0.626494 0.118209 0.126518 0.197306
C229  C     C_R   0.865166 0.507135 0.145323 0.073595
C230  C     C_R   0.820887 0.445074 0.148925 -0.081257
C231  C     C_R   0.755684 0.440015 0.127957 -0.120126
C232  C     C_R   0.734203 0.496829 0.103404 -0.067246
C233  C     C_R   0.778680 0.558119 0.099035 -0.110603
C234  C     C_R   0.844167 0.563133 0.119718 -0.141057
H75   H     H_    0.836790 0.400887 0.168040 0.151094
H76   H     H_    0.721805 0.392051 0.130723 0.141050
H77   H     H_    0.683149 0.493252 0.087703 0.173262
H78   H     H_    0.762232 0.601918 0.079817 0.152331
H79   H     H_    0.877751 0.611212 0.116526 0.200145
C235  C     C_R   0.486178 0.864923 0.143439 0.055512
C236  C     C_R   0.548056 0.821721 0.137145 -0.106500
C237  C     C_R   0.543020 0.759662 0.113979 -0.102709
C238  C     C_R   0.476349 0.740456 0.097105 -0.080403
C239  C     C_R   0.415185 0.784494 0.102225 -0.138663
C240  C     C_R   0.420156 0.847006 0.124979 -0.105206
H80   H     H_    0.599682 0.835722 0.150521 0.172194
H81   H     H_    0.590665 0.726263 0.109189 0.156042
H82   H     H_    0.472077 0.691582 0.079914 0.181941
H83   H     H_    0.363909 0.769854 0.088738 0.164691
H84   H     H_    0.372434 0.880748 0.128941 0.194412
C241  C     C_R   0.609447 0.918474 0.645833 0.111204
C242  C     C_R   0.656794 0.950538 0.618453 -0.131566
C243  C     C_R   0.706044 0.907718 0.597732 -0.129117
C244  C     C_R   0.708723 0.832784 0.604257 -0.131415
C245  C     C_R   0.661526 0.800399 0.631152 -0.041323
C246  C     C_R   0.611207 0.842788 0.651424 -0.088214
H85   H     H_    0.656118 0.008750 0.613687 0.170006
H86   H     H_    0.742569 0.932694 0.576861 0.167444
H87   H     H_    0.747392 0.799837 0.588472 0.141550
H88   H     H_    0.664050 0.742402 0.636378 0.184746
H89   H     H_    0.574800 0.817024 0.672116 0.146065
C247  C     C_R   0.976312 0.634499 0.646432 0.107105
C248  C     C_R   0.908368 0.666837 0.653685 -0.082645
C249  C     C_R   0.889682 0.732126 0.635372 -0.164343
C250  C     C_R   0.939189 0.766289 0.610423 -0.065388
C251  C     C_R   0.006420 0.733684 0.602499 -0.055182
C252  C     C_R   0.024437 0.667264 0.619833 -0.189520
H90   H     H_    0.870334 0.641834 0.673810 0.144611
H91   H     H_    0.837213 0.756673 0.640913 0.143179
H92   H     H_    0.925245 0.817870 0.597116 0.161820
H93   H     H_    0.044837 0.760071 0.583131 0.176524
H94   H     H_    0.076997 0.643010 0.613879 0.181337
C253  C     C_R   0.391445 0.081242 0.645389 0.129090
C254  C     C_R   0.343795 0.050510 0.617836 -0.143799
C255  C     C_R   0.296228 0.094766 0.596560 -0.141382
C256  C     C_R   0.295809 0.169767 0.602578 -0.116799
C257  C     C_R   0.343318 0.200773 0.629617 -0.055647
C258  C     C_R   0.391629 0.156909 0.650623 -0.101237
H95   H     H_    0.343072 0.992320 0.613220 0.145336
H96   H     H_    0.259517 0.070909 0.575515 0.173396
H97   H     H_    0.258827 0.203913 0.586198 0.137636
H98   H     H_    0.342747 0.258874 0.634312 0.179119
H99   H     H_    0.428414 0.181622 0.671377 0.142344
C259  C     C_R   0.042540 0.371932 0.650323 0.084553
C260  C     C_R   0.115732 0.355916 0.658936 -0.079855
C261  C     C_R   0.148572 0.294019 0.643514 -0.116599
C262  C     C_R   0.107854 0.246480 0.620586 -0.138400
C263  C     C_R   0.035054 0.262169 0.612071 -0.028048
C264  C     C_R   0.003241 0.326142 0.625565 -0.153641
H100  H     H_    0.147095 0.391205 0.677745 0.146822
H101  H     H_    0.205058 0.282167 0.650055 0.145165
H102  H     H_    0.132322 0.197186 0.609685 0.149098
H103  H     H_    0.003122 0.224153 0.595409 0.230350
H104  H     H_    0.947173 0.338206 0.618517 0.200537

loop_
_geom_bond_atom_site_label_1
_geom_bond_atom_site_label_2
_geom_bond_distance
_ccdc_geom_bond_type
C195  C196  1.396519 A    
N33   O117  1.301219 A    
C65   C88   1.416340 A    
C76   C92   1.410881 A    
C193  C194  1.406790 A    
C129  H17   1.083776 S    
N11   O73   1.301190 A    
Zn5   O51   1.936817 S    
C49   H9    1.083643 S    
C223  C224  1.403697 A    
C100  C101  1.397398 A    
N15   O82   1.300531 A    
C200  C201  1.396978 A    
C237  C238  1.397678 A    
C28   C61   1.425093 A    
N8    O67   1.301343 A    
C67   C86   1.418271 A    
C248  H90   1.083123 S    
C109  C123  1.408522 A    
C119  C131  1.391466 A    
C103  N15   1.440022 S    
C112  N40   1.442740 S    
C30   C46   1.401317 A    
Zn10  O26   1.939425 S    
C121  C127  1.412913 A    
C31   N23   1.439595 S    
C225  H71   1.081839 S    
C255  H96   1.082266 S    
C133  H21   1.083454 S    
N38   O127  1.301257 A    
C134  H22   1.085303 S    
C207  C208  1.395939 A    
C220  H67   1.081958 S    
C227  C228  1.397760 A    
Zn13  O35   1.938472 S    
C39   C66   1.424210 A    
O34   C22   1.289910 A    
C233  C234  1.397716 A    
C251  C252  1.396672 A    
C247  C252  1.404412 A    
O52   C22   1.282788 A    
C127  C153  1.418846 A    
C100  N12   1.433514 S    
C145  C153  1.428251 A    
C108  C114  1.406322 A    
C111  C115  1.403485 A    
C190  H42   1.082168 S    
Zn4   O2    1.947550 S    
C226  H72   1.081797 S    
C238  H82   1.081817 S    
O47   C17   1.290699 A    
C46   H6    1.082567 S    
C261  H101  1.081290 S    
C27   C62   1.425184 A    
C40   C56   1.389714 A    
C160  C235  1.487463 S    
C133  C137  1.391961 A    
C250  H92   1.082232 S    
N24   O99   1.301622 A    
C241  C246  1.404843 A    
Zn16  O36   1.942173 S    
C157  C165  1.406775 A    
C243  H86   1.082168 S    
C28   N20   1.439750 S    
C246  H89   1.082971 S    
N28   O107  1.301726 A    
C60   C61   1.408120 A    
O22   C10   1.292794 A    
C239  C240  1.397814 A    
C217  C218  1.404417 A    
C32   N24   1.441160 S    
C17   C85   1.482372 S    
Zn12  O24   1.938023 S    
C183  H36   1.082383 S    
C14   C76   1.479370 S    
N15   O81   1.301627 A    
C124  C128  1.409192 A    
C19   C87   1.479685 S    
Zn1   O13   1.939718 S    
N16   O83   1.300554 A    
C118  C130  1.400781 A    
C173  H28   1.082310 S    
Zn3   O15   1.945018 S    
Zn4   O16   1.942386 S    
C180  H34   1.083156 S    
Zn3   O41   1.938424 S    
C217  C222  1.405710 A    
C258  H99   1.082922 S    
Zn7   O3    1.948440 S    
C69   C84   1.423591 A    
C169  C170  1.404471 A    
N4    O60   1.300615 A    
C70   C83   1.415901 A    
C104  N16   1.432758 S    
C171  C172  1.397969 A    
C8    C168  1.462044 S    
O11   C3    1.274781 A    
C199  C200  1.405077 A    
C209  H58   1.079612 S    
C195  H46   1.082241 S    
C105  C113  1.401228 A    
C221  H68   1.082609 S    
O49   C23   1.285457 A    
C123  C135  1.396105 A    
C257  H98   1.081906 S    
Zn9   O7    1.942159 S    
C252  H94   1.082426 S    
C244  C245  1.397537 A    
C105  N33   1.438659 S    
N39   O129  1.301147 A    
C176  C177  1.399345 A    
Zn10  O22   1.936420 S    
C32   C57   1.425202 A    
C189  C190  1.397895 A    
C159  C229  1.489590 S    
C260  H100  1.083205 S    
C149  C155  1.430363 A    
C99   N11   1.437450 S    
C263  H103  1.078206 S    
Zn12  O28   1.942173 S    
C183  C184  1.397983 A    
C206  C207  1.396516 A    
Zn13  O29   1.945169 S    
C106  C120  1.406654 A    
Zn14  O34   1.939425 S    
Zn10  O2    1.959096 S    
N30   O111  1.301608 A    
Zn3   O1    1.948440 S    
N7    O66   1.301078 A    
C112  C122  1.401436 A    
C177  C178  1.398287 A    
C191  H43   1.081426 S    
C122  C128  1.404088 A    
N9    O70   1.301105 A    
N21   O93   1.301546 A    
C203  H53   1.081897 S    
C107  C117  1.406101 A    
N40   O131  1.293198 A    
C202  H52   1.079421 S    
C109  N37   1.437919 S    
C164  C168  1.403673 A    
Zn8   O46   1.938869 S    
C138  C175  1.480951 S    
O27   C15   1.280261 A    
C152  C164  1.411423 A    
C102  N14   1.433912 S    
N31   O113  1.301666 A    
C82   C98   1.422986 A    
C149  C161  1.420150 A    
C201  H51   1.082188 S    
O8    C2    1.278538 A    
C3    C116  1.462140 S    
C214  C215  1.397781 A    
C230  C231  1.398328 A    
C121  C133  1.395716 A    
C132  C144  1.391419 A    
C231  H76   1.081564 S    
C18   C88   1.454884 S    
C23   C83   1.477116 S    
N11   O74   1.301598 A    
C39   N31   1.440112 S    
C218  H65   1.083085 S    
O16   C6    1.273150 A    
N1    O53   1.301259 A    
O14   C6    1.274840 A    
Zn15  O9    1.941190 S    
Zn6   O48   1.941602 S    
Zn12  O6    1.944787 S    
O40   C10   1.281275 A    
N18   O87   1.300989 A    
C53   H13   1.082776 S    
C228  H74   1.082213 S    
C171  H26   1.082406 S    
N20   O92   1.300426 A    
C15   C75   1.478451 S    
O45   C19   1.285733 A    
N36   O123  1.300980 A    
C169  C174  1.405014 A    
O17   C7    1.280516 A    
C110  C116  1.410034 A    
N2    O55   1.301216 A    
Zn5   O17   1.939718 S    
C38   N30   1.440261 S    
C193  C198  1.404754 A    
C233  H78   1.082626 S    
O9    C3    1.284113 A    
C36   C69   1.429616 A    
C50   H10   1.082755 S    
Zn15  O33   1.941200 S    
C189  H41   1.082386 S    
C248  C249  1.396264 A    
C123  C127  1.413267 A    
N13   O78   1.300688 A    
Zn4   O44   1.945570 S    
C117  C125  1.412128 A    
N34   O119  1.300965 A    
C74   C90   1.411727 A    
C5    C165  1.456402 S    
N17   O86   1.300862 A    
Zn9   O27   1.938472 S    
C211  C212  1.404786 A    
C220  C221  1.397411 A    
C174  H29   1.083207 S    
C99   C102  1.395196 A    
N23   O98   1.301605 A    
C16   C74   1.478931 S    
C218  C219  1.398336 A    
N22   O95   1.301622 A    
O50   C24   1.283616 A    
N20   O91   1.301012 A    
Zn10  O8    1.939495 S    
C206  H55   1.083101 S    
C135  C139  1.389734 A    
Zn11  O5    1.941190 S    
O5    C1    1.277010 A    
N10   O72   1.301297 A    
C29   C60   1.425034 A    
C175  C180  1.405481 A    
C146  C158  1.416106 A    
C178  H32   1.081973 S    
C35   C70   1.418439 A    
C226  C227  1.396420 A    
C48   H8    1.082561 S    
N7    O65   1.301290 A    
C38   C54   1.403098 A    
C131  H19   1.083735 S    
C224  C225  1.399021 A    
C150  C156  1.419283 A    
C143  C205  1.484274 S    
C107  N35   1.438717 S    
C12   C78   1.475918 S    
C40   N32   1.429966 S    
C42   H2    1.082625 S    
C66   C71   1.409460 A    
C79   C95   1.419063 A    
C216  H64   1.082953 S    
C11   C79   1.476684 S    
C96   N8    1.436668 S    
C243  C244  1.396285 A    
C196  C197  1.396890 A    
C41   H1    1.082619 S    
C239  H83   1.081738 S    
C186  H39   1.083227 S    
C22   C84   1.478446 S    
N4    O59   1.301197 A    
C34   N26   1.438101 S    
C58   C63   1.408125 A    
C125  C155  1.419003 A    
C236  C237  1.399105 A    
C163  C167  1.411370 A    
C120  C132  1.399331 A    
N8    O68   1.301050 A    
C142  C150  1.421934 A    
O29   C17   1.283623 A    
Zn2   O14   1.941415 S    
C33   C49   1.394900 A    
C181  C186  1.404434 A    
Zn1   O39   1.939825 S    
C185  C186  1.397124 A    
C245  H88   1.081986 S    
Zn2   O40   1.941602 S    
C172  H27   1.080623 S    
C4    C115  1.457571 S    
Zn3   O37   1.942572 S    
C240  H84   1.082485 S    
C1    C114  1.452747 S    
C33   N25   1.417266 S    
C170  H25   1.083051 S    
N5    O62   1.301049 A    
N38   O128  1.301389 A    
C131  C143  1.390144 A    
C64   C73   1.422487 A    
C78   C94   1.418384 A    
C129  C141  1.390432 A    
C199  C204  1.404403 A    
C209  C210  1.399057 A    
N6    O63   1.301327 A    
C138  C146  1.430881 A    
C57   C80   1.417099 A    
N22   O96   1.301603 A    
N32   O115  1.298305 A    
C257  C258  1.397265 A    
C119  C125  1.412484 A    
C244  H87   1.082066 S    
C63   C74   1.422583 A    
C198  H49   1.083152 S    
O6    C2    1.279302 A    
C128  C154  1.417360 A    
C25   C41   1.401562 A    
N37   O126  1.301452 A    
O41   C15   1.287537 A    
C196  H47   1.081580 S    
C59   C62   1.407899 A    
C176  H30   1.083060 S    
C170  C171  1.399118 A    
C159  C165  1.404707 A    
C60   C77   1.417362 A    
C130  H18   1.082798 S    
O10   C4    1.278896 A    
C229  C234  1.405897 A    
C260  C261  1.396642 A    
C32   C48   1.401397 A    
C39   C55   1.399217 A    
N26   O103  1.301319 A    
C93   N5    1.435656 S    
C222  H69   1.081592 S    
Zn14  O30   1.936420 S    
C236  H80   1.082821 S    
C52   C53   1.387032 A    
Zn15  O3    1.949628 S    
C256  C257  1.397038 A    
N24   O100  1.301599 A    
N25   O101  1.301464 A    
C136  H24   1.083384 S    
C49   C56   1.378359 A    
C191  C192  1.398439 A    
C177  H31   1.082384 S    
Zn1   O43   1.936817 S    
C31   C47   1.401359 A    
N12   O75   1.300905 A    
N28   O108  1.297987 A    
C194  C195  1.396949 A    
C26   C63   1.424999 A    
C203  C204  1.398700 A    
Zn5   O47   1.939825 S    
C25   C64   1.425130 A    
C259  C260  1.404550 A    
Zn8   O20   1.942386 S    
C35   N27   1.439576 S    
C262  H102  1.081632 S    
C201  C202  1.396256 A    
Zn7   O45   1.942572 S    
C41   C48   1.389667 A    
O35   C23   1.281051 A    
C111  N39   1.437730 S    
C181  C182  1.404299 A    
N14   O80   1.300741 A    
N16   O84   1.300311 A    
N35   O121  1.301160 A    
O32   C20   1.289943 A    
N29   O110  1.300681 A    
C97   N9    1.438817 S    
C80   C96   1.417520 A    
C112  C116  1.411800 A    
C245  C246  1.398370 A    
C161  C167  1.412012 A    
N19   O89   1.301067 A    
C132  H20   1.082718 S    
C231  C232  1.397279 A    
Zn16  O10   1.944787 S    
O12   C4    1.283627 A    
C110  N38   1.440231 S    
C161  C241  1.493120 S    
C7    C167  1.464222 S    
O48   C18   1.273266 A    
C97   C104  1.392910 A    
C139  C147  1.425662 A    
C91   C94   1.393810 A    
O38   C12   1.276364 A    
C235  C240  1.405287 A    
N25   O102  1.300277 A    
C9    C77   1.477219 S    
C20   C86   1.474390 S    
Zn13  O3    1.947697 S    
C92   N4    1.436465 S    
C205  C206  1.406763 A    
C158  C166  1.403816 A    
Zn14  O4    1.959096 S    
C204  H54   1.083024 S    
C13   C73   1.479889 S    
C179  C180  1.397945 A    
C54   H14   1.082530 S    
N26   O104  1.298286 A    
C91   N3    1.436874 S    
C215  C216  1.398656 A    
C162  C168  1.408001 A    
C89   C96   1.394339 A    
C197  C198  1.399082 A    
C25   N17   1.440520 S    
C232  H77   1.081912 S    
C26   C42   1.401066 A    
C51   H11   1.082628 S    
Zn6   O18   1.941415 S    
C52   H12   1.082485 S    
O23   C11   1.289334 A    
C230  H75   1.083072 S    
C219  C220  1.397325 A    
N9    O69   1.301111 A    
Zn7   O49   1.938424 S    
C145  C157  1.418921 A    
N27   O105  1.297999 A    
N14   O79   1.300772 A    
N3    O57   1.301257 A    
O25   C13   1.285402 A    
C86   C102  1.422597 A    
N30   O112  1.301544 A    
Zn8   O4    1.947550 S    
C117  C129  1.391792 A    
C227  H73   1.082054 S    
C160  C166  1.406791 A    
C184  H37   1.080202 S    
C187  C188  1.404720 A    
O36   C24   1.286869 A    
O18   C8    1.279989 A    
C182  H35   1.083039 S    
N40   O132  1.302336 A    
C58   C79   1.418561 A    
C106  C114  1.404093 A    
C173  C174  1.397715 A    
C94   N6    1.436445 S    
C37   C68   1.418089 A    
C235  C236  1.403550 A    
Zn11  O1    1.949628 S    
C106  N34   1.438994 S    
C38   C67   1.424615 A    
C158  C223  1.488551 S    
C148  C160  1.419627 A    
C151  C155  1.429866 A    
C249  H91   1.080546 S    
C56   H16   1.083406 S    
Zn12  O2    1.948586 S    
O43   C13   1.290442 A    
C175  C176  1.404451 A    
O28   C16   1.280279 A    
C179  H33   1.082068 S    
C178  C179  1.397146 A    
Zn2   O42   1.942047 S    
Zn5   O3    1.958948 S    
C87   C103  1.406604 A    
Zn6   O4    1.949482 S    
C212  H60   1.083194 S    
C224  H70   1.082914 S    
C33   C72   1.427849 A    
C147  C153  1.428078 A    
C141  C149  1.432025 A    
C27   N19   1.440440 S    
N23   O97   1.301529 A    
C109  C115  1.405559 A    
C223  C228  1.405126 A    
C150  C162  1.419764 A    
C68   C85   1.418093 A    
N3    O58   1.301113 A    
C263  C264  1.396404 A    
O46   C20   1.275872 A    
C72   C81   1.435089 A    
N18   O88   1.300548 A    
C242  C243  1.397908 A    
C43   C46   1.389645 A    
C101  N13   1.439690 S    
C50   C55   1.387294 A    
C44   H4    1.082620 S    
C98   N10   1.433807 S    
C213  C214  1.396373 A    
N2    O56   1.300605 A    
C225  C226  1.397681 A    
C137  C145  1.427868 A    
C188  H40   1.083086 S    
C210  H59   1.083140 S    
C42   C47   1.389008 A    
C110  C124  1.412787 A    
C250  C251  1.398930 A    
C73   C89   1.413251 A    
C36   C52   1.401618 A    
O31   C19   1.281290 A    
C124  C136  1.393201 A    
C10   C80   1.476931 S    
C251  H93   1.082351 S    
C55   H15   1.082581 S    
C30   C59   1.425165 A    
Zn2   O2    1.949482 S    
N13   O77   1.301611 A    
O7    C1    1.276519 A    
C31   C58   1.425145 A    
C242  H85   1.082473 S    
O26   C14   1.281593 A    
Zn15  O31   1.941648 S    
C202  C203  1.398080 A    
C172  C173  1.397353 A    
Zn16  O32   1.938023 S    
N34   O120  1.301042 A    
C190  C191  1.397378 A    
C36   N28   1.438392 S    
C47   H7    1.082589 S    
N17   O85   1.301141 A    
C122  C134  1.390600 A    
C28   C44   1.401202 A    
O19   C7    1.280174 A    
C238  C239  1.395997 A    
C262  C263  1.395735 A    
C253  C254  1.408478 A    
C26   N18   1.439913 S    
C214  H62   1.079752 S    
C261  C262  1.395799 A    
O37   C11   1.277068 A    
C65   C72   1.425157 A    
C140  C148  1.433110 A    
O39   C9    1.278235 A    
C137  C169  1.480250 S    
O15   C5    1.278258 A    
O13   C5    1.278271 A    
C71   C82   1.427468 A    
C207  H56   1.081577 S    
O51   C21   1.285906 A    
C139  C181  1.479104 S    
C241  C242  1.407869 A    
C67   C70   1.403915 A    
O20   C8    1.275389 A    
C57   C64   1.408261 A    
O44   C14   1.291211 A    
C45   H5    1.082593 S    
C83   C99   1.408044 A    
C66   C87   1.416454 A    
N21   O94   1.301607 A    
C213  H61   1.081943 S    
C229  C230  1.404166 A    
O24   C12   1.289908 A    
C247  C248  1.404009 A    
C59   C78   1.416470 A    
C89   N1    1.436819 S    
C34   C50   1.401512 A    
Zn16  O4    1.948586 S    
C254  H95   1.083086 S    
C208  C209  1.396347 A    
C30   N22   1.441057 S    
C256  H97   1.080979 S    
C75   C91   1.411950 A    
C148  C154  1.431379 A    
N35   O122  1.301238 A    
C118  C126  1.413103 A    
C215  H63   1.081575 S    
C151  C163  1.418902 A    
C44   C45   1.389098 A    
C6    C166  1.455041 S    
C134  C138  1.386822 A    
C194  H45   1.083090 S    
N39   O130  1.300963 A    
C163  C253  1.492347 S    
C219  H66   1.081799 S    
N19   O90   1.300814 A    
C142  C199  1.479249 S    
C259  C264  1.399554 A    
C254  C255  1.397652 A    
C29   N21   1.439752 S    
N1    O54   1.301095 A    
C61   C76   1.423988 A    
C237  H81   1.081805 S    
C62   C75   1.422960 A    
C84   C100  1.423211 A    
C221  C222  1.397848 A    
C90   N2    1.436636 S    
C152  C156  1.416527 A    
C126  C156  1.414499 A    
N33   O118  1.301149 A    
C147  C159  1.416481 A    
N31   O114  1.301385 A    
O42   C16   1.287256 A    
C188  C189  1.399094 A    
C111  C121  1.408291 A    
C205  C210  1.404841 A    
C255  C256  1.396306 A    
Zn9   O21   1.945169 S    
N5    O61   1.301281 A    
C37   C53   1.399142 A    
C185  H38   1.081976 S    
C68   C69   1.405267 A    
Zn11  O23   1.941648 S    
C21   C81   1.463730 S    
C187  C192  1.404700 A    
Zn9   O1    1.947697 S    
C92   C93   1.393340 A    
N27   O106  1.301886 A    
N6    O64   1.301028 A    
Zn8   O52   1.945570 S    
C2    C113  1.449577 S    
N32   O116  1.301008 A    
C43   H3    1.082619 S    
C146  C154  1.434534 A    
C135  H23   1.082552 S    
C29   C45   1.401275 A    
C105  C119  1.405907 A    
C136  C140  1.392241 A    
N37   O125  1.300801 A    
C51   C54   1.391804 A    
C182  C183  1.399042 A    
C184  C185  1.397429 A    
O21   C9    1.293368 A    
C232  C233  1.397279 A    
Zn4   O38   1.938869 S    
Zn7   O19   1.945018 S    
C35   C51   1.402196 A    
C107  C113  1.401859 A    
O33   C21   1.280666 A    
C140  C187  1.480301 S    
C200  H50   1.083222 S    
C264  H104  1.078508 S    
C164  C259  1.482326 S    
C143  C151  1.431577 A    
C108  N36   1.438786 S    
C157  C217  1.489225 S    
C211  C216  1.404434 A    
C81   C97   1.405092 A    
N10   O71   1.301103 A    
C192  H44   1.083036 S    
C85   C101  1.406709 A    
C208  H57   1.080979 S    
C27   C43   1.401607 A    
N12   O76   1.301161 A    
C253  C258  1.404537 A    
C234  H79   1.081526 S    
C144  C211  1.478410 S    
C197  H48   1.079924 S    
C88   C104  1.404248 A    
C162  C247  1.484228 S    
C34   C71   1.429289 A    
C212  C213  1.396729 A    
Zn11  O25   1.941200 S    
C37   N29   1.429947 S    
C98   C103  1.397170 A    
C130  C142  1.394287 A    
N36   O124  1.301075 A    
C144  C152  1.418989 A    
C95   N7    1.435618 S    
C40   C65   1.430511 A    
C24   C82   1.482978 S    
Zn6   O50   1.942047 S    
C141  C193  1.484186 S    
Zn1   O1    1.958948 S    
C120  C126  1.414749 A    
C108  C118  1.408668 A    
C249  C250  1.395874 A    
Zn13  O11   1.942159 S    
Zn14  O12   1.939495 S    
N29   O109  1.301433 A    
C77   C93   1.420067 A    
C90   C95   1.393512 A    
O30   C18   1.288997 A    
