data_mof_unit_64892.cif
_audit_creation_date              2013-03-05T15:40:09-0500
_audit_creation_method            fapswitch 2.2
_symmetry_space_group_name_H-M    P1
_symmetry_Int_Tables_number       1
_space_group_crystal_system       triclinic
_cell_length_a                    16.412745
_cell_length_b                    16.55311
_cell_length_c                    28.787338
_cell_angle_alpha                 89.629284
_cell_angle_beta                  90.36656
_cell_angle_gamma                 90.22782
_cell_volume                      7820.61648719

loop_
_atom_site_label
_atom_site_type_symbol
_atom_site_description
_atom_site_fract_x
_atom_site_fract_y
_atom_site_fract_z
_atom_type_partial_charge
O1    O     O_R   0.589050 0.066000 0.546390 -0.612633
O2    O     O_R   0.585350 0.934000 0.453610 -0.567652
O3    O     O_R   0.586750 0.068930 0.454890 -0.613444
O4    O     O_R   0.587650 0.931070 0.545110 -0.606647
C1    C     C_R   0.617202 0.997832 0.560450 0.856440
C2    C     C_R   0.612522 0.001969 0.438662 0.971401
O5    O     O_R   0.413250 0.931070 0.545110 -0.611774
O6    O     O_R   0.412350 0.068930 0.454890 -0.557974
O7    O     O_R   0.410950 0.934000 0.453610 -0.548854
O8    O     O_R   0.414650 0.066000 0.546390 -0.588943
Zn1   Zn    Zn3+2 0.500940 0.090730 0.500860 1.111103
Zn2   Zn    Zn3+2 0.499060 0.909270 0.499140 1.137817
C3    C     C_R   0.385945 0.998093 0.560832 0.863587
C4    C     C_R   0.381850 0.002334 0.440009 1.057198
C5    C     C_R   0.194842 0.065932 0.371948 -0.288942
C6    C     C_R   0.254419 0.065234 0.406644 0.408923
C7    C     C_R   0.730299 0.970773 0.328689 0.619860
C8    C     C_R   0.665070 0.969426 0.359751 0.289189
C9    C     C_R   0.042379 0.199240 0.127731 0.418349
C10   C     C_R   0.041800 0.265846 0.098156 -0.301517
H1    H     H_    0.077369 0.264891 0.066586 0.230367
C11   C     C_R   0.922151 0.764871 0.163235 -0.257382
C12   C     C_R   0.920054 0.706029 0.129247 0.671277
C13   C     C_R   0.062239 0.798469 0.142804 0.371822
C14   C     C_R   0.055076 0.749606 0.103112 0.282124
C15   C     C_R   0.947375 0.268342 0.178693 0.550157
C16   C     C_R   0.947014 0.335743 0.149029 0.291216
C17   C     C_R   0.251729 0.945649 0.337542 0.626404
C18   C     C_R   0.312335 0.944269 0.371438 0.551126
C19   C     C_R   0.814019 0.042117 0.385215 -0.183691
C20   C     C_R   0.750281 0.040331 0.416487 -0.191007
H2    H     H_    0.758761 0.066859 0.450519 0.201219
C21   C     C_3   0.995133 0.005362 0.253908 -0.112527
C22   C     C_R   0.193572 0.006634 0.337903 -0.210914
C23   C     C_R   0.315187 0.004337 0.405945 -0.436325
C24   C     C_R   0.803913 0.007058 0.341699 -0.090889
C25   C     C_R   0.676447 0.003405 0.404271 -0.251947
C26   C     C_R   0.994634 0.200811 0.168024 -0.234982
C27   C     C_R   0.993900 0.333150 0.108087 -0.313612
C28   C     C_R   0.992848 0.809974 0.170293 -0.178762
C29   C     C_R   0.986412 0.697220 0.099101 -0.401266
H3    H     H_    0.147667 0.111549 0.371984 0.237730
H4    H     H_    0.869089 0.774190 0.184757 0.222829
H5    H     H_    0.871326 0.070149 0.395054 0.198125
C30   C     C_1   0.068830 0.005216 0.281376 0.057234
C31   C     C_1   0.993920 0.075654 0.224001 0.077613
C32   C     C_1   0.926273 0.007039 0.284520 0.010681
C33   C     C_1   0.991554 0.933285 0.226232 0.106638
C34   C     C_1   0.127504 0.005429 0.306011 0.191992
C35   C     C_1   0.990589 0.875216 0.201961 0.181158
C36   C     C_1   0.993645 0.133229 0.198810 0.217981
C37   C     C_1   0.870061 0.007541 0.310466 0.134904
C38   C     C_R   0.902610 0.078274 0.833761 -0.144224
C39   C     C_R   0.867691 0.140053 0.859437 -0.155601
H6    H     H_    0.824315 0.124760 0.886360 0.170731
C40   C     C_R   0.040647 0.947682 0.842685 0.508671
C41   C     C_R   0.038920 0.878567 0.871348 -0.261649
H7    H     H_    0.070986 0.878838 0.904403 0.233745
C42   C     C_R   0.841755 0.025380 0.733833 -0.318003
C43   C     C_R   0.782497 0.019933 0.699745 0.624889
C44   C     C_R   0.148402 0.009457 0.749854 0.802016
C45   C     C_R   0.218492 0.036026 0.726796 -0.189056
H8    H     H_    0.276362 0.007520 0.734587 0.180367
C46   C     C_R   0.068860 0.105147 0.704863 -0.283283
C47   C     C_R   0.139106 0.131078 0.682084 -0.101847
H9    H     H_    0.134528 0.177223 0.655339 0.175887
C48   C     C_R   0.942812 0.971677 0.680733 0.230465
C49   C     C_R   0.884184 0.979324 0.643936 0.218343
C50   C     C_R   0.978501 0.176719 0.789395 -0.189391
C51   C     C_R   0.943080 0.239280 0.814931 0.409855
C52   C     C_R   0.951599 0.875945 0.788482 -0.239626
C53   C     C_R   0.951599 0.808559 0.817550 0.679329
C54   C     C_3   0.989277 0.022766 0.765691 0.044217
C55   C     C_R   0.957543 0.094347 0.796792 0.093076
C56   C     C_R   0.886321 0.220561 0.849775 -0.003437
C57   C     C_R   0.997286 0.947132 0.798703 -0.048507
C58   C     C_R   0.995312 0.809639 0.858924 -0.099266
C59   C     C_R   0.924506 0.006271 0.725713 -0.165193
C60   C     C_R   0.803143 0.999493 0.654782 -0.178345
C61   C     C_R   0.071270 0.046517 0.741148 0.051086
C62   C     C_R   0.214245 0.097285 0.693413 0.039571
H10   H     H_    0.882976 0.017302 0.841722 0.139418
H11   H     H_    0.819600 0.043774 0.766999 0.207564
H12   H     H_    0.011594 0.132169 0.694320 0.177971
H13   H     H_    0.023056 0.194715 0.764493 0.174330
H14   H     H_    0.914854 0.870177 0.757483 0.200972
C63   C     C_1   0.993653 0.740734 0.889614 0.133329
C64   C     C_1   0.992454 0.683747 0.915817 -0.061001
C65   C     C_1   0.844727 0.282692 0.875220 0.011605
C66   C     C_1   0.809123 0.334325 0.896239 0.150040
C67   C     C_1   0.738364 0.997342 0.620783 0.207618
C68   C     C_1   0.683100 0.996703 0.593134 -0.081545
C69   C     C_1   0.286765 0.123914 0.669862 -0.013564
C70   C     C_1   0.347490 0.146307 0.650176 0.093443
O9    O     O_R   0.056930 0.600420 0.055130 -0.565077
O10   O     O_R   0.924600 0.421430 0.056650 -0.568840
O11   O     O_R   0.061270 0.426220 0.059090 -0.614574
O12   O     O_R   0.920260 0.595630 0.052680 -0.543010
C71   C     C_R   0.987380 0.628915 0.066884 1.023808
C72   C     C_R   0.993026 0.398263 0.074065 0.981705
O13   O     O_R   0.924170 0.588160 0.962540 -0.615497
O14   O     O_R   0.065180 0.418740 0.968950 -0.605053
O15   O     O_R   0.928510 0.413960 0.966510 -0.635566
O16   O     O_R   0.060840 0.592940 0.964990 -0.572200
Zn3   Zn    Zn3+2 0.084620 0.510410 0.012460 1.128083
Zn4   Zn    Zn3+2 0.900820 0.503970 0.009170 1.120639
C73   C     C_R   0.992415 0.617657 0.948161 0.903743
C74   C     C_R   0.998387 0.387095 0.953817 0.887651
S1    S     S_3+6 0.245891 0.137521 0.451568 0.069066
O17   O     O_2   0.256325 0.096757 0.498001 -0.311066
O18   O     O_2   0.310594 0.201195 0.445611 -0.243382
O19   O     O_3   0.153879 0.181893 0.449532 -0.531833
H15   H     H_    0.154192 0.220419 0.475720 0.397414
F1    F     F_    0.723038 0.937151 0.285938 -0.585034
S2    S     S_3+6 0.101864 0.114316 0.113275 0.082890
O20   O     O_2   0.163445 0.099958 0.151271 -0.233895
O21   O     O_2   0.047022 0.041721 0.109192 -0.262547
O22   O     O_3   0.150483 0.129320 0.062669 -0.526302
H16   H     H_    0.179416 0.078013 0.056798 0.410438
S3    S     S_3+6 0.157842 0.839488 0.161036 0.135688
O23   O     O_2   0.164937 0.925202 0.144207 -0.182399
O24   O     O_2   0.163117 0.838476 0.213192 -0.233508
O25   O     O_3   0.235823 0.785292 0.140277 -0.456701
H17   H     H_    0.285425 0.815734 0.149380 0.401229
F2    F     F_    0.901650 0.267519 0.217863 -0.611961
F3    F     F_    0.249138 0.887017 0.304778 -0.554629
F4    F     F_    0.704163 0.037941 0.710577 -0.634489
S4    S     S_3+6 0.569165 0.930220 0.341940 0.129096
O26   O     O_2   0.552581 0.852942 0.367947 -0.206579
O27   O     O_2   0.504349 0.990772 0.353152 -0.313508
O28   O     O_3   0.566415 0.911744 0.284572 -0.422384
H18   H     H_    0.510518 0.891561 0.278400 0.407957
S5    S     S_3+6 0.909838 0.966885 0.584037 0.101452
O29   O     O_2   0.886159 0.883128 0.569176 -0.200343
O30   O     O_2   0.863320 0.026374 0.554521 -0.323763
O31   O     O_3   0.009470 0.981326 0.573780 -0.402403
H19   H     H_    0.019034 0.039538 0.579630 0.360996
S6    S     S_3+6 0.969741 0.340711 0.801971 0.059489
O32   O     O_2   0.894404 0.386079 0.787704 -0.213648
O33   O     O_2   0.005352 0.379775 0.844530 -0.329078
O34   O     O_3   0.037696 0.345981 0.758506 -0.502996
H20   H     H_    0.090564 0.331067 0.772914 0.367562
F5    F     F_    0.907564 0.742273 0.805356 -0.615118
S7    S     S_3+6 0.095824 0.030504 0.867285 0.049953
O35   O     O_2   0.120124 0.094859 0.833133 -0.323448
O36   O     O_2   0.044146 0.067721 0.904308 -0.297405
O37   O     O_3   0.180928 0.994096 0.892526 -0.495938
H21   H     H_    0.203205 0.039596 0.910903 0.396289
F6    F     F_    0.157967 0.945586 0.778892 -0.617417
S8    S     S_3+6 0.028734 0.906893 0.671197 0.090712
O38   O     O_2   0.097549 0.953862 0.649846 -0.242792
O39   O     O_2   0.059610 0.867710 0.714904 -0.262825
O40   O     O_3   0.002622 0.832174 0.634689 -0.399974
H22   H     H_    0.959495 0.801443 0.651109 0.364097
F7    F     F_    0.852906 0.658203 0.125814 -0.567560
S9    S     S_3+6 0.122394 0.764749 0.055302 0.108964
O41   O     O_2   0.190958 0.704940 0.058135 -0.212631
O42   O     O_2   0.076640 0.753104 0.010464 -0.339954
O43   O     O_3   0.161062 0.858958 0.055207 -0.459327
H23   H     H_    0.198615 0.860795 0.028420 0.390780
S10   S     S_3+6 0.890626 0.423011 0.164155 0.133063
O44   O     O_2   0.940160 0.497566 0.154095 -0.259240
O45   O     O_2   0.813872 0.425878 0.135405 -0.252438
O46   O     O_3   0.866362 0.422674 0.220888 -0.425378
H24   H     H_    0.809748 0.401876 0.222317 0.401554
F8    F     F_    0.368429 0.884249 0.370304 -0.540386

loop_
_geom_bond_atom_site_label_1
_geom_bond_atom_site_label_2
_geom_bond_distance
_ccdc_geom_bond_type
O13   C73   1.289690 A    
C53   F5    1.358279 S    
C63   C64   1.204188 T    
C43   C60   1.384504 A    
C69   C70   1.205612 T    
C40   C57   1.448507 A    
C12   F7    1.357861 S    
C21   C30   1.440866 S    
C54   C55   1.581601 S    
C38   C55   1.422318 A    
O1    Zn1   1.987531 S    
O3    C2    1.280120 A    
O2    Zn2   1.975714 S    
S4    O26   1.502793 D    
O11   C72   1.286093 A    
S10   O44   1.502769 D    
C41   H7    1.084468 S    
O25   H17   0.990499 S    
C20   H2    1.084120 S    
C38   C39   1.393001 A    
C15   C16   1.400623 A    
C45   H8    1.083772 S    
O1    C1    1.283131 A    
C17   C18   1.389090 A    
C8    C25   1.413930 A    
C42   H11   1.070317 S    
C50   C51   1.403882 A    
S1    O18   1.503058 D    
C6    C23   1.421190 A    
C19   C20   1.384606 A    
O9    C71   1.285026 A    
C44   C61   1.428938 A    
C5    C6    1.393314 A    
O12   C71   1.294855 A    
C40   C41   1.406559 A    
O14   Zn3   1.997213 S    
O12   Zn4   1.997084 S    
O22   H16   0.990668 S    
C46   H12   1.083304 S    
O9    Zn3   1.992874 S    
C8    S4    1.774138 S    
O37   H21   0.990588 S    
C16   C27   1.412661 A    
S2    O21   1.503300 D    
S8    O40   1.680690 S    
C7    F1    1.358317 S    
S5    O31   1.679424 S    
C54   C59   1.585938 S    
C29   C71   1.467222 S    
O14   C74   1.287715 A    
O15   C74   1.287676 A    
C7    C24   1.397187 A    
C9    S2    1.768103 S    
O4    Zn2   1.993241 S    
C5    C22   1.391561 A    
C60   C67   1.440987 S    
C24   C37   1.414036 S    
S3    O25   1.681032 S    
O11   Zn3   1.966992 S    
C49   C60   1.410092 A    
C33   C35   1.191965 T    
C17   C22   1.392202 A    
C42   C43   1.380300 A    
C14   S9    1.786219 S    
C21   C31   1.443071 S    
C46   C61   1.421689 A    
C19   H5    1.083985 S    
O2    C2    1.281448 A    
C48   C59   1.452852 A    
S7    O37   1.682343 S    
C42   C59   1.416955 A    
O16   Zn3   1.964510 S    
S10   O45   1.503600 D    
C17   F3    1.358066 S    
C6    S1    1.774132 S    
C43   F4    1.359576 S    
O5    Zn2   1.974611 S    
C13   S3    1.784427 S    
C48   C49   1.431873 A    
C41   C58   1.391938 A    
C13   C14   1.408238 A    
S7    O36   1.503003 D    
S6    O32   1.502822 D    
S1    O19   1.682458 S    
C14   C29   1.423799 A    
C67   C68   1.202973 T    
C64   C73   1.431977 S    
C15   C26   1.399967 A    
C26   C36   1.422803 S    
C31   C36   1.193848 T    
S6    O34   1.683106 S    
C20   C25   1.399011 A    
C38   H10   1.081842 S    
C15   F2    1.358454 S    
S9    O41   1.503249 D    
C18   F8    1.357870 S    
O7    C4    1.287277 A    
C53   C58   1.386692 A    
C9    C26   1.404415 A    
C52   H14   1.078388 S    
C62   C69   1.439774 S    
C47   C62   1.392161 A    
O43   H23   0.990499 S    
C30   C34   1.192281 T    
S2    O22   1.682076 S    
C11   C28   1.391804 A    
C7    C8    1.399296 A    
C2    C25   1.447161 S    
C50   C55   1.419950 A    
S6    O33   1.502945 D    
C49   S5    1.790949 S    
C45   C62   1.394165 A    
C51   S6    1.771398 S    
S5    O29   1.502503 D    
C21   C32   1.438050 S    
C54   C57   1.572320 S    
S8    O39   1.498172 D    
O28   H18   0.990498 S    
S4    O28   1.681800 S    
C4    C23   1.464905 S    
S10   O46   1.683489 S    
C50   H13   1.067523 S    
S3    O23   1.500635 D    
S3    O24   1.503356 D    
O13   Zn4   1.966991 S    
C10   C27   1.398206 A    
O10   Zn4   1.964826 S    
C39   H6    1.083831 S    
O46   H24   0.990644 S    
C22   C34   1.416490 S    
O6    C4    1.283854 A    
C11   C12   1.385226 A    
S9    O43   1.681305 S    
C5    H3    1.083675 S    
S7    O35   1.499511 D    
O8    C3    1.284755 A    
S4    O27   1.502536 D    
C32   C37   1.190832 T    
C18   C23   1.410484 A    
C12   C29   1.405535 A    
C19   C24   1.392684 A    
C46   C47   1.394847 A    
C9    C10   1.388645 A    
S9    O42   1.502284 D    
C65   C66   1.205517 T    
C52   C53   1.390102 A    
O34   H20   0.990797 S    
C16   S10   1.776738 S    
C27   C72   1.451692 S    
C52   C57   1.425496 A    
O6    Zn1   1.993239 S    
C28   C35   1.418547 S    
O4    C1    1.284850 A    
O10   C72   1.285848 A    
C13   C28   1.405267 A    
C54   C61   1.571334 S    
O15   Zn4   1.992696 S    
O19   H15   0.990555 S    
O16   C73   1.287430 A    
C44   C45   1.399788 A    
O7    Zn2   1.987527 S    
C1    C68   1.429106 S    
O3    Zn1   1.974606 S    
O8    Zn1   1.975718 S    
C56   C65   1.442932 S    
C39   C56   1.392812 A    
C40   S7    1.787642 S    
O5    C3    1.284369 A    
C10   H1    1.083529 S    
C58   C63   1.438491 S    
C47   H9    1.083509 S    
C51   C56   1.405566 A    
S5    O30   1.503829 D    
C21   C33   1.439748 S    
S8    O38   1.501206 D    
O31   H19   0.990988 S    
O40   H22   0.990718 S    
S1    O17   1.502548 D    
C44   F6    1.352550 S    
C11   H4    1.084119 S    
S2    O20   1.502944 D    
C48   S8    1.798579 S    
