data_mof_unit_36548.cif
_audit_creation_date              2012-12-10T19:44:27-0500
_audit_creation_method            fapswitch 2.2
_symmetry_space_group_name_H-M    P1
_symmetry_Int_Tables_number       1
_space_group_crystal_system       triclinic
_cell_length_a                    10.791104
_cell_length_b                    12.408139
_cell_length_c                    13.248763
_cell_angle_alpha                 117.161638
_cell_angle_beta                  76.423445
_cell_angle_gamma                 101.464567
_cell_volume                      1525.61318434

loop_
_atom_site_label
_atom_site_type_symbol
_atom_type_description
_atom_site_fract_x
_atom_site_fract_y
_atom_site_fract_z
_atom_type_partial_charge
C1    C     C_R   0.512458 0.854902 0.286668 0.777852
C2    C     C_R   0.603929 0.941158 0.855226 -0.205483
C3    C     C_R   0.035772 0.990472 0.597040 -0.049465
C4    C     C_R   0.127693 0.006158 0.507523 -0.156265
C5    C     C_R   0.090500 0.027370 0.423333 -0.002996
C6    C     C_R   0.962001 0.027440 0.425459 -0.219553
C7    C     C_R   0.869721 0.004286 0.508133 -0.105823
C8    C     C_R   0.904754 0.985906 0.595076 -0.087529
C9    C     C_R   0.219947 0.168721 0.341916 -0.119749
C10   C     C_R   0.312751 0.190533 0.258062 -0.142864
C11   C     C_R   0.368704 0.093331 0.162832 -0.102545
C12   C     C_R   0.736672 0.001524 0.502647 0.787484
C13   C     C_R   0.332037 0.974161 0.151348 -0.130490
C14   C     C_R   0.240333 0.952066 0.235681 -0.130695
C15   C     C_R   0.183859 0.049353 0.331438 0.139708
C16   C     C_R   0.320774 0.280865 0.021291 -0.187721
C17   C     C_R   0.454406 0.227813 0.835114 -0.058264
C18   C     C_R   0.612276 0.810846 0.086489 -0.213318
C19   C     C_R   0.647833 0.729048 0.973534 -0.155690
C20   C     C_R   0.599819 0.607093 0.935887 -0.126253
C21   C     C_R   0.510174 0.564624 0.010445 0.070992
C22   C     C_R   0.465570 0.650896 0.123091 0.056770
C23   C     C_R   0.480935 0.144918 0.713336 0.778455
C24   C     C_R   0.463447 0.439556 0.977146 0.072962
C25   C     C_R   0.367710 0.403975 0.053392 0.139346
C26   C     C_R   0.317022 0.491805 0.159329 -0.234410
C27   C     C_R   0.363242 0.613600 0.192759 -0.196590
C28   C     C_R   0.508421 0.348384 0.869888 -0.119011
C29   C     C_R   0.363345 0.193047 0.912131 -0.227254
C30   C     C_R   0.525125 0.772406 0.163316 -0.121634
C31   C     C_R   0.689345 0.339423 0.315055 -0.198229
C32   C     C_R   0.321788 0.759881 0.642317 -0.032635
C33   C     C_R   0.268766 0.657356 0.661863 0.448334
C34   C     C_R   0.262620 0.001645 0.502208 0.760534
C35   C     C_R   0.326406 0.549567 0.596634 -0.192249
C36   C     C_R   0.445911 0.546712 0.523829 -0.068207
C37   C     C_R   0.489416 0.650767 0.501112 0.196215
C38   C     C_R   0.520314 0.443536 0.468096 -0.054866
C39   C     C_R   0.620687 0.440320 0.376528 0.027291
C40   C     C_R   0.654541 0.539027 0.347645 0.427447
C41   C     C_R   0.593861 0.644305 0.413771 -0.236811
C42   C     C_R   0.504368 0.345978 0.501621 0.156209
C43   C     C_R   0.664650 0.241965 0.344431 0.164244
C44   C     C_R   0.655748 0.057738 0.867385 -0.062256
C45   C     C_R   0.755476 0.074383 0.784294 0.037686
C46   C     C_R   0.804056 0.970705 0.687828 0.014858
C47   C     C_R   0.754588 0.852181 0.678757 0.105392
C48   C     C_R   0.652972 0.839222 0.762142 -0.118975
Cu1   Cu    Cu3+1 0.529370 0.098270 0.475420 0.937424
Cu2   Cu    Cu3+1 0.470630 0.901730 0.524580 0.921732
H1    H     H_    0.525966 0.929551 0.918827 0.131613
H2    H     H_    0.440422 0.110536 0.098123 0.124289
H3    H     H_    0.375150 0.898877 0.077574 0.128805
H4    H     H_    0.214023 0.859652 0.226916 0.116380
H5    H     H_    0.320857 0.099509 0.886210 0.154984
H6    H     H_    0.240485 0.466365 0.216444 0.159178
H7    H     H_    0.247639 0.253230 0.079042 0.158974
H8    H     H_    0.583785 0.368354 0.809567 0.171714
H9    H     H_    0.657224 0.903483 0.114683 0.189180
H10   H     H_    0.634244 0.549414 0.847528 0.178956
H11   H     H_    0.717114 0.759510 0.915743 0.185167
H12   H     H_    0.616743 0.135265 0.941605 0.165898
H13   H     H_    0.315785 0.678226 0.273198 0.179070
H14   H     H_    0.764087 0.336626 0.243406 0.232790
H15   H     H_    0.274418 0.842104 0.686254 0.150627
H16   H     H_    0.273293 0.468718 0.602276 0.147565
H17   H     H_    0.631917 0.719318 0.393456 0.208317
H18   H     H_    0.611262 0.749754 0.755509 0.177548
H19   H     H_    0.933578 0.042369 0.359933 0.149014
H20   H     H_    0.178025 0.244756 0.415965 0.120313
H21   H     H_    0.341608 0.282784 0.267089 0.125743
N1    N     N_R   0.573890 0.246290 0.438210 -0.250594
N2    N     N_R   0.426890 0.754320 0.561170 -0.223031
O1    O     O_R   0.536940 0.972510 0.318130 -0.593699
O2    O     O_R   0.487330 0.806530 0.359650 -0.597940
O3    O     O_R   0.705160 0.082990 0.479250 -0.602430
O4    O     O_R   0.655550 0.917010 0.520760 -0.598017
O5    O     O_R   0.512670 0.193470 0.640350 -0.583260
O6    O     O_R   0.463060 0.027490 0.681870 -0.585992
O7    O     O_R   0.344450 0.082990 0.479240 -0.593297
O8    O     O_R   0.294840 0.917010 0.520750 -0.585580
C49   C     C_2   0.742035 0.137710 0.272146 0.332204
H22   H     H_    0.745045 0.067904 0.297340 0.128359
O9    O     O_2   0.806631 0.128307 0.179966 -0.575951
O10   O     O_3   0.759428 0.538492 0.263771 -0.592384
C50   C     C_3   0.716680 0.533628 0.168921 -0.260438
H23   H     H_    0.685803 0.622462 0.189208 0.156224
H24   H     H_    0.638345 0.458669 0.139568 0.173843
H25   H     H_    0.797917 0.515323 0.096277 0.229877
C51   C     C_2   0.426341 0.358743 0.612759 0.404064
H26   H     H_    0.345556 0.292897 0.617429 0.081902
O11   O     O_2   0.451289 0.445454 0.701501 -0.574473
O12   O     O_3   0.153885 0.656121 0.735036 -0.554603
C52   C     C_3   0.165571 0.745130 0.847804 -0.250045
H27   H     H_    0.162221 0.837909 0.856429 0.171110
H28   H     H_    0.254249 0.741085 0.874865 0.141618
H29   H     H_    0.082734 0.727438 0.908013 0.199741
C53   C     C_2   0.808857 0.199990 0.799706 0.320115
H30   H     H_    0.881859 0.215240 0.734390 0.091865
O13   O     O_2   0.772694 0.288655 0.886575 -0.574683
C54   C     C_2   0.809118 0.741769 0.583616 0.407822
H31   H     H_    0.878847 0.748009 0.512251 0.095338
O14   O     O_2   0.777689 0.641954 0.584362 -0.540617
C55   C     C_2   0.078716 0.989382 0.695977 0.370238
H32   H     H_    0.169977 0.037985 0.720897 0.055182
O15   O     O_2   0.014805 0.933532 0.749559 -0.541695

loop_
_geom_bond_atom_site_label_1
_geom_bond_atom_site_label_2
_ccdc_geom_bond_type
C3    C55   S    
C6    H19   S    
O12   C52   S    
C47   C54   S    
C17   C29   A    
C35   C36   A    
Cu2   O6    S    
C55   O15   D    
C7    C8    A    
C41   H17   S    
C45   C46   A    
C26   C27   A    
C17   C23   S    
C31   C43   A    
C1    O1    A    
C36   C37   A    
C38   C42   A    
C45   C53   S    
C5    C6    A    
C50   H24   S    
Cu1   O5    S    
C18   C19   A    
C11   H2    S    
C34   O7    A    
C19   C20   A    
C2    C44   A    
Cu1   N1    S    
C18   C30   A    
C34   O8    A    
C20   H10   S    
C9    C10   A    
C10   H21   S    
C54   O14   D    
C21   C22   A    
C37   C41   A    
C55   H32   S    
C13   H3    S    
C7    C12   S    
C4    C34   S    
C1    O2    A    
C54   H31   S    
C9    H20   S    
C3    C8    A    
C10   C11   A    
Cu2   N2    S    
C32   N2    A    
C50   H23   S    
C29   H5    S    
C52   H29   S    
C44   H12   S    
C16   C29   A    
O10   C50   S    
C49   H22   S    
C48   H18   S    
C26   H6    S    
C42   C51   S    
C40   O10   S    
C51   O11   D    
C47   C48   A    
C12   O4    A    
C42   N1    A    
Cu1   O3    S    
C24   C25   A    
C52   H28   S    
C27   H13   S    
C40   C41   A    
C14   H4    S    
Cu1   Cu2   S    
C49   O9    D    
C22   C27   A    
C12   O3    A    
C3    C4    A    
Cu2   O4    S    
C39   C40   A    
C44   C45   A    
C16   C25   A    
C43   N1    A    
C37   N2    A    
C46   C47   A    
C22   C30   A    
Cu1   O1    S    
C17   C28   A    
C31   H14   S    
C24   C28   A    
C4    C5    A    
C50   H25   S    
C33   O12   S    
C6    C7    A    
C28   H8    S    
C53   O13   D    
C35   H16   S    
Cu1   O7    S    
C2    C48   A    
C32   C33   A    
C36   C38   A    
C25   C26   A    
Cu2   O2    S    
C11   C13   A    
C51   H26   S    
C38   C39   A    
C19   H11   S    
C1    C30   S    
C33   C35   A    
C31   C39   A    
C16   H7    S    
C23   O5    A    
C9    C15   A    
C52   H27   S    
C8    C46   S    
C5    C15   S    
C2    H1    S    
C18   H9    S    
C20   C21   A    
C53   H30   S    
C21   C24   A    
C43   C49   S    
C14   C15   A    
C23   O6    A    
C13   C14   A    
Cu2   O8    S    
C32   H15   S    
