data_mof_unit_50973.cif
_audit_creation_date              2012-12-10T18:36:08-0500
_audit_creation_method            fapswitch 2.2
_symmetry_space_group_name_H-M    P1
_symmetry_Int_Tables_number       1
_space_group_crystal_system       triclinic
_cell_length_a                    15.139527
_cell_length_b                    13.800607
_cell_length_c                    15.07288
_cell_angle_alpha                 89.999551
_cell_angle_beta                  89.966866
_cell_angle_gamma                 90.000329
_cell_volume                      3149.24656583

loop_
_atom_site_label
_atom_site_type_symbol
_atom_type_description
_atom_site_fract_x
_atom_site_fract_y
_atom_site_fract_z
_atom_type_partial_charge
C1    C     C_R   0.329786 0.500002 0.500015 0.792309
C2    C     C_R   0.670214 0.500002 0.499985 0.792305
C3    C     C_R   0.499762 0.323332 0.046242 -0.211812
C4    C     C_R   0.500040 0.676680 0.953761 -0.216408
C5    C     C_R   0.095182 0.582791 0.527125 -0.163028
C6    C     C_R   0.904788 0.417246 0.527128 -0.164071
C7    C     C_R   0.904819 0.582791 0.472875 -0.163026
C8    C     C_R   0.095210 0.417245 0.472877 -0.164070
C9    C     C_R   0.186988 0.583007 0.526541 -0.179711
C10   C     C_R   0.812982 0.417022 0.526535 -0.181516
C11   C     C_R   0.813013 0.583008 0.473458 -0.179716
C12   C     C_R   0.187016 0.417021 0.473470 -0.181523
C13   C     C_R   0.233370 0.500010 0.500011 -0.032571
C14   C     C_R   0.766630 0.500011 0.499990 -0.032570
C15   C     C_R   0.048551 0.500019 0.500001 0.100823
C16   C     C_R   0.951449 0.500019 0.500002 0.100824
C17   C     C_R   0.557029 0.106794 0.556765 0.313796
C18   C     C_R   0.432964 0.892813 0.543969 0.348140
C19   C     C_R   0.442956 0.106798 0.443239 0.313811
C20   C     C_R   0.567019 0.892823 0.456037 0.348089
C21   C     C_R   0.556978 0.209620 0.553494 -0.077915
C22   C     C_R   0.433726 0.790688 0.541349 -0.054048
C23   C     C_R   0.443018 0.209625 0.446508 -0.077922
C24   C     C_R   0.566267 0.790698 0.458648 -0.053959
C25   C     C_R   0.499990 0.054807 0.500004 0.021170
C26   C     C_R   0.499991 0.945614 0.500005 0.006008
C27   C     C_R   0.499949 0.500003 0.328422 0.820952
C28   C     C_R   0.500052 0.500002 0.671578 0.820952
C29   C     C_R   0.499889 0.588194 0.814715 -0.245220
C30   C     C_R   0.499575 0.411834 0.185287 -0.248879
C31   C     C_R   0.500111 0.500012 0.768388 -0.076586
C32   C     C_R   0.499894 0.500013 0.231612 -0.076584
C33   C     C_R   0.500377 0.411832 0.814715 -0.248888
C34   C     C_R   0.500171 0.588195 0.185283 -0.245238
C35   C     C_R   0.500205 0.411203 0.907095 0.108911
C36   C     C_R   0.500073 0.588818 0.092904 0.110657
C37   C     C_R   0.500045 0.500010 0.953524 0.062934
C38   C     C_R   0.499963 0.500011 0.046476 0.062934
C39   C     C_R   0.499991 0.588818 0.907094 0.110657
C40   C     C_R   0.499747 0.411204 0.092906 0.108911
C41   C     C_R   0.500136 0.323332 0.953761 -0.211794
C42   C     C_R   0.500081 0.676680 0.046235 -0.216360
Cu1   Cu    Cu3+1 0.500000 0.596430 0.500000 0.939970
Cu2   Cu    Cu3+1 0.500000 0.403570 0.500000 0.937920
H1    H     H_    0.499661 0.656441 0.779038 0.154889
H2    H     H_    0.499266 0.343589 0.220975 0.148887
H3    H     H_    0.500642 0.343587 0.779028 0.148897
H4    H     H_    0.500443 0.656442 0.220960 0.154921
H5    H     H_    0.500295 0.254726 0.918749 0.139924
H6    H     H_    0.500021 0.745268 0.081240 0.150363
H7    H     H_    0.499560 0.254727 0.081255 0.139933
H8    H     H_    0.500144 0.745268 0.918755 0.150375
H9    H     H_    0.060740 0.646945 0.549817 0.131861
H10   H     H_    0.939206 0.353096 0.549827 0.131271
H11   H     H_    0.939262 0.646944 0.450182 0.131859
H12   H     H_    0.060791 0.353095 0.450181 0.131274
H13   H     H_    0.221623 0.647569 0.548009 0.147235
H14   H     H_    0.778316 0.352460 0.548004 0.147281
H15   H     H_    0.778380 0.647569 0.451989 0.147237
H16   H     H_    0.221682 0.352458 0.452002 0.147284
H17   H     H_    0.602441 0.250843 0.593834 0.134540
H18   H     H_    0.381285 0.750793 0.573570 0.148113
H19   H     H_    0.397556 0.250852 0.406170 0.134548
H20   H     H_    0.618703 0.750810 0.426413 0.148054
N1    N     N_R   0.500000 0.258690 0.500000 -0.201035
N2    N     N_R   0.500000 0.741310 0.500000 -0.218289
O1    O     O_R   0.371460 0.581430 0.500010 -0.586530
O2    O     O_R   0.628540 0.418570 0.499990 -0.582383
O3    O     O_R   0.628540 0.581430 0.499990 -0.586529
O4    O     O_R   0.371460 0.418570 0.500010 -0.582391
O5    O     O_R   0.499980 0.581440 0.370260 -0.583791
O6    O     O_R   0.500020 0.418560 0.629740 -0.587415
O7    O     O_R   0.500020 0.581440 0.629740 -0.583808
O8    O     O_R   0.499980 0.418560 0.370260 -0.587416
O9    O     O_3   0.614734 0.055111 0.610780 -0.590090
C43   C     C_3   0.616868 0.093323 0.697922 0.026922
H21   H     H_    0.550620 0.119762 0.719834 0.117693
H22   H     H_    0.665163 0.153936 0.701172 0.147186
C44   C     C_3   0.646764 0.013931 0.761942 -0.304451
H23   H     H_    0.602907 0.949775 0.755203 0.212761
H24   H     H_    0.715195 0.991341 0.744981 0.230012
C45   C     C_3   0.644272 0.048980 0.857981 -0.944467
H25   H     H_    0.688444 0.112540 0.866689 0.261439
H26   H     H_    0.666909 0.990003 0.902629 0.261143
H27   H     H_    0.575853 0.069458 0.876996 0.250467
O10   O     O_3   0.363923 0.939953 0.585856 -0.589180
C46   C     C_3   0.388583 0.963931 0.673785 0.048501
H28   H     H_    0.354609 0.032622 0.691471 0.170283
H29   H     H_    0.460555 0.977823 0.681587 0.141442
C47   C     C_3   0.359341 0.884820 0.738844 -0.363598
H30   H     H_    0.287294 0.871738 0.731364 0.234464
H31   H     H_    0.394953 0.816324 0.724198 0.201793
C48   C     C_3   0.378898 0.913777 0.834586 -0.931178
H32   H     H_    0.450939 0.925166 0.843892 0.254665
H33   H     H_    0.356924 0.855227 0.880057 0.260095
H34   H     H_    0.343116 0.981425 0.852011 0.260174
O11   O     O_3   0.385242 0.055123 0.389229 -0.590072
C49   C     C_3   0.383135 0.093316 0.302079 0.026887
H35   H     H_    0.449411 0.119656 0.280155 0.117722
H36   H     H_    0.334908 0.153993 0.298818 0.147135
C50   C     C_3   0.353133 0.013952 0.238080 -0.304390
H37   H     H_    0.396896 0.949723 0.244843 0.212736
H38   H     H_    0.284668 0.991484 0.255044 0.229990
C51   C     C_3   0.355682 0.048963 0.142032 -0.944481
H39   H     H_    0.311596 0.112591 0.133298 0.261422
H40   H     H_    0.332972 0.990007 0.097399 0.261148
H41   H     H_    0.424130 0.069325 0.123017 0.250511
O12   O     O_3   0.636017 0.939980 0.414094 -0.589186
C52   C     C_3   0.611279 0.963941 0.326181 0.048433
H42   H     H_    0.644980 0.032817 0.308561 0.170129
H43   H     H_    0.539251 0.977483 0.318354 0.141494
C53   C     C_3   0.640861 0.885038 0.261074 -0.363198
H44   H     H_    0.712992 0.872444 0.268447 0.234427
H45   H     H_    0.605655 0.816301 0.275774 0.201862
C54   C     C_3   0.620997 0.913874 0.165364 -0.931371
H46   H     H_    0.548875 0.924735 0.156161 0.254630
H47   H     H_    0.643264 0.855496 0.119850 0.260115
H48   H     H_    0.656342 0.981788 0.147904 0.260162

loop_
_geom_bond_atom_site_label_1
_geom_bond_atom_site_label_2
_ccdc_geom_bond_type
Cu1   O7    S    
C38   C40   A    
C46   H28   S    
C48   H32   S    
C36   C42   A    
C18   C26   A    
C43   C44   S    
C7    H11   S    
Cu1   Cu2   S    
C8    H12   S    
C51   H40   S    
O11   C49   S    
C19   O11   S    
C7    C11   A    
C18   O10   S    
C4    C42   A    
C4    H8    S    
C5    H9    S    
C10   H14   S    
C43   H22   S    
C2    O2    A    
C52   H43   S    
C11   C14   A    
C15   C16   S    
O12   C52   S    
C41   H5    S    
C9    C13   A    
C53   H44   S    
C1    O1    A    
C22   N2    A    
C20   C24   A    
C54   H47   S    
C31   C33   A    
Cu2   O4    S    
C2    O3    A    
C21   H17   S    
C24   N2    A    
C21   N1    A    
C23   H19   S    
C50   H38   S    
Cu2   N1    S    
C28   O6    A    
C6    H10   S    
C11   H15   S    
C28   O7    A    
C53   H45   S    
C51   H39   S    
C37   C39   A    
C50   H37   S    
C43   H21   S    
C9    H13   S    
C10   C14   A    
C52   C53   S    
C44   H24   S    
C3    H7    S    
O10   C46   S    
C25   C26   S    
C17   C21   A    
C29   H1    S    
C32   C34   A    
C19   C23   A    
O9    C43   S    
C5    C9    A    
C37   C38   A    
C22   H18   S    
C47   H31   S    
C4    C39   A    
C8    C12   A    
C54   H48   S    
C29   C39   A    
C30   C40   A    
Cu2   O8    S    
C35   C41   A    
C42   H6    S    
Cu1   O1    S    
C7    C16   A    
C3    C40   A    
C49   H35   S    
C8    C15   A    
C49   H36   S    
C46   H29   S    
C33   H3    S    
Cu2   O2    S    
C1    C13   S    
C27   O8    A    
C27   O5    A    
C47   C48   S    
C3    C41   A    
Cu1   O5    S    
C35   C37   A    
C27   C32   S    
C18   C22   A    
C30   H2    S    
C28   C31   S    
C6    C10   A    
C44   C45   S    
C48   H34   S    
C45   H27   S    
C45   H26   S    
C1    O4    A    
C49   C50   S    
C17   C25   A    
C23   N1    A    
C36   C38   A    
C29   C31   A    
C52   H42   S    
C30   C32   A    
C47   H30   S    
C48   H33   S    
C20   C26   A    
Cu1   N2    S    
C33   C35   A    
Cu2   O6    S    
C34   C36   A    
C53   C54   S    
C2    C14   S    
C5    C15   A    
C19   C25   A    
C6    C16   A    
C44   H23   S    
C12   H16   S    
C34   H4    S    
C12   C13   A    
C24   H20   S    
C45   H25   S    
C46   C47   S    
C17   O9    S    
C50   C51   S    
Cu1   O3    S    
C51   H41   S    
C54   H46   S    
C20   O12   S    
