data_mof_unit_29246.cif
_audit_creation_date              2012-10-26T19:48:08-0400
_audit_creation_method            fapswitch 2.2
_symmetry_space_group_name_H-M    P1
_symmetry_Int_Tables_number       1
_space_group_crystal_system       triclinic
_cell_length_a                    10.742857
_cell_length_b                    9.418241
_cell_length_c                    10.641675
_cell_angle_alpha                 89.795402
_cell_angle_beta                  89.560634
_cell_angle_gamma                 89.860991
_cell_volume                      1076.67045961

loop_
_atom_site_label
_atom_site_type_symbol
_atom_type_description
_atom_site_fract_x
_atom_site_fract_y
_atom_site_fract_z
_atom_type_partial_charge
C1    C     C_R   0.259825 0.500085 0.496097 0.596222
C2    C     C_3   0.927551 0.610106 0.398144 -0.139367
C3    C     C_3   0.620813 0.083239 0.546083 -0.104502
C4    C     C_3   0.620879 0.915835 0.545937 -0.102265
C5    C     C_3   0.402102 0.083725 0.587155 -0.106171
C6    C     C_3   0.402299 0.916089 0.587406 -0.113422
C7    C     C_3   0.477484 0.084087 0.375645 -0.099142
C8    C     C_3   0.477304 0.916930 0.375691 -0.100104
C9    C     C_R   0.500479 0.500305 0.259460 0.573398
C10   C     C_R   0.739844 0.499718 0.496138 0.554128
C11   C     C_R   0.499667 0.499693 0.740728 0.588997
C12   C     C_3   0.500997 0.500937 0.122976 -0.053144
C13   C     C_3   0.504906 0.635623 0.040818 -0.096562
C14   C     C_3   0.395578 0.437629 0.044365 -0.107681
C15   C     C_3   0.399783 0.571938 0.959630 -0.209241
C16   C     C_3   0.499312 0.499134 0.877449 0.040528
C17   C     C_3   0.602911 0.561282 0.957608 0.345826
C18   C     C_3   0.495708 0.366985 0.961206 0.348319
C19   C     C_3   0.601245 0.427841 0.041852 -0.086192
C20   C     C_3   0.127079 0.635039 0.712568 -0.390426
C21   C     C_3   0.113308 0.312921 0.309952 -0.381331
C22   C     C_3   0.068407 0.517642 0.631625 -0.165717
C23   C     C_3   0.071325 0.352984 0.444571 -0.167612
C24   C     C_3   0.925299 0.535620 0.626748 -0.224951
C25   C     C_3   0.927856 0.350286 0.455713 -0.256108
C26   C     C_3   0.070523 0.621870 0.407333 0.694267
C27   C     C_3   0.121558 0.500140 0.493935 0.103935
C28   C     C_3   0.877464 0.498876 0.494051 -0.063671
Cu1   Cu    Cu3+1 0.499860 0.642410 0.500060 0.937460
Cu2   Cu    Cu3+1 0.499860 0.357590 0.500060 0.901783
F1    F     F_    0.709066 0.624999 0.909763 -0.639112
F2    F     F_    0.490541 0.228651 0.918530 -0.645750
F3    F     F_    0.100132 0.754158 0.454771 -0.650354
F4    F     F_    0.123274 0.614602 0.288249 -0.633542
H1    H     H_    0.317627 0.631713 0.925532 0.130879
H2    H     H_    0.387031 0.124068 0.339331 0.128525
H3    H     H_    0.386693 0.877863 0.339642 0.167982
H4    H     H_    0.550688 0.121633 0.309004 0.135056
H5    H     H_    0.550274 0.879183 0.308948 0.121777
H6    H     H_    0.308873 0.121856 0.557443 0.120861
H7    H     H_    0.309084 0.878202 0.558259 0.174542
H8    H     H_    0.509909 0.746423 0.075666 0.148326
H9    H     H_    0.310582 0.385550 0.082195 0.140527
H10   H     H_    0.683534 0.369164 0.077569 0.123004
H11   H     H_    0.088000 0.416899 0.683203 0.129552
H12   H     H_    0.885205 0.716196 0.415686 0.141263
H13   H     H_    0.107361 0.267199 0.506973 0.142810
H14   H     H_    0.881280 0.465031 0.698479 0.156532
H15   H     H_    0.900431 0.270274 0.528068 0.132718
H16   H     H_    0.897260 0.646459 0.650082 0.175644
H17   H     H_    0.884250 0.316440 0.366038 0.137071
H18   H     H_    0.109698 0.742671 0.674369 0.203073
H19   H     H_    0.086212 0.630990 0.808739 0.147875
H20   H     H_    0.228606 0.618162 0.722202 0.135308
H21   H     H_    0.214641 0.328283 0.295636 0.172388
H22   H     H_    0.092784 0.199047 0.293093 0.132692
H23   H     H_    0.900618 0.578513 0.301402 0.125105
H24   H     H_    0.062707 0.375487 0.237983 0.187639
H25   H     H_    0.641847 0.122686 0.642014 0.154505
H26   H     H_    0.642173 0.875330 0.641755 0.155931
H27   H     H_    0.697634 0.120324 0.483682 0.115500
H28   H     H_    0.697651 0.879116 0.483353 0.119904
H29   H     H_    0.415353 0.122470 0.684642 0.184960
H30   H     H_    0.416043 0.876914 0.685010 0.133593
N1    N     N_3   0.500250 0.143650 0.502780 -0.242803
N2    N     N_3   0.500250 0.856350 0.502780 -0.246133
O1    O     O_R   0.317570 0.620260 0.500070 -0.452992
O2    O     O_R   0.317570 0.379740 0.500070 -0.546693
O3    O     O_R   0.499850 0.620240 0.316900 -0.502961
O4    O     O_R   0.499850 0.379760 0.316900 -0.521154
O5    O     O_R   0.682190 0.620260 0.500030 -0.516381
O6    O     O_R   0.682190 0.379740 0.500030 -0.515457
O7    O     O_R   0.499910 0.620280 0.683200 -0.508109
O8    O     O_R   0.499910 0.379720 0.683200 -0.471354

loop_
_geom_bond_atom_site_label_1
_geom_bond_atom_site_label_2
_ccdc_geom_bond_type
C8    N2    S    
C7    H2    S    
C14   C18   S    
C2    H23   S    
C7    C8    S    
C2    H12   S    
C25   C28   S    
C26   C27   S    
C9    O3    A    
C5    C6    S    
Cu2   O8    S    
Cu1   O7    S    
C15   C16   S    
C4    H28   S    
C1    O2    A    
C5    H29   S    
C18   C19   S    
C6    H30   S    
C17   C19   S    
Cu1   O1    S    
C26   F4    S    
C16   C17   S    
C6    H7    S    
C8    H5    S    
C23   C27   S    
C10   O5    A    
C3    N1    S    
C15   H1    S    
C13   H8    S    
Cu2   O4    S    
Cu1   O3    S    
C3    H27   S    
C24   H16   S    
C23   H13   S    
C24   H14   S    
C9    O4    A    
C20   H20   S    
C11   O7    A    
C21   H21   S    
C25   H17   S    
Cu1   Cu2   S    
C7    N1    S    
C11   C16   S    
C26   F3    S    
C4    H26   S    
C2    C26   S    
C5    N1    S    
C20   C22   S    
C22   C27   S    
C13   C15   S    
C17   F1    S    
C22   C24   S    
C18   F2    S    
C8    H3    S    
C3    C4    S    
C19   H10   S    
C10   C28   S    
C24   C28   S    
C12   C14   S    
C20   H19   S    
C11   O8    A    
C21   H22   S    
Cu2   O6    S    
C13   C17   S    
C21   C23   S    
C21   H24   S    
C20   H18   S    
C4    N2    S    
C12   C19   S    
C1    O1    A    
C7    H4    S    
C23   C25   S    
C9    C12   S    
C25   H15   S    
Cu2   N1    S    
Cu1   N2    S    
C6    N2    S    
C22   H11   S    
C12   C13   S    
C16   C18   S    
C5    H6    S    
C1    C27   S    
C14   C15   S    
C2    C28   S    
Cu2   O2    S    
C3    H25   S    
C14   H9    S    
Cu1   O5    S    
C10   O6    A    
