data_mof_unit_15910.cif
_audit_creation_date              2013-03-05T15:54:25-0500
_audit_creation_method            fapswitch 2.2
_symmetry_space_group_name_H-M    P1
_symmetry_Int_Tables_number       1
_space_group_crystal_system       triclinic
_cell_length_a                    15.753125
_cell_length_b                    10.677713
_cell_length_c                    9.899157
_cell_angle_alpha                 90.144814
_cell_angle_beta                  89.960121
_cell_angle_gamma                 91.577241
_cell_volume                      1664.47443389

loop_
_atom_site_label
_atom_site_type_symbol
_atom_site_description
_atom_site_fract_x
_atom_site_fract_y
_atom_site_fract_z
_atom_type_partial_charge
O1    O     O_R   0.500000 0.316780 0.614690 -0.609534
O2    O     O_R   0.499990 0.316750 0.385360 -0.594712
C1    C     C_R   0.507559 0.260115 0.500234 0.926656
O3    O     O_R   0.376780 0.500000 0.614650 -0.603239
O4    O     O_R   0.376770 0.499980 0.385310 -0.644722
C2    C     C_R   0.338102 0.499503 0.500008 0.880408
Zn1   Zn    Zn3+2 0.500010 0.500020 0.653130 1.045424
Zn2   Zn    Zn3+2 0.499990 0.499980 0.346870 1.080216
O5    O     O_R   0.500010 0.683250 0.614640 -0.617167
O6    O     O_R   0.500000 0.683220 0.385310 -0.584870
O7    O     O_R   0.623230 0.500020 0.614690 -0.591281
O8    O     O_R   0.623220 0.500000 0.385350 -0.553051
C3    C     C_R   0.490582 0.738994 0.500584 0.943119
C4    C     C_R   0.661922 0.500297 0.499961 0.909092
C5    C     C_3   0.969458 0.386422 0.532647 0.549654
C6    C     C_3   0.025969 0.413594 0.409425 0.077410
C7    C     C_1   0.249438 0.499310 0.499797 -0.049106
C8    C     C_1   0.750641 0.500121 0.499591 -0.059632
C9    C     C_3   0.027296 0.472531 0.619526 0.649616
C10   C     C_3   0.083697 0.498965 0.495815 -0.197071
C11   C     C_3   0.973638 0.587229 0.584450 -0.285300
C12   C     C_3   0.916459 0.500081 0.496234 -0.198393
C13   C     C_3   0.031189 0.614171 0.458755 -0.244778
C14   C     C_3   0.973075 0.526322 0.373304 0.231971
C15   C     C_1   0.174330 0.499143 0.498450 0.192175
C16   C     C_1   0.825777 0.500037 0.498365 0.194581
H1    H     H_    0.057421 0.707039 0.426885 0.238295
H2    H     H_    0.950887 0.657794 0.657609 0.235828
C17   C     C_R   0.546542 0.107796 0.748383 0.518477
C18   C     C_R   0.525880 0.049625 0.870379 0.482113
C19   C     C_R   0.470890 0.945227 0.872113 0.421667
C20   C     C_R   0.444022 0.889402 0.749888 0.134355
C21   C     C_R   0.476231 0.939107 0.625790 -0.170903
C22   C     C_R   0.513070 0.059557 0.625496 -0.254225
C23   C     C_R   0.514232 0.125649 0.501388 -0.156062
C24   C     C_R   0.503626 0.061243 0.378574 0.669132
H3    H     H_    0.487802 0.885430 0.283636 0.252891
C25   C     C_R   0.488880 0.934616 0.379556 -0.178861
C26   C     C_R   0.478384 0.872085 0.502242 -0.099513
C27   C     C_R   0.390516 0.333197 0.139795 -0.117680
H4    H     H_    0.385739 0.329056 0.246844 0.208976
C28   C     C_R   0.337695 0.249436 0.069355 0.761466
C29   C     C_R   0.337672 0.249521 0.929549 -0.268467
H5    H     H_    0.296125 0.184894 0.874741 0.210894
C30   C     C_R   0.390479 0.333211 0.859484 -0.216201
H6    H     H_    0.385480 0.329051 0.752453 0.216579
C31   C     C_R   0.446163 0.417611 0.927480 0.207655
C32   C     C_R   0.446169 0.417648 0.072141 -0.010296
N1    N     N_R   0.499210 0.498800 0.142780 -0.161881
C33   C     C_R   0.551290 0.579213 0.071636 0.736910
H7    H     H_    0.592910 0.643807 0.874476 0.169124
C34   C     C_R   0.551229 0.579085 0.928431 -0.108588
N2    N     N_R   0.499180 0.498720 0.857170 -0.123852
N3    N     N_R   0.052630 0.319161 0.312925 0.279914
O9    O     O_R   0.995827 0.253283 0.246589 -0.233458
O10   O     O_R   0.132791 0.300504 0.291982 -0.300954
F1    F     F_    0.444053 0.899058 0.992890 -0.556764
N4    N     N_R   0.378016 0.793149 0.751286 0.273439
O11   O     O_R   0.323765 0.784414 0.652382 -0.377276
O12   O     O_R   0.367622 0.720037 0.855306 -0.298094
F2    F     F_    0.603773 0.660403 0.138831 -0.603233
F3    F     F_    0.285758 0.168241 0.137506 -0.573153
F4    F     F_    0.937245 0.269981 0.570582 -0.550596
N5    N     N_R   0.944813 0.554793 0.236908 0.267443
O13   O     O_R   0.000544 0.575055 0.141946 -0.261538
O14   O     O_R   0.864334 0.559999 0.209088 -0.302703
F5    F     F_    0.056898 0.443984 0.746938 -0.552082
F6    F     F_    0.509755 0.119161 0.256906 -0.569929
F7    F     F_    0.604657 0.204174 0.750162 -0.570649
F8    F     F_    0.556726 0.097903 0.987818 -0.515665

loop_
_geom_bond_atom_site_label_1
_geom_bond_atom_site_label_2
_geom_bond_distance
_ccdc_geom_bond_type
C5    C6    1.533183 S    
O4    Zn2   1.977785 S    
C33   C34   1.417612 A    
C13   C14   1.543794 S    
C24   F6    1.357459 S    
C9    F5    1.382660 S    
H3    C25   1.083847 S    
C1    C23   1.442593 S    
C28   F3    1.356220 S    
C23   C24   1.403082 A    
C8    C16   1.183709 T    
C10   C13   1.546203 S    
Zn2   O8    1.978533 S    
C20   N4    1.441833 S    
C29   H5    1.082886 S    
C7    C15   1.183219 T    
C20   C21   1.426840 A    
C19   F1    1.357202 S    
C6    N3    1.457244 S    
C24   C25   1.365642 A    
C21   C22   1.396368 A    
C5    C12   1.535661 S    
O6    C3    1.296154 A    
C6    C14   1.526040 S    
O1    Zn1   1.992295 S    
C11   C12   1.546187 S    
N5    O13   1.300269 A    
Zn1   O7    1.977786 S    
C27   C32   1.410318 A    
C29   C30   1.390349 A    
C18   C19   1.392933 A    
C5    F4    1.382657 S    
C17   C18   1.393662 A    
O3    Zn1   1.978533 S    
C32   N1    1.376906 A    
C31   N2    1.376388 A    
Zn2   N1    2.020369 S    
C12   C14   1.530122 S    
O3    C2    1.288381 A    
C6    C10   1.529966 S    
C9    C11   1.547434 S    
C11   H2    1.110125 S    
O8    C4    1.288321 A    
O2    C1    1.296409 A    
C17   F7    1.358507 S    
C13   H1    1.110154 S    
C11   C13   1.561671 S    
C12   C16   1.428642 S    
O4    C2    1.288075 A    
Zn2   O6    1.992294 S    
O7    C4    1.288538 A    
N3    O10   1.300216 A    
C3    C26   1.439324 S    
C28   C29   1.383961 A    
Zn1   N2    2.019939 S    
N4    O12   1.301297 A    
H7    C34   1.081847 S    
C31   C32   1.432022 A    
C30   H6    1.063217 S    
C33   F2    1.354972 S    
C25   C26   1.394941 A    
C34   N2    1.365751 A    
C14   N5    1.457420 S    
C22   C23   1.418229 A    
C10   C15   1.427966 S    
C30   C31   1.410294 A    
N1    C33   1.367407 A    
C2    C7    1.396686 S    
C4    C8    1.397660 S    
N3    O9    1.300220 A    
C27   H4    1.063260 S    
O5    C3    1.288261 A    
C18   F8    1.355490 S    
N4    O11   1.301519 A    
C5    C9    1.538231 S    
C17   C22   1.416310 A    
C21   C26   1.416314 A    
C19   C20   1.407679 A    
O2    Zn2   1.994178 S    
C9    C10   1.534685 S    
C27   C28   1.391114 A    
O1    C1    1.290081 A    
Zn1   O5    1.994177 S    
N5    O14   1.300259 A    
